MODEL 1
REMARK VINA RESULT:      -9.7      0.000      0.000
REMARK  Name = 
REMARK  8 active torsions:
REMARK  status: ('A' for Active; 'I' for Inactive)
REMARK    1  A    between atoms: C_1  and  C_2
REMARK    2  A    between atoms: C_2  and  C_3
REMARK    3  A    between atoms: C_2  and  C_10
REMARK    4  A    between atoms: C_3  and  C_4
REMARK    5  A    between atoms: N_8  and  C_9
REMARK    6  A    between atoms: C_14  and  N_15
REMARK    7  A    between atoms: C_16  and  C_18
REMARK    8  A    between atoms: C_20  and  C_21
REMARK                            x       y       z     vdW  Elec       q    Type
REMARK                         _______ _______ _______ _____ _____    ______ ____
ROOT
ATOM      1  N   UNL     1       2.438   7.502  19.464  0.00  0.00    +0.000 N 
ATOM      2  C   UNL     1       2.777   7.548  18.127  0.00  0.00    +0.000 C 
ATOM      3  O   UNL     1       2.379   8.310  17.260  0.00  0.00    +0.000 OA
ATOM      4  H   UNL     1       2.900   6.809  20.039  0.00  0.00    +0.000 HD
ENDROOT
BRANCH   2   5
ATOM      5  C   UNL     1       3.639   6.417  17.739  0.00  0.00    +0.000 A 
ATOM      6  C   UNL     1       5.047   6.527  17.777  0.00  0.00    +0.000 A 
ATOM      7  C   UNL     1       5.862   5.382  17.951  0.00  0.00    +0.000 A 
ATOM      8  C   UNL     1       5.251   4.136  18.157  0.00  0.00    +0.000 A 
ATOM      9  C   UNL     1       3.870   4.075  18.101  0.00  0.00    +0.000 A 
ATOM     10  C   UNL     1       3.066   5.163  17.776  0.00  0.00    +0.000 A 
ATOM     11  C   UNL     1       1.635   4.755  17.812  0.00  0.00    +0.000 C 
ATOM     12  N   UNL     1       1.691   3.616  18.696  0.00  0.00    +0.000 N 
ATOM     13  C   UNL     1       2.996   3.132  18.783  0.00  0.00    +0.000 C 
ATOM     14  O   UNL     1       3.364   2.206  19.483  0.00  0.00    +0.000 OA
ATOM     15  H   UNL     1       1.191   3.650  19.580  0.00  0.00    +0.000 HD
BRANCH   7  16
ATOM     16  C   UNL     1       7.365   5.501  18.055  0.00  0.00    +0.000 C 
ATOM     17  F   UNL     1       7.799   5.619  19.340  0.00  0.00    +0.000 F 
ATOM     18  F   UNL     1       8.003   4.420  17.543  0.00  0.00    +0.000 F 
ATOM     19  F   UNL     1       7.843   6.585  17.391  0.00  0.00    +0.000 F 
ENDBRANCH   7  16
ENDBRANCH   2   5
BRANCH   1  24
ATOM     20  C   UNL     1       0.024  10.261  19.956  0.00  0.00    +0.000 A 
ATOM     21  C   UNL     1      -0.372  10.006  21.283  0.00  0.00    +0.000 A 
ATOM     22  C   UNL     1       0.207   8.983  22.035  0.00  0.00    +0.000 A 
ATOM     23  C   UNL     1       1.167   8.149  21.470  0.00  0.00    +0.000 A 
ATOM     24  C   UNL     1       1.556   8.351  20.151  0.00  0.00    +0.000 A 
ATOM     25  C   UNL     1       1.021   9.427  19.422  0.00  0.00    +0.000 A 
BRANCH  20  27
ATOM     26  C   UNL     1       0.184  12.477  18.681  0.00  0.00    +0.000 C 
ATOM     27  C   UNL     1      -0.708  11.284  19.070  0.00  0.00    +0.000 C 
BRANCH  27  28
ATOM     28  C   UNL     1      -1.371  10.682  17.800  0.00  0.00    +0.000 C 
BRANCH  28  29
ATOM     29  C   UNL     1      -2.788  11.132  17.621  0.00  0.00    +0.000 A 
ATOM     30  N   UNL     1      -3.562  11.633  18.568  0.00  0.00    +0.000 NA
ATOM     31  N   UNL     1      -4.790  11.901  18.016  0.00  0.00    +0.000 NA
ATOM     32  C   UNL     1      -4.751  11.546  16.753  0.00  0.00    +0.000 A 
ATOM     33  N   UNL     1      -3.511  11.066  16.457  0.00  0.00    +0.000 N 
ATOM     34  C   UNL     1      -3.094  10.581  15.169  0.00  0.00    +0.000 C 
ENDBRANCH  28  29
ENDBRANCH  27  28
ENDBRANCH  20  27
ENDBRANCH   1  24
TORSDOF 6
ENDMDL
MODEL 2
REMARK VINA RESULT:      -9.6      1.101      1.312
REMARK  Name = 
REMARK  8 active torsions:
REMARK  status: ('A' for Active; 'I' for Inactive)
REMARK    1  A    between atoms: C_1  and  C_2
REMARK    2  A    between atoms: C_2  and  C_3
REMARK    3  A    between atoms: C_2  and  C_10
REMARK    4  A    between atoms: C_3  and  C_4
REMARK    5  A    between atoms: N_8  and  C_9
REMARK    6  A    between atoms: C_14  and  N_15
REMARK    7  A    between atoms: C_16  and  C_18
REMARK    8  A    between atoms: C_20  and  C_21
REMARK                            x       y       z     vdW  Elec       q    Type
REMARK                         _______ _______ _______ _____ _____    ______ ____
ROOT
ATOM      1  N   UNL     1       2.135   7.677  19.269  0.00  0.00    +0.000 N 
ATOM      2  C   UNL     1       2.423   6.362  19.575  0.00  0.00    +0.000 C 
ATOM      3  O   UNL     1       2.150   5.733  20.585  0.00  0.00    +0.000 OA
ATOM      4  H   UNL     1       2.420   8.017  18.359  0.00  0.00    +0.000 HD
ENDROOT
BRANCH   2   5
ATOM      5  C   UNL     1       3.287   5.736  18.558  0.00  0.00    +0.000 A 
ATOM      6  C   UNL     1       4.663   6.046  18.479  0.00  0.00    +0.000 A 
ATOM      7  C   UNL     1       5.587   5.120  17.935  0.00  0.00    +0.000 A 
ATOM      8  C   UNL     1       5.129   3.855  17.537  0.00  0.00    +0.000 A 
ATOM      9  C   UNL     1       3.772   3.602  17.622  0.00  0.00    +0.000 A 
ATOM     10  C   UNL     1       2.835   4.555  18.007  0.00  0.00    +0.000 A 
ATOM     11  C   UNL     1       1.475   3.952  17.996  0.00  0.00    +0.000 C 
ATOM     12  N   UNL     1       1.788   2.552  18.148  0.00  0.00    +0.000 N 
ATOM     13  C   UNL     1       3.122   2.314  17.815  0.00  0.00    +0.000 C 
ATOM     14  O   UNL     1       3.688   1.239  17.883  0.00  0.00    +0.000 OA
ATOM     15  H   UNL     1       1.462   2.057  18.973  0.00  0.00    +0.000 HD
BRANCH   7  16
ATOM     16  C   UNL     1       7.068   5.420  17.907  0.00  0.00    +0.000 C 
ATOM     17  F   UNL     1       7.441   6.144  16.816  0.00  0.00    +0.000 F 
ATOM     18  F   UNL     1       7.467   6.137  18.986  0.00  0.00    +0.000 F 
ATOM     19  F   UNL     1       7.822   4.290  17.891  0.00  0.00    +0.000 F 
ENDBRANCH   7  16
ENDBRANCH   2   5
BRANCH   1  24
ATOM     20  C   UNL     1      -0.212  10.429  20.044  0.00  0.00    +0.000 A 
ATOM     21  C   UNL     1      -0.198  10.374  21.450  0.00  0.00    +0.000 A 
ATOM     22  C   UNL     1       0.635   9.491  22.140  0.00  0.00    +0.000 A 
ATOM     23  C   UNL     1       1.447   8.600  21.445  0.00  0.00    +0.000 A 
ATOM     24  C   UNL     1       1.432   8.603  20.055  0.00  0.00    +0.000 A 
ATOM     25  C   UNL     1       0.644   9.543  19.367  0.00  0.00    +0.000 A 
BRANCH  20  27
ATOM     26  C   UNL     1      -0.596  12.547  18.655  0.00  0.00    +0.000 C 
ATOM     27  C   UNL     1      -1.230  11.287  19.273  0.00  0.00    +0.000 C 
BRANCH  27  28
ATOM     28  C   UNL     1      -2.038  10.517  18.191  0.00  0.00    +0.000 C 
BRANCH  28  29
ATOM     29  C   UNL     1      -3.355  11.163  17.888  0.00  0.00    +0.000 A 
ATOM     30  N   UNL     1      -4.186  11.672  18.780  0.00  0.00    +0.000 NA
ATOM     31  N   UNL     1      -5.288  12.147  18.113  0.00  0.00    +0.000 NA
ATOM     32  C   UNL     1      -5.118  11.908  16.834  0.00  0.00    +0.000 A 
ATOM     33  N   UNL     1      -3.915  11.299  16.643  0.00  0.00    +0.000 N 
ATOM     34  C   UNL     1      -3.386  10.884  15.372  0.00  0.00    +0.000 C 
ENDBRANCH  28  29
ENDBRANCH  27  28
ENDBRANCH  20  27
ENDBRANCH   1  24
TORSDOF 6
ENDMDL
MODEL 3
REMARK VINA RESULT:      -9.6      2.471      3.127
REMARK  Name = 
REMARK  8 active torsions:
REMARK  status: ('A' for Active; 'I' for Inactive)
REMARK    1  A    between atoms: C_1  and  C_2
REMARK    2  A    between atoms: C_2  and  C_3
REMARK    3  A    between atoms: C_2  and  C_10
REMARK    4  A    between atoms: C_3  and  C_4
REMARK    5  A    between atoms: N_8  and  C_9
REMARK    6  A    between atoms: C_14  and  N_15
REMARK    7  A    between atoms: C_16  and  C_18
REMARK    8  A    between atoms: C_20  and  C_21
REMARK                            x       y       z     vdW  Elec       q    Type
REMARK                         _______ _______ _______ _____ _____    ______ ____
ROOT
ATOM      1  N   UNL     1       2.238   7.433  20.158  0.00  0.00    +0.000 N 
ATOM      2  C   UNL     1       2.522   7.182  18.830  0.00  0.00    +0.000 C 
ATOM      3  O   UNL     1       2.128   7.773  17.837  0.00  0.00    +0.000 OA
ATOM      4  H   UNL     1       2.688   6.846  20.850  0.00  0.00    +0.000 HD
ENDROOT
BRANCH   2   5
ATOM      5  C   UNL     1       3.307   5.947  18.659  0.00  0.00    +0.000 A 
ATOM      6  C   UNL     1       2.767   4.686  18.999  0.00  0.00    +0.000 A 
ATOM      7  C   UNL     1       3.227   3.504  18.369  0.00  0.00    +0.000 A 
ATOM      8  C   UNL     1       4.183   3.604  17.347  0.00  0.00    +0.000 A 
ATOM      9  C   UNL     1       4.690   4.857  17.056  0.00  0.00    +0.000 A 
ATOM     10  C   UNL     1       4.362   6.004  17.772  0.00  0.00    +0.000 A 
ATOM     11  C   UNL     1       5.078   7.175  17.195  0.00  0.00    +0.000 C 
ATOM     12  N   UNL     1       5.326   6.717  15.850  0.00  0.00    +0.000 N 
ATOM     13  C   UNL     1       5.214   5.328  15.782  0.00  0.00    +0.000 C 
ATOM     14  O   UNL     1       5.328   4.656  14.773  0.00  0.00    +0.000 OA
ATOM     15  H   UNL     1       4.906   7.215  15.071  0.00  0.00    +0.000 HD
BRANCH   7  16
ATOM     16  C   UNL     1       2.609   2.160  18.683  0.00  0.00    +0.000 C 
ATOM     17  F   UNL     1       1.459   1.932  17.992  0.00  0.00    +0.000 F 
ATOM     18  F   UNL     1       3.438   1.131  18.381  0.00  0.00    +0.000 F 
ATOM     19  F   UNL     1       2.295   2.033  19.999  0.00  0.00    +0.000 F 
ENDBRANCH   7  16
ENDBRANCH   2   5
BRANCH   1  24
ATOM     20  C   UNL     1       0.033  10.403  20.144  0.00  0.00    +0.000 A 
ATOM     21  C   UNL     1      -0.354  10.426  21.497  0.00  0.00    +0.000 A 
ATOM     22  C   UNL     1       0.166   9.520  22.423  0.00  0.00    +0.000 A 
ATOM     23  C   UNL     1       1.055   8.529  22.017  0.00  0.00    +0.000 A 
ATOM     24  C   UNL     1       1.431   8.455  20.681  0.00  0.00    +0.000 A 
ATOM     25  C   UNL     1       0.959   9.414  19.768  0.00  0.00    +0.000 A 
BRANCH  20  27
ATOM     26  C   UNL     1       0.305  12.371  18.527  0.00  0.00    +0.000 C 
ATOM     27  C   UNL     1      -0.642  11.294  19.089  0.00  0.00    +0.000 C 
BRANCH  27  28
ATOM     28  C   UNL     1      -1.313  10.520  17.920  0.00  0.00    +0.000 C 
BRANCH  28  29
ATOM     29  C   UNL     1      -2.697  11.010  17.624  0.00  0.00    +0.000 A 
ATOM     30  N   UNL     1      -3.498  11.620  18.479  0.00  0.00    +0.000 NA
ATOM     31  N   UNL     1      -4.681  11.889  17.837  0.00  0.00    +0.000 NA
ATOM     32  C   UNL     1      -4.588  11.428  16.612  0.00  0.00    +0.000 A 
ATOM     33  N   UNL     1      -3.358  10.875  16.428  0.00  0.00    +0.000 N 
ATOM     34  C   UNL     1      -2.893  10.266  15.212  0.00  0.00    +0.000 C 
ENDBRANCH  28  29
ENDBRANCH  27  28
ENDBRANCH  20  27
ENDBRANCH   1  24
TORSDOF 6
ENDMDL
MODEL 4
REMARK VINA RESULT:      -9.5      3.330      4.425
REMARK  Name = 
REMARK  8 active torsions:
REMARK  status: ('A' for Active; 'I' for Inactive)
REMARK    1  A    between atoms: C_1  and  C_2
REMARK    2  A    between atoms: C_2  and  C_3
REMARK    3  A    between atoms: C_2  and  C_10
REMARK    4  A    between atoms: C_3  and  C_4
REMARK    5  A    between atoms: N_8  and  C_9
REMARK    6  A    between atoms: C_14  and  N_15
REMARK    7  A    between atoms: C_16  and  C_18
REMARK    8  A    between atoms: C_20  and  C_21
REMARK                            x       y       z     vdW  Elec       q    Type
REMARK                         _______ _______ _______ _____ _____    ______ ____
ROOT
ATOM      1  N   UNL     1       2.103   8.017  19.198  0.00  0.00    +0.000 N 
ATOM      2  C   UNL     1       2.737   7.611  18.041  0.00  0.00    +0.000 C 
ATOM      3  O   UNL     1       2.773   8.163  16.952  0.00  0.00    +0.000 OA
ATOM      4  H   UNL     1       2.214   7.434  20.019  0.00  0.00    +0.000 HD
ENDROOT
BRANCH   2   5
ATOM      5  C   UNL     1       3.319   6.263  18.175  0.00  0.00    +0.000 A 
ATOM      6  C   UNL     1       2.507   5.143  18.461  0.00  0.00    +0.000 A 
ATOM      7  C   UNL     1       2.898   3.840  18.066  0.00  0.00    +0.000 A 
ATOM      8  C   UNL     1       4.076   3.680  17.321  0.00  0.00    +0.000 A 
ATOM      9  C   UNL     1       4.845   4.803  17.075  0.00  0.00    +0.000 A 
ATOM     10  C   UNL     1       4.552   6.062  17.590  0.00  0.00    +0.000 A 
ATOM     11  C   UNL     1       5.574   7.041  17.128  0.00  0.00    +0.000 C 
ATOM     12  N   UNL     1       6.060   6.396  15.933  0.00  0.00    +0.000 N 
ATOM     13  C   UNL     1       5.734   5.039  15.947  0.00  0.00    +0.000 C 
ATOM     14  O   UNL     1       5.974   4.244  15.058  0.00  0.00    +0.000 OA
ATOM     15  H   UNL     1       5.933   6.854  15.036  0.00  0.00    +0.000 HD
BRANCH   7  16
ATOM     16  C   UNL     1       2.004   2.647  18.313  0.00  0.00    +0.000 C 
ATOM     17  F   UNL     1       2.180   2.100  19.547  0.00  0.00    +0.000 F 
ATOM     18  F   UNL     1       0.689   2.966  18.230  0.00  0.00    +0.000 F 
ATOM     19  F   UNL     1       2.219   1.648  17.418  0.00  0.00    +0.000 F 
ENDBRANCH   7  16
ENDBRANCH   2   5
BRANCH   1  24
ATOM     20  C   UNL     1      -0.159  10.386  20.916  0.00  0.00    +0.000 A 
ATOM     21  C   UNL     1      -0.026  11.505  20.073  0.00  0.00    +0.000 A 
ATOM     22  C   UNL     1       0.739  11.456  18.907  0.00  0.00    +0.000 A 
ATOM     23  C   UNL     1       1.437  10.301  18.569  0.00  0.00    +0.000 A 
ATOM     24  C   UNL     1       1.357   9.188  19.398  0.00  0.00    +0.000 A 
ATOM     25  C   UNL     1       0.528   9.221  20.533  0.00  0.00    +0.000 A 
BRANCH  20  27
ATOM     26  C   UNL     1      -0.162   9.655  23.372  0.00  0.00    +0.000 C 
ATOM     27  C   UNL     1      -0.873  10.470  22.276  0.00  0.00    +0.000 C 
BRANCH  27  28
ATOM     28  C   UNL     1      -1.137  11.916  22.780  0.00  0.00    +0.000 C 
BRANCH  28  29
ATOM     29  C   UNL     1      -2.597  12.234  22.882  0.00  0.00    +0.000 A 
ATOM     30  N   UNL     1      -3.392  11.889  23.879  0.00  0.00    +0.000 NA
ATOM     31  N   UNL     1      -4.656  12.343  23.592  0.00  0.00    +0.000 NA
ATOM     32  C   UNL     1      -4.614  12.939  22.424  0.00  0.00    +0.000 A 
ATOM     33  N   UNL     1      -3.341  12.904  21.943  0.00  0.00    +0.000 N 
ATOM     34  C   UNL     1      -2.911  13.457  20.687  0.00  0.00    +0.000 C 
ENDBRANCH  28  29
ENDBRANCH  27  28
ENDBRANCH  20  27
ENDBRANCH   1  24
TORSDOF 6
ENDMDL
MODEL 5
REMARK VINA RESULT:      -9.4      2.339      3.160
REMARK  Name = 
REMARK  8 active torsions:
REMARK  status: ('A' for Active; 'I' for Inactive)
REMARK    1  A    between atoms: C_1  and  C_2
REMARK    2  A    between atoms: C_2  and  C_3
REMARK    3  A    between atoms: C_2  and  C_10
REMARK    4  A    between atoms: C_3  and  C_4
REMARK    5  A    between atoms: N_8  and  C_9
REMARK    6  A    between atoms: C_14  and  N_15
REMARK    7  A    between atoms: C_16  and  C_18
REMARK    8  A    between atoms: C_20  and  C_21
REMARK                            x       y       z     vdW  Elec       q    Type
REMARK                         _______ _______ _______ _____ _____    ______ ____
ROOT
ATOM      1  N   UNL     1       2.428   8.307  17.932  0.00  0.00    +0.000 N 
ATOM      2  C   UNL     1       2.679   7.141  18.628  0.00  0.00    +0.000 C 
ATOM      3  O   UNL     1       2.479   6.893  19.806  0.00  0.00    +0.000 OA
ATOM      4  H   UNL     1       2.636   8.313  16.942  0.00  0.00    +0.000 HD
ENDROOT
BRANCH   2   5
ATOM      5  C   UNL     1       3.403   6.155  17.805  0.00  0.00    +0.000 A 
ATOM      6  C   UNL     1       4.796   6.261  17.597  0.00  0.00    +0.000 A 
ATOM      7  C   UNL     1       5.579   5.115  17.313  0.00  0.00    +0.000 A 
ATOM      8  C   UNL     1       4.963   3.854  17.309  0.00  0.00    +0.000 A 
ATOM      9  C   UNL     1       3.596   3.801  17.507  0.00  0.00    +0.000 A 
ATOM     10  C   UNL     1       2.793   4.930  17.632  0.00  0.00    +0.000 A 
ATOM     11  C   UNL     1       1.378   4.517  17.838  0.00  0.00    +0.000 C 
ATOM     12  N   UNL     1       1.549   3.189  18.375  0.00  0.00    +0.000 N 
ATOM     13  C   UNL     1       2.826   2.707  18.082  0.00  0.00    +0.000 C 
ATOM     14  O   UNL     1       3.277   1.635  18.438  0.00  0.00    +0.000 OA
ATOM     15  H   UNL     1       1.227   2.990  19.318  0.00  0.00    +0.000 HD
BRANCH   7  16
ATOM     16  C   UNL     1       7.079   5.213  17.152  0.00  0.00    +0.000 C 
ATOM     17  F   UNL     1       7.489   6.449  16.755  0.00  0.00    +0.000 F 
ATOM     18  F   UNL     1       7.737   4.954  18.308  0.00  0.00    +0.000 F 
ATOM     19  F   UNL     1       7.556   4.338  16.229  0.00  0.00    +0.000 F 
ENDBRANCH   7  16
ENDBRANCH   2   5
BRANCH   1  24
ATOM     20  C   UNL     1       0.373  10.462  20.126  0.00  0.00    +0.000 A 
ATOM     21  C   UNL     1       0.780  11.731  19.673  0.00  0.00    +0.000 A 
ATOM     22  C   UNL     1       1.664  11.877  18.603  0.00  0.00    +0.000 A 
ATOM     23  C   UNL     1       2.208  10.758  17.980  0.00  0.00    +0.000 A 
ATOM     24  C   UNL     1       1.856   9.490  18.426  0.00  0.00    +0.000 A 
ATOM     25  C   UNL     1       0.910   9.349  19.457  0.00  0.00    +0.000 A 
BRANCH  20  27
ATOM     26  C   UNL     1      -0.039   9.077  22.241  0.00  0.00    +0.000 C 
ATOM     27  C   UNL     1      -0.480  10.285  21.394  0.00  0.00    +0.000 C 
BRANCH  27  28
ATOM     28  C   UNL     1      -0.577  11.551  22.290  0.00  0.00    +0.000 C 
BRANCH  28  29
ATOM     29  C   UNL     1      -1.991  11.995  22.508  0.00  0.00    +0.000 A 
ATOM     30  N   UNL     1      -2.774  11.614  23.502  0.00  0.00    +0.000 NA
ATOM     31  N   UNL     1      -3.995  12.219  23.339  0.00  0.00    +0.000 NA
ATOM     32  C   UNL     1      -3.943  12.942  22.245  0.00  0.00    +0.000 A 
ATOM     33  N   UNL     1      -2.702  12.840  21.694  0.00  0.00    +0.000 N 
ATOM     34  C   UNL     1      -2.273  13.493  20.487  0.00  0.00    +0.000 C 
ENDBRANCH  28  29
ENDBRANCH  27  28
ENDBRANCH  20  27
ENDBRANCH   1  24
TORSDOF 6
ENDMDL
MODEL 6
REMARK VINA RESULT:      -9.2      2.244      3.221
REMARK  Name = 
REMARK  8 active torsions:
REMARK  status: ('A' for Active; 'I' for Inactive)
REMARK    1  A    between atoms: C_1  and  C_2
REMARK    2  A    between atoms: C_2  and  C_3
REMARK    3  A    between atoms: C_2  and  C_10
REMARK    4  A    between atoms: C_3  and  C_4
REMARK    5  A    between atoms: N_8  and  C_9
REMARK    6  A    between atoms: C_14  and  N_15
REMARK    7  A    between atoms: C_16  and  C_18
REMARK    8  A    between atoms: C_20  and  C_21
REMARK                            x       y       z     vdW  Elec       q    Type
REMARK                         _______ _______ _______ _____ _____    ______ ____
ROOT
ATOM      1  N   UNL     1       2.453   7.501  19.440  0.00  0.00    +0.000 N 
ATOM      2  C   UNL     1       2.821   7.519  18.109  0.00  0.00    +0.000 C 
ATOM      3  O   UNL     1       2.437   8.259  17.218  0.00  0.00    +0.000 OA
ATOM      4  H   UNL     1       2.908   6.824  20.040  0.00  0.00    +0.000 HD
ENDROOT
BRANCH   2   5
ATOM      5  C   UNL     1       3.698   6.386  17.765  0.00  0.00    +0.000 A 
ATOM      6  C   UNL     1       5.104   6.500  17.851  0.00  0.00    +0.000 A 
ATOM      7  C   UNL     1       5.914   5.358  18.067  0.00  0.00    +0.000 A 
ATOM      8  C   UNL     1       5.298   4.113  18.267  0.00  0.00    +0.000 A 
ATOM      9  C   UNL     1       3.921   4.049  18.163  0.00  0.00    +0.000 A 
ATOM     10  C   UNL     1       3.126   5.131  17.797  0.00  0.00    +0.000 A 
ATOM     11  C   UNL     1       1.696   4.720  17.788  0.00  0.00    +0.000 C 
ATOM     12  N   UNL     1       1.722   3.592  18.687  0.00  0.00    +0.000 N 
ATOM     13  C   UNL     1       3.025   3.112  18.825  0.00  0.00    +0.000 C 
ATOM     14  O   UNL     1       3.369   2.195  19.548  0.00  0.00    +0.000 OA
ATOM     15  H   UNL     1       1.192   3.635  19.553  0.00  0.00    +0.000 HD
BRANCH   7  16
ATOM     16  C   UNL     1       7.413   5.482  18.222  0.00  0.00    +0.000 C 
ATOM     17  F   UNL     1       7.917   6.594  17.621  0.00  0.00    +0.000 F 
ATOM     18  F   UNL     1       7.789   5.556  19.523  0.00  0.00    +0.000 F 
ATOM     19  F   UNL     1       8.076   4.424  17.686  0.00  0.00    +0.000 F 
ENDBRANCH   7  16
ENDBRANCH   2   5
BRANCH   1  24
ATOM     20  C   UNL     1       0.168  10.377  19.873  0.00  0.00    +0.000 A 
ATOM     21  C   UNL     1      -0.390  10.060  21.126  0.00  0.00    +0.000 A 
ATOM     22  C   UNL     1       0.039   8.952  21.858  0.00  0.00    +0.000 A 
ATOM     23  C   UNL     1       1.006   8.095  21.340  0.00  0.00    +0.000 A 
ATOM     24  C   UNL     1       1.552   8.359  20.089  0.00  0.00    +0.000 A 
ATOM     25  C   UNL     1       1.168   9.516  19.389  0.00  0.00    +0.000 A 
BRANCH  20  27
ATOM     26  C   UNL     1      -1.807  11.189  18.457  0.00  0.00    +0.000 C 
ATOM     27  C   UNL     1      -0.397  11.504  18.992  0.00  0.00    +0.000 C 
BRANCH  27  28
ATOM     28  C   UNL     1      -0.385  12.910  19.653  0.00  0.00    +0.000 C 
BRANCH  28  29
ATOM     29  C   UNL     1       0.952  13.265  20.227  0.00  0.00    +0.000 A 
ATOM     30  N   UNL     1       1.218  13.436  21.510  0.00  0.00    +0.000 NA
ATOM     31  N   UNL     1       2.544  13.772  21.628  0.00  0.00    +0.000 NA
ATOM     32  C   UNL     1       3.058  13.817  20.422  0.00  0.00    +0.000 A 
ATOM     33  N   UNL     1       2.099  13.497  19.509  0.00  0.00    +0.000 N 
ATOM     34  C   UNL     1       2.291  13.443  18.086  0.00  0.00    +0.000 C 
ENDBRANCH  28  29
ENDBRANCH  27  28
ENDBRANCH  20  27
ENDBRANCH   1  24
TORSDOF 6
ENDMDL
MODEL 7
REMARK VINA RESULT:      -9.1      2.513      3.341
REMARK  Name = 
REMARK  8 active torsions:
REMARK  status: ('A' for Active; 'I' for Inactive)
REMARK    1  A    between atoms: C_1  and  C_2
REMARK    2  A    between atoms: C_2  and  C_3
REMARK    3  A    between atoms: C_2  and  C_10
REMARK    4  A    between atoms: C_3  and  C_4
REMARK    5  A    between atoms: N_8  and  C_9
REMARK    6  A    between atoms: C_14  and  N_15
REMARK    7  A    between atoms: C_16  and  C_18
REMARK    8  A    between atoms: C_20  and  C_21
REMARK                            x       y       z     vdW  Elec       q    Type
REMARK                         _______ _______ _______ _____ _____    ______ ____
ROOT
ATOM      1  N   UNL     1       1.776   8.351  18.436  0.00  0.00    +0.000 N 
ATOM      2  C   UNL     1       2.276   7.269  19.133  0.00  0.00    +0.000 C 
ATOM      3  O   UNL     1       2.457   7.149  20.335  0.00  0.00    +0.000 OA
ATOM      4  H   UNL     1       1.671   8.251  17.434  0.00  0.00    +0.000 HD
ENDROOT
BRANCH   2   5
ATOM      5  C   UNL     1       2.753   6.205  18.231  0.00  0.00    +0.000 A 
ATOM      6  C   UNL     1       3.855   6.417  17.373  0.00  0.00    +0.000 A 
ATOM      7  C   UNL     1       4.654   5.332  16.934  0.00  0.00    +0.000 A 
ATOM      8  C   UNL     1       4.380   4.044  17.420  0.00  0.00    +0.000 A 
ATOM      9  C   UNL     1       3.284   3.885  18.249  0.00  0.00    +0.000 A 
ATOM     10  C   UNL     1       2.401   4.913  18.562  0.00  0.00    +0.000 A 
ATOM     11  C   UNL     1       1.344   4.403  19.476  0.00  0.00    +0.000 C 
ATOM     12  N   UNL     1       2.009   3.267  20.067  0.00  0.00    +0.000 N 
ATOM     13  C   UNL     1       3.095   2.878  19.283  0.00  0.00    +0.000 C 
ATOM     14  O   UNL     1       3.871   1.978  19.544  0.00  0.00    +0.000 OA
ATOM     15  H   UNL     1       2.184   3.261  21.068  0.00  0.00    +0.000 HD
BRANCH   7  16
ATOM     16  C   UNL     1       5.871   5.559  16.068  0.00  0.00    +0.000 C 
ATOM     17  F   UNL     1       6.654   4.451  15.954  0.00  0.00    +0.000 F 
ATOM     18  F   UNL     1       5.541   5.915  14.802  0.00  0.00    +0.000 F 
ATOM     19  F   UNL     1       6.672   6.544  16.552  0.00  0.00    +0.000 F 
ENDBRANCH   7  16
ENDBRANCH   2   5
BRANCH   1  24
ATOM     20  C   UNL     1       0.049  10.663  20.749  0.00  0.00    +0.000 A 
ATOM     21  C   UNL     1       0.527  11.896  20.265  0.00  0.00    +0.000 A 
ATOM     22  C   UNL     1       1.347  11.971  19.138  0.00  0.00    +0.000 A 
ATOM     23  C   UNL     1       1.758  10.811  18.487  0.00  0.00    +0.000 A 
ATOM     24  C   UNL     1       1.334   9.575  18.960  0.00  0.00    +0.000 A 
ATOM     25  C   UNL     1       0.450   9.511  20.052  0.00  0.00    +0.000 A 
BRANCH  20  27
ATOM     26  C   UNL     1      -0.048   9.617  23.086  0.00  0.00    +0.000 C 
ATOM     27  C   UNL     1      -0.729  10.555  22.072  0.00  0.00    +0.000 C 
BRANCH  27  28
ATOM     28  C   UNL     1      -1.052  11.917  22.746  0.00  0.00    +0.000 C 
BRANCH  28  29
ATOM     29  C   UNL     1      -2.521  12.210  22.776  0.00  0.00    +0.000 A 
ATOM     30  N   UNL     1      -3.345  11.916  23.766  0.00  0.00    +0.000 NA
ATOM     31  N   UNL     1      -4.605  12.324  23.405  0.00  0.00    +0.000 NA
ATOM     32  C   UNL     1      -4.533  12.843  22.203  0.00  0.00    +0.000 A 
ATOM     33  N   UNL     1      -3.242  12.802  21.770  0.00  0.00    +0.000 N 
ATOM     34  C   UNL     1      -2.778  13.281  20.496  0.00  0.00    +0.000 C 
ENDBRANCH  28  29
ENDBRANCH  27  28
ENDBRANCH  20  27
ENDBRANCH   1  24
TORSDOF 6
ENDMDL
MODEL 8
REMARK VINA RESULT:      -9.1      1.355      2.222
REMARK  Name = 
REMARK  8 active torsions:
REMARK  status: ('A' for Active; 'I' for Inactive)
REMARK    1  A    between atoms: C_1  and  C_2
REMARK    2  A    between atoms: C_2  and  C_3
REMARK    3  A    between atoms: C_2  and  C_10
REMARK    4  A    between atoms: C_3  and  C_4
REMARK    5  A    between atoms: N_8  and  C_9
REMARK    6  A    between atoms: C_14  and  N_15
REMARK    7  A    between atoms: C_16  and  C_18
REMARK    8  A    between atoms: C_20  and  C_21
REMARK                            x       y       z     vdW  Elec       q    Type
REMARK                         _______ _______ _______ _____ _____    ______ ____
ROOT
ATOM      1  N   UNL     1       1.795   8.297  17.982  0.00  0.00    +0.000 N 
ATOM      2  C   UNL     1       2.379   7.287  18.719  0.00  0.00    +0.000 C 
ATOM      3  O   UNL     1       2.329   7.088  19.922  0.00  0.00    +0.000 OA
ATOM      4  H   UNL     1       1.927   8.279  16.978  0.00  0.00    +0.000 HD
ENDROOT
BRANCH   2   5
ATOM      5  C   UNL     1       3.271   6.450  17.896  0.00  0.00    +0.000 A 
ATOM      6  C   UNL     1       4.634   6.781  17.730  0.00  0.00    +0.000 A 
ATOM      7  C   UNL     1       5.596   5.781  17.443  0.00  0.00    +0.000 A 
ATOM      8  C   UNL     1       5.189   4.439  17.393  0.00  0.00    +0.000 A 
ATOM      9  C   UNL     1       3.843   4.165  17.550  0.00  0.00    +0.000 A 
ATOM     10  C   UNL     1       2.868   5.149  17.677  0.00  0.00    +0.000 A 
ATOM     11  C   UNL     1       1.532   4.512  17.834  0.00  0.00    +0.000 C 
ATOM     12  N   UNL     1       1.899   3.214  18.345  0.00  0.00    +0.000 N 
ATOM     13  C   UNL     1       3.242   2.948  18.078  0.00  0.00    +0.000 C 
ATOM     14  O   UNL     1       3.850   1.952  18.423  0.00  0.00    +0.000 OA
ATOM     15  H   UNL     1       1.589   2.941  19.274  0.00  0.00    +0.000 HD
BRANCH   7  16
ATOM     16  C   UNL     1       7.064   6.120  17.327  0.00  0.00    +0.000 C 
ATOM     17  F   UNL     1       7.332   7.422  17.621  0.00  0.00    +0.000 F 
ATOM     18  F   UNL     1       7.829   5.382  18.168  0.00  0.00    +0.000 F 
ATOM     19  F   UNL     1       7.546   5.905  16.075  0.00  0.00    +0.000 F 
ENDBRANCH   7  16
ENDBRANCH   2   5
BRANCH   1  24
ATOM     20  C   UNL     1      -1.104  10.592  18.096  0.00  0.00    +0.000 A 
ATOM     21  C   UNL     1      -0.872  11.217  19.336  0.00  0.00    +0.000 A 
ATOM     22  C   UNL     1       0.269  10.943  20.092  0.00  0.00    +0.000 A 
ATOM     23  C   UNL     1       1.193   9.998  19.656  0.00  0.00    +0.000 A 
ATOM     24  C   UNL     1       0.977   9.336  18.453  0.00  0.00    +0.000 A 
ATOM     25  C   UNL     1      -0.137   9.669  17.663  0.00  0.00    +0.000 A 
BRANCH  20  27
ATOM     26  C   UNL     1      -2.437  10.017  15.986  0.00  0.00    +0.000 C 
ATOM     27  C   UNL     1      -2.424  10.772  17.328  0.00  0.00    +0.000 C 
BRANCH  27  28
ATOM     28  C   UNL     1      -3.700  10.423  18.143  0.00  0.00    +0.000 C 
BRANCH  28  29
ATOM     29  C   UNL     1      -4.744  11.495  18.066  0.00  0.00    +0.000 A 
ATOM     30  N   UNL     1      -5.530  11.731  17.030  0.00  0.00    +0.000 NA
ATOM     31  N   UNL     1      -6.329  12.803  17.339  0.00  0.00    +0.000 NA
ATOM     32  C   UNL     1      -6.010  13.210  18.545  0.00  0.00    +0.000 A 
ATOM     33  N   UNL     1      -5.025  12.414  19.045  0.00  0.00    +0.000 N 
ATOM     34  C   UNL     1      -4.419  12.557  20.341  0.00  0.00    +0.000 C 
ENDBRANCH  28  29
ENDBRANCH  27  28
ENDBRANCH  20  27
ENDBRANCH   1  24
TORSDOF 6
ENDMDL
MODEL 9
REMARK VINA RESULT:      -9.1      1.335      1.442
REMARK  Name = 
REMARK  8 active torsions:
REMARK  status: ('A' for Active; 'I' for Inactive)
REMARK    1  A    between atoms: C_1  and  C_2
REMARK    2  A    between atoms: C_2  and  C_3
REMARK    3  A    between atoms: C_2  and  C_10
REMARK    4  A    between atoms: C_3  and  C_4
REMARK    5  A    between atoms: N_8  and  C_9
REMARK    6  A    between atoms: C_14  and  N_15
REMARK    7  A    between atoms: C_16  and  C_18
REMARK    8  A    between atoms: C_20  and  C_21
REMARK                            x       y       z     vdW  Elec       q    Type
REMARK                         _______ _______ _______ _____ _____    ______ ____
ROOT
ATOM      1  N   UNL     1       2.131   7.659  19.723  0.00  0.00    +0.000 N 
ATOM      2  C   UNL     1       2.114   6.297  19.948  0.00  0.00    +0.000 C 
ATOM      3  O   UNL     1       1.473   5.665  20.772  0.00  0.00    +0.000 OA
ATOM      4  H   UNL     1       2.711   7.999  18.966  0.00  0.00    +0.000 HD
ENDROOT
BRANCH   2   5
ATOM      5  C   UNL     1       3.121   5.592  19.135  0.00  0.00    +0.000 A 
ATOM      6  C   UNL     1       4.259   6.266  18.638  0.00  0.00    +0.000 A 
ATOM      7  C   UNL     1       5.456   5.563  18.357  0.00  0.00    +0.000 A 
ATOM      8  C   UNL     1       5.525   4.192  18.646  0.00  0.00    +0.000 A 
ATOM      9  C   UNL     1       4.383   3.573  19.121  0.00  0.00    +0.000 A 
ATOM     10  C   UNL     1       3.158   4.218  19.254  0.00  0.00    +0.000 A 
ATOM     11  C   UNL     1       2.149   3.267  19.795  0.00  0.00    +0.000 C 
ATOM     12  N   UNL     1       2.996   2.307  20.459  0.00  0.00    +0.000 N 
ATOM     13  C   UNL     1       4.304   2.401  19.980  0.00  0.00    +0.000 C 
ATOM     14  O   UNL     1       5.252   1.749  20.378  0.00  0.00    +0.000 OA
ATOM     15  H   UNL     1       2.920   2.190  21.465  0.00  0.00    +0.000 HD
BRANCH   7  16
ATOM     16  C   UNL     1       6.695   6.289  17.884  0.00  0.00    +0.000 C 
ATOM     17  F   UNL     1       7.584   6.528  18.887  0.00  0.00    +0.000 F 
ATOM     18  F   UNL     1       7.373   5.587  16.943  0.00  0.00    +0.000 F 
ATOM     19  F   UNL     1       6.406   7.498  17.335  0.00  0.00    +0.000 F 
ENDBRANCH   7  16
ENDBRANCH   2   5
BRANCH   1  24
ATOM     20  C   UNL     1      -0.131  10.558  20.123  0.00  0.00    +0.000 A 
ATOM     21  C   UNL     1      -0.303  10.543  21.520  0.00  0.00    +0.000 A 
ATOM     22  C   UNL     1       0.381   9.636  22.332  0.00  0.00    +0.000 A 
ATOM     23  C   UNL     1       1.223   8.682  21.769  0.00  0.00    +0.000 A 
ATOM     24  C   UNL     1       1.388   8.645  20.390  0.00  0.00    +0.000 A 
ATOM     25  C   UNL     1       0.752   9.607  19.585  0.00  0.00    +0.000 A 
BRANCH  20  27
ATOM     26  C   UNL     1      -0.202  12.643  18.637  0.00  0.00    +0.000 C 
ATOM     27  C   UNL     1      -0.988  11.448  19.207  0.00  0.00    +0.000 C 
BRANCH  27  28
ATOM     28  C   UNL     1      -1.706  10.690  18.056  0.00  0.00    +0.000 C 
BRANCH  28  29
ATOM     29  C   UNL     1      -3.084  11.216  17.792  0.00  0.00    +0.000 A 
ATOM     30  N   UNL     1      -3.905  11.715  18.699  0.00  0.00    +0.000 NA
ATOM     31  N   UNL     1      -5.073  12.064  18.069  0.00  0.00    +0.000 NA
ATOM     32  C   UNL     1      -4.952  11.761  16.798  0.00  0.00    +0.000 A 
ATOM     33  N   UNL     1      -3.717  11.233  16.575  0.00  0.00    +0.000 N 
ATOM     34  C   UNL     1      -3.224  10.782  15.302  0.00  0.00    +0.000 C 
ENDBRANCH  28  29
ENDBRANCH  27  28
ENDBRANCH  20  27
ENDBRANCH   1  24
TORSDOF 6
ENDMDL
