MODEL 1
REMARK VINA RESULT:     -10.6      0.000      0.000
REMARK  Name = 
REMARK  5 active torsions:
REMARK  status: ('A' for Active; 'I' for Inactive)
REMARK    1  A    between atoms: C_2  and  C_3
REMARK    2  A    between atoms: C_7  and  C_8
REMARK    3  A    between atoms: C_8  and  N_9
REMARK    4  A    between atoms: C_24  and  C_25
REMARK    5  A    between atoms: C_27  and  C_28
REMARK                            x       y       z     vdW  Elec       q    Type
REMARK                         _______ _______ _______ _____ _____    ______ ____
ROOT
ATOM      1  O   UNL     1       1.871   6.904  20.892  0.00  0.00    +0.000 OA
ATOM      2  C   UNL     1       1.984   7.521  19.832  0.00  0.00    +0.000 C 
ATOM      3  N   UNL     1       1.263   8.686  19.550  0.00  0.00    +0.000 N 
ATOM      4  C   UNL     1       1.276   9.437  18.294  0.00  0.00    +0.000 C 
ATOM      5  C   UNL     1       1.449  10.934  18.520  0.00  0.00    +0.000 C 
ATOM      6  C   UNL     1       0.455  11.499  19.536  0.00  0.00    +0.000 C 
ATOM      7  C   UNL     1       0.447  10.646  20.813  0.00  0.00    +0.000 C 
ATOM      8  C   UNL     1       0.284   9.150  20.534  0.00  0.00    +0.000 C 
ENDROOT
BRANCH   2   9
ATOM      9  C   UNL     1       3.020   7.038  18.885  0.00  0.00    +0.000 A 
ATOM     10  C   UNL     1       3.263   7.645  17.649  0.00  0.00    +0.000 A 
ATOM     11  C   UNL     1       4.359   7.244  16.887  0.00  0.00    +0.000 A 
ATOM     12  C   UNL     1       5.176   6.200  17.333  0.00  0.00    +0.000 A 
ATOM     13  C   UNL     1       4.891   5.513  18.528  0.00  0.00    +0.000 A 
ATOM     14  C   UNL     1       3.787   5.931  19.283  0.00  0.00    +0.000 A 
BRANCH  13  15
ATOM     15  C   UNL     1       5.687   4.271  18.951  0.00  0.00    +0.000 C 
BRANCH  15  16
ATOM     16  N   UNL     1       4.855   3.084  18.856  0.00  0.00    +0.000 N 
ATOM     17  C   UNL     1       3.819   3.131  17.958  0.00  0.00    +0.000 C 
ATOM     18  O   UNL     1       3.825   3.498  16.797  0.00  0.00    +0.000 OA
ATOM     19  C   UNL     1       2.612   2.872  18.732  0.00  0.00    +0.000 A 
ATOM     20  C   UNL     1       1.351   3.375  18.478  0.00  0.00    +0.000 A 
ATOM     21  C   UNL     1       0.468   3.445  19.558  0.00  0.00    +0.000 A 
ATOM     22  C   UNL     1       0.852   2.982  20.836  0.00  0.00    +0.000 A 
ATOM     23  C   UNL     1       2.133   2.473  21.065  0.00  0.00    +0.000 A 
ATOM     24  C   UNL     1       2.999   2.456  19.995  0.00  0.00    +0.000 A 
ATOM     25  C   UNL     1       4.462   2.488  20.032  0.00  0.00    +0.000 C 
ATOM     26  O   UNL     1       5.139   2.182  20.994  0.00  0.00    +0.000 OA
ENDBRANCH  15  16
ENDBRANCH  13  15
ENDBRANCH   2   9
BRANCH   6  27
ATOM     27  C   UNL     1      -0.906  11.618  18.930  0.00  0.00    +0.000 A 
ATOM     28  N   UNL     1      -2.057  11.692  19.559  0.00  0.00    +0.000 NA
ATOM     29  C   UNL     1      -2.991  11.720  18.547  0.00  0.00    +0.000 A 
ATOM     30  N   UNL     1      -2.458  11.668  17.322  0.00  0.00    +0.000 NA
ATOM     31  N   UNL     1      -1.144  11.615  17.587  0.00  0.00    +0.000 N 
ATOM     32  H   UNL     1      -0.485  11.562  16.818  0.00  0.00    +0.000 HD
BRANCH  29  33
ATOM     33  C   UNL     1      -4.423  11.786  18.831  0.00  0.00    +0.000 A 
ATOM     34  C   UNL     1      -4.882  12.409  20.003  0.00  0.00    +0.000 A 
ATOM     35  C   UNL     1      -6.249  12.499  20.271  0.00  0.00    +0.000 A 
ATOM     36  C   UNL     1      -7.169  11.968  19.367  0.00  0.00    +0.000 A 
ATOM     37  C   UNL     1      -6.725  11.329  18.211  0.00  0.00    +0.000 A 
ATOM     38  C   UNL     1      -5.356  11.239  17.943  0.00  0.00    +0.000 A 
ENDBRANCH  29  33
ENDBRANCH   6  27
TORSDOF 5
ENDMDL
MODEL 2
REMARK VINA RESULT:      -9.7      1.099      1.548
REMARK  Name = 
REMARK  5 active torsions:
REMARK  status: ('A' for Active; 'I' for Inactive)
REMARK    1  A    between atoms: C_2  and  C_3
REMARK    2  A    between atoms: C_7  and  C_8
REMARK    3  A    between atoms: C_8  and  N_9
REMARK    4  A    between atoms: C_24  and  C_25
REMARK    5  A    between atoms: C_27  and  C_28
REMARK                            x       y       z     vdW  Elec       q    Type
REMARK                         _______ _______ _______ _____ _____    ______ ____
ROOT
ATOM      1  O   UNL     1       1.649   6.444  21.287  0.00  0.00    +0.000 OA
ATOM      2  C   UNL     1       1.677   7.321  20.424  0.00  0.00    +0.000 C 
ATOM      3  N   UNL     1       1.030   8.552  20.569  0.00  0.00    +0.000 N 
ATOM      4  C   UNL     1       0.947   9.617  19.569  0.00  0.00    +0.000 C 
ATOM      5  C   UNL     1       1.276  10.984  20.155  0.00  0.00    +0.000 C 
ATOM      6  C   UNL     1       0.473  11.297  21.419  0.00  0.00    +0.000 C 
ATOM      7  C   UNL     1       0.555  10.128  22.412  0.00  0.00    +0.000 C 
ATOM      8  C   UNL     1       0.229   8.775  21.774  0.00  0.00    +0.000 C 
ENDROOT
BRANCH   2   9
ATOM      9  C   UNL     1       2.538   7.067  19.241  0.00  0.00    +0.000 A 
ATOM     10  C   UNL     1       2.455   7.817  18.064  0.00  0.00    +0.000 A 
ATOM     11  C   UNL     1       3.403   7.632  17.060  0.00  0.00    +0.000 A 
ATOM     12  C   UNL     1       4.398   6.661  17.207  0.00  0.00    +0.000 A 
ATOM     13  C   UNL     1       4.441   5.831  18.343  0.00  0.00    +0.000 A 
ATOM     14  C   UNL     1       3.480   6.031  19.345  0.00  0.00    +0.000 A 
BRANCH  13  15
ATOM     15  C   UNL     1       5.431   4.663  18.449  0.00  0.00    +0.000 C 
BRANCH  15  16
ATOM     16  N   UNL     1       4.717   3.398  18.470  0.00  0.00    +0.000 N 
ATOM     17  C   UNL     1       3.604   3.307  17.672  0.00  0.00    +0.000 C 
ATOM     18  O   UNL     1       3.470   3.625  16.505  0.00  0.00    +0.000 OA
ATOM     19  C   UNL     1       2.504   2.964  18.564  0.00  0.00    +0.000 A 
ATOM     20  C   UNL     1       1.181   3.333  18.413  0.00  0.00    +0.000 A 
ATOM     21  C   UNL     1       0.397   3.361  19.568  0.00  0.00    +0.000 A 
ATOM     22  C   UNL     1       0.938   2.991  20.818  0.00  0.00    +0.000 A 
ATOM     23  C   UNL     1       2.279   2.618  20.943  0.00  0.00    +0.000 A 
ATOM     24  C   UNL     1       3.042   2.641  19.797  0.00  0.00    +0.000 A 
ATOM     25  C   UNL     1       4.492   2.816  19.696  0.00  0.00    +0.000 C 
ATOM     26  O   UNL     1       5.281   2.616  20.600  0.00  0.00    +0.000 OA
ENDBRANCH  15  16
ENDBRANCH  13  15
ENDBRANCH   2   9
BRANCH   6  27
ATOM     27  C   UNL     1      -0.940  11.643  21.073  0.00  0.00    +0.000 A 
ATOM     28  N   UNL     1      -1.543  11.477  19.918  0.00  0.00    +0.000 NA
ATOM     29  C   UNL     1      -2.795  12.014  20.113  0.00  0.00    +0.000 A 
ATOM     30  N   UNL     1      -2.985  12.503  21.343  0.00  0.00    +0.000 NA
ATOM     31  N   UNL     1      -1.807  12.249  21.934  0.00  0.00    +0.000 N 
ATOM     32  H   UNL     1      -1.666  12.527  22.898  0.00  0.00    +0.000 HD
BRANCH  29  33
ATOM     33  C   UNL     1      -3.790  12.041  19.043  0.00  0.00    +0.000 A 
ATOM     34  C   UNL     1      -5.049  12.625  19.264  0.00  0.00    +0.000 A 
ATOM     35  C   UNL     1      -5.997  12.678  18.241  0.00  0.00    +0.000 A 
ATOM     36  C   UNL     1      -5.694  12.150  16.987  0.00  0.00    +0.000 A 
ATOM     37  C   UNL     1      -4.456  11.549  16.761  0.00  0.00    +0.000 A 
ATOM     38  C   UNL     1      -3.507  11.496  17.785  0.00  0.00    +0.000 A 
ENDBRANCH  29  33
ENDBRANCH   6  27
TORSDOF 5
ENDMDL
MODEL 3
REMARK VINA RESULT:      -9.7      2.107      4.030
REMARK  Name = 
REMARK  5 active torsions:
REMARK  status: ('A' for Active; 'I' for Inactive)
REMARK    1  A    between atoms: C_2  and  C_3
REMARK    2  A    between atoms: C_7  and  C_8
REMARK    3  A    between atoms: C_8  and  N_9
REMARK    4  A    between atoms: C_24  and  C_25
REMARK    5  A    between atoms: C_27  and  C_28
REMARK                            x       y       z     vdW  Elec       q    Type
REMARK                         _______ _______ _______ _____ _____    ______ ____
ROOT
ATOM      1  O   UNL     1       1.700   9.783  22.120  0.00  0.00    +0.000 OA
ATOM      2  C   UNL     1       1.102   9.330  21.144  0.00  0.00    +0.000 C 
ATOM      3  N   UNL     1       0.135  10.057  20.440  0.00  0.00    +0.000 N 
ATOM      4  C   UNL     1      -0.676   9.573  19.322  0.00  0.00    +0.000 C 
ATOM      5  C   UNL     1      -0.699  10.559  18.161  0.00  0.00    +0.000 C 
ATOM      6  C   UNL     1      -1.074  11.978  18.593  0.00  0.00    +0.000 C 
ATOM      7  C   UNL     1      -0.227  12.414  19.798  0.00  0.00    +0.000 C 
ATOM      8  C   UNL     1      -0.224  11.387  20.932  0.00  0.00    +0.000 C 
ENDROOT
BRANCH   2   9
ATOM      9  C   UNL     1       1.533   7.996  20.656  0.00  0.00    +0.000 A 
ATOM     10  C   UNL     1       1.178   6.802  21.291  0.00  0.00    +0.000 A 
ATOM     11  C   UNL     1       1.477   5.583  20.686  0.00  0.00    +0.000 A 
ATOM     12  C   UNL     1       2.179   5.556  19.477  0.00  0.00    +0.000 A 
ATOM     13  C   UNL     1       2.628   6.744  18.870  0.00  0.00    +0.000 A 
ATOM     14  C   UNL     1       2.317   7.961  19.491  0.00  0.00    +0.000 A 
BRANCH  13  15
ATOM     15  C   UNL     1       3.528   6.722  17.627  0.00  0.00    +0.000 C 
BRANCH  15  16
ATOM     16  N   UNL     1       4.427   5.582  17.677  0.00  0.00    +0.000 N 
ATOM     17  C   UNL     1       5.769   5.853  17.583  0.00  0.00    +0.000 C 
ATOM     18  O   UNL     1       6.426   6.688  18.178  0.00  0.00    +0.000 OA
ATOM     19  C   UNL     1       6.247   5.095  16.435  0.00  0.00    +0.000 A 
ATOM     20  C   UNL     1       7.277   5.453  15.587  0.00  0.00    +0.000 A 
ATOM     21  C   UNL     1       7.261   4.902  14.304  0.00  0.00    +0.000 A 
ATOM     22  C   UNL     1       6.250   3.994  13.920  0.00  0.00    +0.000 A 
ATOM     23  C   UNL     1       5.221   3.644  14.799  0.00  0.00    +0.000 A 
ATOM     24  C   UNL     1       5.236   4.235  16.043  0.00  0.00    +0.000 A 
ATOM     25  C   UNL     1       4.095   4.477  16.927  0.00  0.00    +0.000 C 
ATOM     26  O   UNL     1       3.031   3.891  16.865  0.00  0.00    +0.000 OA
ENDBRANCH  15  16
ENDBRANCH  13  15
ENDBRANCH   2   9
BRANCH   6  27
ATOM     27  C   UNL     1      -2.539  12.073  18.871  0.00  0.00    +0.000 A 
ATOM     28  N   UNL     1      -3.120  12.315  20.024  0.00  0.00    +0.000 NA
ATOM     29  C   UNL     1      -4.466  12.230  19.746  0.00  0.00    +0.000 A 
ATOM     30  N   UNL     1      -4.734  11.947  18.467  0.00  0.00    +0.000 NA
ATOM     31  N   UNL     1      -3.507  11.863  17.932  0.00  0.00    +0.000 N 
ATOM     32  H   UNL     1      -3.409  11.647  16.946  0.00  0.00    +0.000 HD
BRANCH  29  33
ATOM     33  C   UNL     1      -5.474  12.422  20.786  0.00  0.00    +0.000 A 
ATOM     34  C   UNL     1      -6.809  12.053  20.552  0.00  0.00    +0.000 A 
ATOM     35  C   UNL     1      -7.775  12.210  21.548  0.00  0.00    +0.000 A 
ATOM     36  C   UNL     1      -7.414  12.737  22.787  0.00  0.00    +0.000 A 
ATOM     37  C   UNL     1      -6.096  13.127  23.025  0.00  0.00    +0.000 A 
ATOM     38  C   UNL     1      -5.130  12.970  22.028  0.00  0.00    +0.000 A 
ENDBRANCH  29  33
ENDBRANCH   6  27
TORSDOF 5
ENDMDL
MODEL 4
REMARK VINA RESULT:      -9.7      5.562      9.336
REMARK  Name = 
REMARK  5 active torsions:
REMARK  status: ('A' for Active; 'I' for Inactive)
REMARK    1  A    between atoms: C_2  and  C_3
REMARK    2  A    between atoms: C_7  and  C_8
REMARK    3  A    between atoms: C_8  and  N_9
REMARK    4  A    between atoms: C_24  and  C_25
REMARK    5  A    between atoms: C_27  and  C_28
REMARK                            x       y       z     vdW  Elec       q    Type
REMARK                         _______ _______ _______ _____ _____    ______ ____
ROOT
ATOM      1  O   UNL     1       0.496  15.152  18.741  0.00  0.00    +0.000 OA
ATOM      2  C   UNL     1       1.246  14.451  19.422  0.00  0.00    +0.000 C 
ATOM      3  N   UNL     1       2.607  14.728  19.583  0.00  0.00    +0.000 N 
ATOM      4  C   UNL     1       3.583  13.911  20.306  0.00  0.00    +0.000 C 
ATOM      5  C   UNL     1       4.445  14.744  21.246  0.00  0.00    +0.000 C 
ATOM      6  C   UNL     1       5.081  15.952  20.556  0.00  0.00    +0.000 C 
ATOM      7  C   UNL     1       4.022  16.744  19.774  0.00  0.00    +0.000 C 
ATOM      8  C   UNL     1       3.174  15.863  18.854  0.00  0.00    +0.000 C 
ENDROOT
BRANCH   2   9
ATOM      9  C   UNL     1       0.617  13.338  20.177  0.00  0.00    +0.000 A 
ATOM     10  C   UNL     1       0.005  13.514  21.422  0.00  0.00    +0.000 A 
ATOM     11  C   UNL     1      -0.707  12.463  21.995  0.00  0.00    +0.000 A 
ATOM     12  C   UNL     1      -0.762  11.222  21.353  0.00  0.00    +0.000 A 
ATOM     13  C   UNL     1      -0.073  10.998  20.146  0.00  0.00    +0.000 A 
ATOM     14  C   UNL     1       0.638  12.067  19.583  0.00  0.00    +0.000 A 
BRANCH  13  15
ATOM     15  C   UNL     1       0.003   9.603  19.511  0.00  0.00    +0.000 C 
BRANCH  15  16
ATOM     16  N   UNL     1       1.338   9.052  19.664  0.00  0.00    +0.000 N 
ATOM     17  C   UNL     1       1.954   8.606  18.521  0.00  0.00    +0.000 C 
ATOM     18  O   UNL     1       2.057   9.159  17.441  0.00  0.00    +0.000 OA
ATOM     19  C   UNL     1       2.274   7.206  18.763  0.00  0.00    +0.000 A 
ATOM     20  C   UNL     1       2.323   6.200  17.817  0.00  0.00    +0.000 A 
ATOM     21  C   UNL     1       2.142   4.893  18.274  0.00  0.00    +0.000 A 
ATOM     22  C   UNL     1       1.955   4.627  19.648  0.00  0.00    +0.000 A 
ATOM     23  C   UNL     1       1.914   5.663  20.586  0.00  0.00    +0.000 A 
ATOM     24  C   UNL     1       2.051   6.946  20.104  0.00  0.00    +0.000 A 
ATOM     25  C   UNL     1       1.550   8.181  20.708  0.00  0.00    +0.000 C 
ATOM     26  O   UNL     1       1.251   8.311  21.879  0.00  0.00    +0.000 OA
ENDBRANCH  15  16
ENDBRANCH  13  15
ENDBRANCH   2   9
BRANCH   6  27
ATOM     27  C   UNL     1       6.219  15.523  19.687  0.00  0.00    +0.000 A 
ATOM     28  N   UNL     1       7.252  14.788  20.028  0.00  0.00    +0.000 NA
ATOM     29  C   UNL     1       8.025  14.745  18.890  0.00  0.00    +0.000 A 
ATOM     30  N   UNL     1       7.505  15.423  17.862  0.00  0.00    +0.000 NA
ATOM     31  N   UNL     1       6.363  15.896  18.383  0.00  0.00    +0.000 N 
ATOM     32  H   UNL     1       5.754  16.468  17.807  0.00  0.00    +0.000 HD
BRANCH  29  33
ATOM     33  C   UNL     1       9.296  14.025  18.856  0.00  0.00    +0.000 A 
ATOM     34  C   UNL     1       9.634  13.242  17.739  0.00  0.00    +0.000 A 
ATOM     35  C   UNL     1      10.857  12.570  17.686  0.00  0.00    +0.000 A 
ATOM     36  C   UNL     1      11.753  12.677  18.749  0.00  0.00    +0.000 A 
ATOM     37  C   UNL     1      11.420  13.434  19.872  0.00  0.00    +0.000 A 
ATOM     38  C   UNL     1      10.196  14.106  19.925  0.00  0.00    +0.000 A 
ENDBRANCH  29  33
ENDBRANCH   6  27
TORSDOF 5
ENDMDL
MODEL 5
REMARK VINA RESULT:      -9.5      1.000      1.406
REMARK  Name = 
REMARK  5 active torsions:
REMARK  status: ('A' for Active; 'I' for Inactive)
REMARK    1  A    between atoms: C_2  and  C_3
REMARK    2  A    between atoms: C_7  and  C_8
REMARK    3  A    between atoms: C_8  and  N_9
REMARK    4  A    between atoms: C_24  and  C_25
REMARK    5  A    between atoms: C_27  and  C_28
REMARK                            x       y       z     vdW  Elec       q    Type
REMARK                         _______ _______ _______ _____ _____    ______ ____
ROOT
ATOM      1  O   UNL     1       2.104   6.853  20.449  0.00  0.00    +0.000 OA
ATOM      2  C   UNL     1       2.156   7.492  19.398  0.00  0.00    +0.000 C 
ATOM      3  N   UNL     1       1.388   8.639  19.168  0.00  0.00    +0.000 N 
ATOM      4  C   UNL     1       1.328   9.414  17.928  0.00  0.00    +0.000 C 
ATOM      5  C   UNL     1       1.464  10.910  18.177  0.00  0.00    +0.000 C 
ATOM      6  C   UNL     1       0.494  11.425  19.243  0.00  0.00    +0.000 C 
ATOM      7  C   UNL     1       0.564  10.548  20.502  0.00  0.00    +0.000 C 
ATOM      8  C   UNL     1       0.437   9.053  20.199  0.00  0.00    +0.000 C 
ENDROOT
BRANCH   2   9
ATOM      9  C   UNL     1       3.168   7.060  18.401  0.00  0.00    +0.000 A 
ATOM     10  C   UNL     1       4.194   7.895  17.949  0.00  0.00    +0.000 A 
ATOM     11  C   UNL     1       5.203   7.372  17.142  0.00  0.00    +0.000 A 
ATOM     12  C   UNL     1       5.155   6.034  16.741  0.00  0.00    +0.000 A 
ATOM     13  C   UNL     1       4.079   5.203  17.108  0.00  0.00    +0.000 A 
ATOM     14  C   UNL     1       3.074   5.744  17.921  0.00  0.00    +0.000 A 
BRANCH  13  15
ATOM     15  C   UNL     1       3.937   3.780  16.551  0.00  0.00    +0.000 C 
BRANCH  15  16
ATOM     16  N   UNL     1       3.910   2.815  17.637  0.00  0.00    +0.000 N 
ATOM     17  C   UNL     1       2.717   2.176  17.862  0.00  0.00    +0.000 C 
ATOM     18  O   UNL     1       1.970   1.641  17.063  0.00  0.00    +0.000 OA
ATOM     19  C   UNL     1       2.370   2.462  19.248  0.00  0.00    +0.000 A 
ATOM     20  C   UNL     1       1.095   2.587  19.765  0.00  0.00    +0.000 A 
ATOM     21  C   UNL     1       0.957   3.336  20.935  0.00  0.00    +0.000 A 
ATOM     22  C   UNL     1       2.085   3.904  21.567  0.00  0.00    +0.000 A 
ATOM     23  C   UNL     1       3.366   3.759  21.025  0.00  0.00    +0.000 A 
ATOM     24  C   UNL     1       3.469   3.053  19.847  0.00  0.00    +0.000 A 
ATOM     25  C   UNL     1       4.507   3.176  18.823  0.00  0.00    +0.000 C 
ATOM     26  O   UNL     1       5.610   3.653  19.006  0.00  0.00    +0.000 OA
ENDBRANCH  15  16
ENDBRANCH  13  15
ENDBRANCH   2   9
BRANCH   6  27
ATOM     27  C   UNL     1      -0.893  11.512  18.693  0.00  0.00    +0.000 A 
ATOM     28  N   UNL     1      -2.008  11.690  19.364  0.00  0.00    +0.000 NA
ATOM     29  C   UNL     1      -2.992  11.628  18.403  0.00  0.00    +0.000 A 
ATOM     30  N   UNL     1      -2.524  11.422  17.167  0.00  0.00    +0.000 NA
ATOM     31  N   UNL     1      -1.199  11.363  17.372  0.00  0.00    +0.000 N 
ATOM     32  H   UNL     1      -0.582  11.204  16.584  0.00  0.00    +0.000 HD
BRANCH  29  33
ATOM     33  C   UNL     1      -4.405  11.766  18.746  0.00  0.00    +0.000 A 
ATOM     34  C   UNL     1      -5.395  11.312  17.858  0.00  0.00    +0.000 A 
ATOM     35  C   UNL     1      -6.747  11.416  18.187  0.00  0.00    +0.000 A 
ATOM     36  C   UNL     1      -7.123  11.974  19.408  0.00  0.00    +0.000 A 
ATOM     37  C   UNL     1      -6.151  12.448  20.289  0.00  0.00    +0.000 A 
ATOM     38  C   UNL     1      -4.797  12.344  19.959  0.00  0.00    +0.000 A 
ENDBRANCH  29  33
ENDBRANCH   6  27
TORSDOF 5
ENDMDL
MODEL 6
REMARK VINA RESULT:      -9.5      1.781      3.406
REMARK  Name = 
REMARK  5 active torsions:
REMARK  status: ('A' for Active; 'I' for Inactive)
REMARK    1  A    between atoms: C_2  and  C_3
REMARK    2  A    between atoms: C_7  and  C_8
REMARK    3  A    between atoms: C_8  and  N_9
REMARK    4  A    between atoms: C_24  and  C_25
REMARK    5  A    between atoms: C_27  and  C_28
REMARK                            x       y       z     vdW  Elec       q    Type
REMARK                         _______ _______ _______ _____ _____    ______ ____
ROOT
ATOM      1  O   UNL     1       1.640   8.056  21.507  0.00  0.00    +0.000 OA
ATOM      2  C   UNL     1       1.341   8.520  20.406  0.00  0.00    +0.000 C 
ATOM      3  N   UNL     1       0.490   9.619  20.250  0.00  0.00    +0.000 N 
ATOM      4  C   UNL     1       0.022  10.187  18.985  0.00  0.00    +0.000 C 
ATOM      5  C   UNL     1       0.160  11.703  18.948  0.00  0.00    +0.000 C 
ATOM      6  C   UNL     1      -0.461  12.386  20.168  0.00  0.00    +0.000 C 
ATOM      7  C   UNL     1       0.027  11.721  21.464  0.00  0.00    +0.000 C 
ATOM      8  C   UNL     1      -0.120  10.197  21.448  0.00  0.00    +0.000 C 
ENDROOT
BRANCH   2   9
ATOM      9  C   UNL     1       2.020   7.929  19.225  0.00  0.00    +0.000 A 
ATOM     10  C   UNL     1       2.692   8.699  18.271  0.00  0.00    +0.000 A 
ATOM     11  C   UNL     1       3.445   8.068  17.282  0.00  0.00    +0.000 A 
ATOM     12  C   UNL     1       3.480   6.672  17.213  0.00  0.00    +0.000 A 
ATOM     13  C   UNL     1       2.733   5.881  18.107  0.00  0.00    +0.000 A 
ATOM     14  C   UNL     1       1.983   6.532  19.096  0.00  0.00    +0.000 A 
BRANCH  13  15
ATOM     15  C   UNL     1       2.641   4.358  17.948  0.00  0.00    +0.000 C 
BRANCH  15  16
ATOM     16  N   UNL     1       3.970   3.771  17.946  0.00  0.00    +0.000 N 
ATOM     17  C   UNL     1       4.724   3.953  19.077  0.00  0.00    +0.000 C 
ATOM     18  O   UNL     1       4.408   3.798  20.243  0.00  0.00    +0.000 OA
ATOM     19  C   UNL     1       5.947   4.613  18.637  0.00  0.00    +0.000 A 
ATOM     20  C   UNL     1       6.702   5.510  19.366  0.00  0.00    +0.000 A 
ATOM     21  C   UNL     1       7.505   6.395  18.643  0.00  0.00    +0.000 A 
ATOM     22  C   UNL     1       7.558   6.336  17.233  0.00  0.00    +0.000 A 
ATOM     23  C   UNL     1       6.786   5.414  16.519  0.00  0.00    +0.000 A 
ATOM     24  C   UNL     1       5.969   4.583  17.253  0.00  0.00    +0.000 A 
ATOM     25  C   UNL     1       4.734   3.933  16.813  0.00  0.00    +0.000 C 
ATOM     26  O   UNL     1       4.427   3.738  15.653  0.00  0.00    +0.000 OA
ENDBRANCH  15  16
ENDBRANCH  13  15
ENDBRANCH   2   9
BRANCH   6  27
ATOM     27  C   UNL     1      -1.952  12.392  20.066  0.00  0.00    +0.000 A 
ATOM     28  N   UNL     1      -2.820  12.536  21.041  0.00  0.00    +0.000 NA
ATOM     29  C   UNL     1      -4.043  12.400  20.425  0.00  0.00    +0.000 A 
ATOM     30  N   UNL     1      -3.961  12.180  19.109  0.00  0.00    +0.000 NA
ATOM     31  N   UNL     1      -2.635  12.189  18.902  0.00  0.00    +0.000 N 
ATOM     32  H   UNL     1      -2.278  12.037  17.966  0.00  0.00    +0.000 HD
BRANCH  29  33
ATOM     33  C   UNL     1      -5.292  12.481  21.180  0.00  0.00    +0.000 A 
ATOM     34  C   UNL     1      -5.286  12.942  22.507  0.00  0.00    +0.000 A 
ATOM     35  C   UNL     1      -6.477  13.047  23.228  0.00  0.00    +0.000 A 
ATOM     36  C   UNL     1      -7.684  12.693  22.628  0.00  0.00    +0.000 A 
ATOM     37  C   UNL     1      -7.700  12.214  21.319  0.00  0.00    +0.000 A 
ATOM     38  C   UNL     1      -6.509  12.109  20.597  0.00  0.00    +0.000 A 
ENDBRANCH  29  33
ENDBRANCH   6  27
TORSDOF 5
ENDMDL
MODEL 7
REMARK VINA RESULT:      -9.5      4.204      7.289
REMARK  Name = 
REMARK  5 active torsions:
REMARK  status: ('A' for Active; 'I' for Inactive)
REMARK    1  A    between atoms: C_2  and  C_3
REMARK    2  A    between atoms: C_7  and  C_8
REMARK    3  A    between atoms: C_8  and  N_9
REMARK    4  A    between atoms: C_24  and  C_25
REMARK    5  A    between atoms: C_27  and  C_28
REMARK                            x       y       z     vdW  Elec       q    Type
REMARK                         _______ _______ _______ _____ _____    ______ ____
ROOT
ATOM      1  O   UNL     1      -1.008  10.925  18.306  0.00  0.00    +0.000 OA
ATOM      2  C   UNL     1      -0.143  11.163  19.150  0.00  0.00    +0.000 C 
ATOM      3  N   UNL     1       0.458  12.418  19.290  0.00  0.00    +0.000 N 
ATOM      4  C   UNL     1       1.542  12.768  20.209  0.00  0.00    +0.000 C 
ATOM      5  C   UNL     1       1.258  14.059  20.967  0.00  0.00    +0.000 C 
ATOM      6  C   UNL     1       0.868  15.216  20.046  0.00  0.00    +0.000 C 
ATOM      7  C   UNL     1      -0.237  14.779  19.073  0.00  0.00    +0.000 C 
ATOM      8  C   UNL     1       0.087  13.472  18.345  0.00  0.00    +0.000 C 
ENDROOT
BRANCH   2   9
ATOM      9  C   UNL     1       0.166  10.077  20.114  0.00  0.00    +0.000 A 
ATOM     10  C   UNL     1      -0.489   9.941  21.342  0.00  0.00    +0.000 A 
ATOM     11  C   UNL     1      -0.265   8.807  22.121  0.00  0.00    +0.000 A 
ATOM     12  C   UNL     1       0.652   7.839  21.700  0.00  0.00    +0.000 A 
ATOM     13  C   UNL     1       1.391   8.005  20.514  0.00  0.00    +0.000 A 
ATOM     14  C   UNL     1       1.153   9.151  19.742  0.00  0.00    +0.000 A 
BRANCH  13  15
ATOM     15  C   UNL     1       2.508   7.029  20.119  0.00  0.00    +0.000 C 
BRANCH  15  16
ATOM     16  N   UNL     1       2.375   6.650  18.723  0.00  0.00    +0.000 N 
ATOM     17  C   UNL     1       2.275   5.307  18.458  0.00  0.00    +0.000 C 
ATOM     18  O   UNL     1       1.567   4.471  18.990  0.00  0.00    +0.000 OA
ATOM     19  C   UNL     1       3.372   4.999  17.551  0.00  0.00    +0.000 A 
ATOM     20  C   UNL     1       4.059   3.803  17.470  0.00  0.00    +0.000 A 
ATOM     21  C   UNL     1       5.350   3.850  16.941  0.00  0.00    +0.000 A 
ATOM     22  C   UNL     1       5.900   5.066  16.481  0.00  0.00    +0.000 A 
ATOM     23  C   UNL     1       5.182   6.263  16.570  0.00  0.00    +0.000 A 
ATOM     24  C   UNL     1       3.928   6.197  17.136  0.00  0.00    +0.000 A 
ATOM     25  C   UNL     1       3.201   7.271  17.815  0.00  0.00    +0.000 C 
ATOM     26  O   UNL     1       3.428   8.458  17.679  0.00  0.00    +0.000 OA
ENDBRANCH  15  16
ENDBRANCH  13  15
ENDBRANCH   2   9
BRANCH   6  27
ATOM     27  C   UNL     1       2.069  15.748  19.332  0.00  0.00    +0.000 A 
ATOM     28  N   UNL     1       3.302  15.301  19.400  0.00  0.00    +0.000 NA
ATOM     29  C   UNL     1       4.019  16.174  18.615  0.00  0.00    +0.000 A 
ATOM     30  N   UNL     1       3.275  17.139  18.065  0.00  0.00    +0.000 NA
ATOM     31  N   UNL     1       2.048  16.845  18.522  0.00  0.00    +0.000 N 
ATOM     32  H   UNL     1       1.266  17.435  18.259  0.00  0.00    +0.000 HD
BRANCH  29  33
ATOM     33  C   UNL     1       5.463  16.032  18.436  0.00  0.00    +0.000 A 
ATOM     34  C   UNL     1       6.326  17.080  18.799  0.00  0.00    +0.000 A 
ATOM     35  C   UNL     1       7.707  16.945  18.656  0.00  0.00    +0.000 A 
ATOM     36  C   UNL     1       8.239  15.759  18.150  0.00  0.00    +0.000 A 
ATOM     37  C   UNL     1       7.392  14.720  17.767  0.00  0.00    +0.000 A 
ATOM     38  C   UNL     1       6.009  14.856  17.910  0.00  0.00    +0.000 A 
ENDBRANCH  29  33
ENDBRANCH   6  27
TORSDOF 5
ENDMDL
MODEL 8
REMARK VINA RESULT:      -9.5      1.764      3.450
REMARK  Name = 
REMARK  5 active torsions:
REMARK  status: ('A' for Active; 'I' for Inactive)
REMARK    1  A    between atoms: C_2  and  C_3
REMARK    2  A    between atoms: C_7  and  C_8
REMARK    3  A    between atoms: C_8  and  N_9
REMARK    4  A    between atoms: C_24  and  C_25
REMARK    5  A    between atoms: C_27  and  C_28
REMARK                            x       y       z     vdW  Elec       q    Type
REMARK                         _______ _______ _______ _____ _____    ______ ____
ROOT
ATOM      1  O   UNL     1       1.742   8.700  22.002  0.00  0.00    +0.000 OA
ATOM      2  C   UNL     1       1.265   8.868  20.879  0.00  0.00    +0.000 C 
ATOM      3  N   UNL     1       0.373   9.903  20.579  0.00  0.00    +0.000 N 
ATOM      4  C   UNL     1      -0.300  10.131  19.300  0.00  0.00    +0.000 C 
ATOM      5  C   UNL     1      -0.206  11.584  18.851  0.00  0.00    +0.000 C 
ATOM      6  C   UNL     1      -0.647  12.570  19.935  0.00  0.00    +0.000 C 
ATOM      7  C   UNL     1       0.052  12.255  21.265  0.00  0.00    +0.000 C 
ATOM      8  C   UNL     1      -0.058  10.782  21.667  0.00  0.00    +0.000 C 
ENDROOT
BRANCH   2   9
ATOM      9  C   UNL     1       1.767   7.981  19.800  0.00  0.00    +0.000 A 
ATOM     10  C   UNL     1       2.208   8.462  18.563  0.00  0.00    +0.000 A 
ATOM     11  C   UNL     1       2.818   7.591  17.663  0.00  0.00    +0.000 A 
ATOM     12  C   UNL     1       2.938   6.233  17.974  0.00  0.00    +0.000 A 
ATOM     13  C   UNL     1       2.415   5.713  19.173  0.00  0.00    +0.000 A 
ATOM     14  C   UNL     1       1.804   6.603  20.068  0.00  0.00    +0.000 A 
BRANCH  13  15
ATOM     15  C   UNL     1       2.402   4.205  19.457  0.00  0.00    +0.000 C 
BRANCH  15  16
ATOM     16  N   UNL     1       3.533   3.562  18.812  0.00  0.00    +0.000 N 
ATOM     17  C   UNL     1       4.782   3.980  19.199  0.00  0.00    +0.000 C 
ATOM     18  O   UNL     1       5.222   4.141  20.323  0.00  0.00    +0.000 OA
ATOM     19  C   UNL     1       5.442   4.437  17.983  0.00  0.00    +0.000 A 
ATOM     20  C   UNL     1       6.382   5.444  17.890  0.00  0.00    +0.000 A 
ATOM     21  C   UNL     1       6.516   6.071  16.649  0.00  0.00    +0.000 A 
ATOM     22  C   UNL     1       5.744   5.656  15.542  0.00  0.00    +0.000 A 
ATOM     23  C   UNL     1       4.802   4.630  15.663  0.00  0.00    +0.000 A 
ATOM     24  C   UNL     1       4.658   4.059  16.907  0.00  0.00    +0.000 A 
ATOM     25  C   UNL     1       3.473   3.390  17.448  0.00  0.00    +0.000 C 
ATOM     26  O   UNL     1       2.570   2.927  16.778  0.00  0.00    +0.000 OA
ENDBRANCH  15  16
ENDBRANCH  13  15
ENDBRANCH   2   9
BRANCH   6  27
ATOM     27  C   UNL     1      -2.136  12.573  20.068  0.00  0.00    +0.000 A 
ATOM     28  N   UNL     1      -2.840  12.779  21.158  0.00  0.00    +0.000 NA
ATOM     29  C   UNL     1      -4.144  12.609  20.751  0.00  0.00    +0.000 A 
ATOM     30  N   UNL     1      -4.269  12.309  19.454  0.00  0.00    +0.000 NA
ATOM     31  N   UNL     1      -2.992  12.302  19.041  0.00  0.00    +0.000 N 
ATOM     32  H   UNL     1      -2.786  12.092  18.071  0.00  0.00    +0.000 HD
BRANCH  29  33
ATOM     33  C   UNL     1      -5.259  12.739  21.687  0.00  0.00    +0.000 A 
ATOM     34  C   UNL     1      -5.015  12.848  23.066  0.00  0.00    +0.000 A 
ATOM     35  C   UNL     1      -6.072  12.998  23.966  0.00  0.00    +0.000 A 
ATOM     36  C   UNL     1      -7.383  13.042  23.494  0.00  0.00    +0.000 A 
ATOM     37  C   UNL     1      -7.640  12.914  22.130  0.00  0.00    +0.000 A 
ATOM     38  C   UNL     1      -6.582  12.763  21.229  0.00  0.00    +0.000 A 
ENDBRANCH  29  33
ENDBRANCH   6  27
TORSDOF 5
ENDMDL
MODEL 9
REMARK VINA RESULT:      -9.5      1.830      3.530
REMARK  Name = 
REMARK  5 active torsions:
REMARK  status: ('A' for Active; 'I' for Inactive)
REMARK    1  A    between atoms: C_2  and  C_3
REMARK    2  A    between atoms: C_7  and  C_8
REMARK    3  A    between atoms: C_8  and  N_9
REMARK    4  A    between atoms: C_24  and  C_25
REMARK    5  A    between atoms: C_27  and  C_28
REMARK                            x       y       z     vdW  Elec       q    Type
REMARK                         _______ _______ _______ _____ _____    ______ ____
ROOT
ATOM      1  O   UNL     1       1.534   8.644  22.073  0.00  0.00    +0.000 OA
ATOM      2  C   UNL     1       1.067   8.864  20.955  0.00  0.00    +0.000 C 
ATOM      3  N   UNL     1       0.191   9.923  20.692  0.00  0.00    +0.000 N 
ATOM      4  C   UNL     1      -0.469  10.213  19.418  0.00  0.00    +0.000 C 
ATOM      5  C   UNL     1      -0.353  11.682  19.032  0.00  0.00    +0.000 C 
ATOM      6  C   UNL     1      -0.790  12.627  20.153  0.00  0.00    +0.000 C 
ATOM      7  C   UNL     1      -0.105  12.248  21.474  0.00  0.00    +0.000 C 
ATOM      8  C   UNL     1      -0.238  10.761  21.813  0.00  0.00    +0.000 C 
ENDROOT
BRANCH   2   9
ATOM      9  C   UNL     1       1.566   8.017  19.843  0.00  0.00    +0.000 A 
ATOM     10  C   UNL     1       2.282   8.530  18.757  0.00  0.00    +0.000 A 
ATOM     11  C   UNL     1       2.861   7.657  17.838  0.00  0.00    +0.000 A 
ATOM     12  C   UNL     1       2.678   6.277  17.972  0.00  0.00    +0.000 A 
ATOM     13  C   UNL     1       1.881   5.747  19.004  0.00  0.00    +0.000 A 
ATOM     14  C   UNL     1       1.307   6.639  19.921  0.00  0.00    +0.000 A 
BRANCH  13  15
ATOM     15  C   UNL     1       1.546   4.251  19.073  0.00  0.00    +0.000 C 
BRANCH  15  16
ATOM     16  N   UNL     1       2.742   3.457  18.851  0.00  0.00    +0.000 N 
ATOM     17  C   UNL     1       3.806   3.703  19.683  0.00  0.00    +0.000 C 
ATOM     18  O   UNL     1       3.823   3.808  20.896  0.00  0.00    +0.000 OA
ATOM     19  C   UNL     1       4.917   4.061  18.810  0.00  0.00    +0.000 A 
ATOM     20  C   UNL     1       5.947   4.931  19.109  0.00  0.00    +0.000 A 
ATOM     21  C   UNL     1       6.603   5.528  18.031  0.00  0.00    +0.000 A 
ATOM     22  C   UNL     1       6.241   5.217  16.702  0.00  0.00    +0.000 A 
ATOM     23  C   UNL     1       5.197   4.329  16.427  0.00  0.00    +0.000 A 
ATOM     24  C   UNL     1       4.537   3.788  17.507  0.00  0.00    +0.000 A 
ATOM     25  C   UNL     1       3.162   3.289  17.552  0.00  0.00    +0.000 C 
ATOM     26  O   UNL     1       2.514   2.950  16.581  0.00  0.00    +0.000 OA
ENDBRANCH  15  16
ENDBRANCH  13  15
ENDBRANCH   2   9
BRANCH   6  27
ATOM     27  C   UNL     1      -2.280  12.644  20.275  0.00  0.00    +0.000 A 
ATOM     28  N   UNL     1      -2.990  12.737  21.376  0.00  0.00    +0.000 NA
ATOM     29  C   UNL     1      -4.293  12.640  20.944  0.00  0.00    +0.000 A 
ATOM     30  N   UNL     1      -4.412  12.495  19.620  0.00  0.00    +0.000 NA
ATOM     31  N   UNL     1      -3.132  12.510  19.218  0.00  0.00    +0.000 N 
ATOM     32  H   UNL     1      -2.921  12.409  18.231  0.00  0.00    +0.000 HD
BRANCH  29  33
ATOM     33  C   UNL     1      -5.414  12.684  21.881  0.00  0.00    +0.000 A 
ATOM     34  C   UNL     1      -6.707  12.341  21.451  0.00  0.00    +0.000 A 
ATOM     35  C   UNL     1      -7.780  12.355  22.344  0.00  0.00    +0.000 A 
ATOM     36  C   UNL     1      -7.569  12.710  23.675  0.00  0.00    +0.000 A 
ATOM     37  C   UNL     1      -6.295  13.073  24.109  0.00  0.00    +0.000 A 
ATOM     38  C   UNL     1      -5.221  13.059  23.215  0.00  0.00    +0.000 A 
ENDBRANCH  29  33
ENDBRANCH   6  27
TORSDOF 5
ENDMDL
