MODEL 1
REMARK VINA RESULT:      -9.0      0.000      0.000
REMARK  Name = 
REMARK  7 active torsions:
REMARK  status: ('A' for Active; 'I' for Inactive)
REMARK    1  A    between atoms: C_1  and  C_2
REMARK    2  A    between atoms: C_4  and  C_5
REMARK    3  A    between atoms: C_9  and  N_10
REMARK    4  A    between atoms: C_11  and  C_13
REMARK    5  A    between atoms: N_15  and  C_16
REMARK    6  A    between atoms: C_18  and  C_19
REMARK    7  A    between atoms: C_27  and  C_28
REMARK                            x       y       z     vdW  Elec       q    Type
REMARK                         _______ _______ _______ _____ _____    ______ ____
ROOT
ATOM      1  N   UNL     1       2.146   8.145  19.116  0.00  0.00    +0.000 N 
ATOM      2  C   UNL     1       2.800   8.020  17.888  0.00  0.00    +0.000 C 
ATOM      3  O   UNL     1       2.611   8.737  16.913  0.00  0.00    +0.000 OA
ATOM      4  H   UNL     1       2.465   7.553  19.868  0.00  0.00    +0.000 HD
ENDROOT
BRANCH   1   9
ATOM      5  C   UNL     1      -0.908  10.283  18.762  0.00  0.00    +0.000 A 
ATOM      6  C   UNL     1      -0.900  10.939  20.000  0.00  0.00    +0.000 A 
ATOM      7  C   UNL     1       0.103  10.704  20.927  0.00  0.00    +0.000 A 
ATOM      8  C   UNL     1       1.111   9.799  20.631  0.00  0.00    +0.000 A 
ATOM      9  C   UNL     1       1.134   9.099  19.419  0.00  0.00    +0.000 A 
ATOM     10  C   UNL     1       0.118   9.354  18.476  0.00  0.00    +0.000 A 
BRANCH   5  14
ATOM     11  C   UNL     1      -5.159  11.988  17.000  0.00  0.00    +0.000 C 
ATOM     12  C   UNL     1      -3.842  11.320  17.026  0.00  0.00    +0.000 A 
ATOM     13  N   UNL     1      -3.090  11.322  18.166  0.00  0.00    +0.000 NA
ATOM     14  C   UNL     1      -2.008  10.626  17.860  0.00  0.00    +0.000 A 
ATOM     15  O   UNL     1      -1.988  10.169  16.567  0.00  0.00    +0.000 OA
ATOM     16  C   UNL     1      -3.178  10.616  16.044  0.00  0.00    +0.000 A 
ATOM     17  C   UNL     1      -3.501  10.270  14.650  0.00  0.00    +0.000 C 
ENDBRANCH   5  14
ENDBRANCH   1   9
BRANCH   2  18
ATOM     18  C   UNL     1       3.789   6.952  17.795  0.00  0.00    +0.000 A 
ATOM     19  C   UNL     1       5.116   7.024  17.413  0.00  0.00    +0.000 A 
ATOM     20  N   UNL     1       5.646   5.786  17.636  0.00  0.00    +0.000 N 
ATOM     21  C   UNL     1       7.027   5.387  17.523  0.00  0.00    +0.000 C 
ATOM     22  N   UNL     1       4.749   4.888  18.064  0.00  0.00    +0.000 NA
ATOM     23  C   UNL     1       3.608   5.581  18.180  0.00  0.00    +0.000 A 
BRANCH  23  24
ATOM     24  C   UNL     1       2.351   4.905  18.699  0.00  0.00    +0.000 C 
ATOM     25  C   UNL     1       2.402   4.750  20.232  0.00  0.00    +0.000 C 
ATOM     26  C   UNL     1       1.201   3.985  20.785  0.00  0.00    +0.000 C 
ATOM     27  C   UNL     1       1.056   2.627  20.113  0.00  0.00    +0.000 C 
ATOM     28  C   UNL     1       0.905   2.788  18.606  0.00  0.00    +0.000 C 
ATOM     29  C   UNL     1       2.080   3.555  18.001  0.00  0.00    +0.000 C 
ENDBRANCH  23  24
ENDBRANCH   2  18
TORSDOF 4
ENDMDL
MODEL 2
REMARK VINA RESULT:      -8.7      0.640      1.159
REMARK  Name = 
REMARK  7 active torsions:
REMARK  status: ('A' for Active; 'I' for Inactive)
REMARK    1  A    between atoms: C_1  and  C_2
REMARK    2  A    between atoms: C_4  and  C_5
REMARK    3  A    between atoms: C_9  and  N_10
REMARK    4  A    between atoms: C_11  and  C_13
REMARK    5  A    between atoms: N_15  and  C_16
REMARK    6  A    between atoms: C_18  and  C_19
REMARK    7  A    between atoms: C_27  and  C_28
REMARK                            x       y       z     vdW  Elec       q    Type
REMARK                         _______ _______ _______ _____ _____    ______ ____
ROOT
ATOM      1  N   UNL     1       2.181   8.081  19.010  0.00  0.00    +0.000 N 
ATOM      2  C   UNL     1       2.932   7.962  17.839  0.00  0.00    +0.000 C 
ATOM      3  O   UNL     1       2.832   8.692  16.860  0.00  0.00    +0.000 OA
ATOM      4  H   UNL     1       2.430   7.476  19.779  0.00  0.00    +0.000 HD
ENDROOT
BRANCH   1   9
ATOM      5  C   UNL     1      -0.913  10.131  18.514  0.00  0.00    +0.000 A 
ATOM      6  C   UNL     1      -0.894  10.901  19.685  0.00  0.00    +0.000 A 
ATOM      7  C   UNL     1       0.128  10.769  20.611  0.00  0.00    +0.000 A 
ATOM      8  C   UNL     1       1.146   9.854  20.383  0.00  0.00    +0.000 A 
ATOM      9  C   UNL     1       1.159   9.044  19.241  0.00  0.00    +0.000 A 
ATOM     10  C   UNL     1       0.123   9.195  18.297  0.00  0.00    +0.000 A 
BRANCH   5  14
ATOM     11  C   UNL     1      -3.764  10.237  14.521  0.00  0.00    +0.000 C 
ATOM     12  C   UNL     1      -3.320  10.477  15.909  0.00  0.00    +0.000 A 
ATOM     13  N   UNL     1      -2.143   9.949  16.358  0.00  0.00    +0.000 NA
ATOM     14  C   UNL     1      -2.034  10.372  17.605  0.00  0.00    +0.000 A 
ATOM     15  O   UNL     1      -3.086  11.145  18.023  0.00  0.00    +0.000 OA
ATOM     16  C   UNL     1      -3.903  11.212  16.919  0.00  0.00    +0.000 A 
ATOM     17  C   UNL     1      -5.138  12.007  17.011  0.00  0.00    +0.000 C 
ENDBRANCH   5  14
ENDBRANCH   1   9
BRANCH   2  18
ATOM     18  C   UNL     1       3.913   6.883  17.813  0.00  0.00    +0.000 A 
ATOM     19  C   UNL     1       5.260   6.936  17.507  0.00  0.00    +0.000 A 
ATOM     20  N   UNL     1       5.762   5.695  17.773  0.00  0.00    +0.000 N 
ATOM     21  C   UNL     1       7.144   5.280  17.744  0.00  0.00    +0.000 C 
ATOM     22  N   UNL     1       4.832   4.811  18.158  0.00  0.00    +0.000 NA
ATOM     23  C   UNL     1       3.694   5.518  18.201  0.00  0.00    +0.000 A 
BRANCH  23  24
ATOM     24  C   UNL     1       2.403   4.860  18.654  0.00  0.00    +0.000 C 
ATOM     25  C   UNL     1       2.323   4.805  20.192  0.00  0.00    +0.000 C 
ATOM     26  C   UNL     1       1.084   4.062  20.689  0.00  0.00    +0.000 C 
ATOM     27  C   UNL     1       1.007   2.662  20.097  0.00  0.00    +0.000 C 
ATOM     28  C   UNL     1       0.985   2.724  18.575  0.00  0.00    +0.000 C 
ATOM     29  C   UNL     1       2.202   3.465  18.024  0.00  0.00    +0.000 C 
ENDBRANCH  23  24
ENDBRANCH   2  18
TORSDOF 4
ENDMDL
MODEL 3
REMARK VINA RESULT:      -8.7      1.798      2.156
REMARK  Name = 
REMARK  7 active torsions:
REMARK  status: ('A' for Active; 'I' for Inactive)
REMARK    1  A    between atoms: C_1  and  C_2
REMARK    2  A    between atoms: C_4  and  C_5
REMARK    3  A    between atoms: C_9  and  N_10
REMARK    4  A    between atoms: C_11  and  C_13
REMARK    5  A    between atoms: N_15  and  C_16
REMARK    6  A    between atoms: C_18  and  C_19
REMARK    7  A    between atoms: C_27  and  C_28
REMARK                            x       y       z     vdW  Elec       q    Type
REMARK                         _______ _______ _______ _____ _____    ______ ____
ROOT
ATOM      1  N   UNL     1       2.132   9.196  17.701  0.00  0.00    +0.000 N 
ATOM      2  C   UNL     1       2.413   8.077  18.487  0.00  0.00    +0.000 C 
ATOM      3  O   UNL     1       2.073   7.932  19.654  0.00  0.00    +0.000 OA
ATOM      4  H   UNL     1       2.385   9.148  16.725  0.00  0.00    +0.000 HD
ENDROOT
BRANCH   1   9
ATOM      5  C   UNL     1      -0.682  11.479  18.647  0.00  0.00    +0.000 A 
ATOM      6  C   UNL     1       0.038  12.616  19.040  0.00  0.00    +0.000 A 
ATOM      7  C   UNL     1       1.422  12.644  18.974  0.00  0.00    +0.000 A 
ATOM      8  C   UNL     1       2.109  11.527  18.520  0.00  0.00    +0.000 A 
ATOM      9  C   UNL     1       1.437  10.359  18.140  0.00  0.00    +0.000 A 
ATOM     10  C   UNL     1       0.029  10.344  18.197  0.00  0.00    +0.000 A 
BRANCH   5  14
ATOM     11  C   UNL     1      -5.475  11.161  17.641  0.00  0.00    +0.000 C 
ATOM     12  C   UNL     1      -4.235  11.493  18.371  0.00  0.00    +0.000 A 
ATOM     13  N   UNL     1      -3.020  11.100  17.884  0.00  0.00    +0.000 NA
ATOM     14  C   UNL     1      -2.139  11.576  18.746  0.00  0.00    +0.000 A 
ATOM     15  O   UNL     1      -2.699  12.256  19.796  0.00  0.00    +0.000 OA
ATOM     16  C   UNL     1      -4.048  12.202  19.538  0.00  0.00    +0.000 A 
ATOM     17  C   UNL     1      -4.965  12.875  20.474  0.00  0.00    +0.000 C 
ENDBRANCH   5  14
ENDBRANCH   1   9
BRANCH   2  18
ATOM     18  C   UNL     1       3.161   7.008  17.835  0.00  0.00    +0.000 A 
ATOM     19  C   UNL     1       4.193   7.098  16.919  0.00  0.00    +0.000 A 
ATOM     20  N   UNL     1       4.649   5.826  16.729  0.00  0.00    +0.000 N 
ATOM     21  C   UNL     1       5.803   5.409  15.970  0.00  0.00    +0.000 C 
ATOM     22  N   UNL     1       3.946   4.900  17.393  0.00  0.00    +0.000 NA
ATOM     23  C   UNL     1       3.036   5.600  18.086  0.00  0.00    +0.000 A 
BRANCH  23  24
ATOM     24  C   UNL     1       2.071   4.888  19.017  0.00  0.00    +0.000 C 
ATOM     25  C   UNL     1       2.719   4.631  20.392  0.00  0.00    +0.000 C 
ATOM     26  C   UNL     1       1.815   3.830  21.326  0.00  0.00    +0.000 C 
ATOM     27  C   UNL     1       1.382   2.520  20.683  0.00  0.00    +0.000 C 
ATOM     28  C   UNL     1       0.651   2.782  19.372  0.00  0.00    +0.000 C 
ATOM     29  C   UNL     1       1.511   3.588  18.401  0.00  0.00    +0.000 C 
ENDBRANCH  23  24
ENDBRANCH   2  18
TORSDOF 4
ENDMDL
MODEL 4
REMARK VINA RESULT:      -8.6      1.103      1.412
REMARK  Name = 
REMARK  7 active torsions:
REMARK  status: ('A' for Active; 'I' for Inactive)
REMARK    1  A    between atoms: C_1  and  C_2
REMARK    2  A    between atoms: C_4  and  C_5
REMARK    3  A    between atoms: C_9  and  N_10
REMARK    4  A    between atoms: C_11  and  C_13
REMARK    5  A    between atoms: N_15  and  C_16
REMARK    6  A    between atoms: C_18  and  C_19
REMARK    7  A    between atoms: C_27  and  C_28
REMARK                            x       y       z     vdW  Elec       q    Type
REMARK                         _______ _______ _______ _____ _____    ______ ____
ROOT
ATOM      1  N   UNL     1       2.350   7.953  17.763  0.00  0.00    +0.000 N 
ATOM      2  C   UNL     1       3.000   6.948  18.482  0.00  0.00    +0.000 C 
ATOM      3  O   UNL     1       2.803   6.685  19.662  0.00  0.00    +0.000 OA
ATOM      4  H   UNL     1       2.535   8.001  16.772  0.00  0.00    +0.000 HD
ENDROOT
BRANCH   1   9
ATOM      5  C   UNL     1      -0.740  10.050  18.037  0.00  0.00    +0.000 A 
ATOM      6  C   UNL     1      -0.568  10.584  19.322  0.00  0.00    +0.000 A 
ATOM      7  C   UNL     1       0.554  10.282  20.077  0.00  0.00    +0.000 A 
ATOM      8  C   UNL     1       1.519   9.431  19.560  0.00  0.00    +0.000 A 
ATOM      9  C   UNL     1       1.382   8.852  18.292  0.00  0.00    +0.000 A 
ATOM     10  C   UNL     1       0.245   9.175  17.525  0.00  0.00    +0.000 A 
BRANCH   5  14
ATOM     11  C   UNL     1      -5.153  11.940  17.016  0.00  0.00    +0.000 C 
ATOM     12  C   UNL     1      -3.872  11.232  16.816  0.00  0.00    +0.000 A 
ATOM     13  N   UNL     1      -2.950  11.174  17.822  0.00  0.00    +0.000 NA
ATOM     14  C   UNL     1      -1.956  10.456  17.331  0.00  0.00    +0.000 A 
ATOM     15  O   UNL     1      -2.154  10.041  16.039  0.00  0.00    +0.000 OA
ATOM     16  C   UNL     1      -3.396  10.540  15.723  0.00  0.00    +0.000 A 
ATOM     17  C   UNL     1      -3.946  10.249  14.388  0.00  0.00    +0.000 C 
ENDBRANCH   5  14
ENDBRANCH   1   9
BRANCH   2  18
ATOM     18  C   UNL     1       3.977   6.158  17.740  0.00  0.00    +0.000 A 
ATOM     19  C   UNL     1       5.054   6.587  16.987  0.00  0.00    +0.000 A 
ATOM     20  N   UNL     1       5.738   5.463  16.624  0.00  0.00    +0.000 N 
ATOM     21  C   UNL     1       7.009   5.388  15.946  0.00  0.00    +0.000 C 
ATOM     22  N   UNL     1       5.150   4.326  17.019  0.00  0.00    +0.000 NA
ATOM     23  C   UNL     1       4.076   4.726  17.713  0.00  0.00    +0.000 A 
BRANCH  23  24
ATOM     24  C   UNL     1       3.170   3.704  18.375  0.00  0.00    +0.000 C 
ATOM     25  C   UNL     1       1.699   3.924  17.968  0.00  0.00    +0.000 C 
ATOM     26  C   UNL     1       0.742   2.978  18.690  0.00  0.00    +0.000 C 
ATOM     27  C   UNL     1       0.902   3.080  20.200  0.00  0.00    +0.000 C 
ATOM     28  C   UNL     1       2.334   2.763  20.611  0.00  0.00    +0.000 C 
ATOM     29  C   UNL     1       3.336   3.679  19.910  0.00  0.00    +0.000 C 
ENDBRANCH  23  24
ENDBRANCH   2  18
TORSDOF 4
ENDMDL
MODEL 5
REMARK VINA RESULT:      -8.5      3.159      4.047
REMARK  Name = 
REMARK  7 active torsions:
REMARK  status: ('A' for Active; 'I' for Inactive)
REMARK    1  A    between atoms: C_1  and  C_2
REMARK    2  A    between atoms: C_4  and  C_5
REMARK    3  A    between atoms: C_9  and  N_10
REMARK    4  A    between atoms: C_11  and  C_13
REMARK    5  A    between atoms: N_15  and  C_16
REMARK    6  A    between atoms: C_18  and  C_19
REMARK    7  A    between atoms: C_27  and  C_28
REMARK                            x       y       z     vdW  Elec       q    Type
REMARK                         _______ _______ _______ _____ _____    ______ ____
ROOT
ATOM      1  N   UNL     1       1.959   8.914  17.730  0.00  0.00    +0.000 N 
ATOM      2  C   UNL     1       2.431   7.887  18.548  0.00  0.00    +0.000 C 
ATOM      3  O   UNL     1       2.211   7.784  19.749  0.00  0.00    +0.000 OA
ATOM      4  H   UNL     1       2.131   8.829  16.738  0.00  0.00    +0.000 HD
ENDROOT
BRANCH   1   9
ATOM      5  C   UNL     1       1.040  12.391  18.775  0.00  0.00    +0.000 A 
ATOM      6  C   UNL     1      -0.338  12.237  18.975  0.00  0.00    +0.000 A 
ATOM      7  C   UNL     1      -0.954  11.009  18.794  0.00  0.00    +0.000 A 
ATOM      8  C   UNL     1      -0.198   9.915  18.400  0.00  0.00    +0.000 A 
ATOM      9  C   UNL     1       1.178  10.023  18.163  0.00  0.00    +0.000 A 
ATOM     10  C   UNL     1       1.799  11.272  18.363  0.00  0.00    +0.000 A 
BRANCH   5  14
ATOM     11  C   UNL     1       1.884  16.822  20.709  0.00  0.00    +0.000 C 
ATOM     12  C   UNL     1       1.983  15.677  19.782  0.00  0.00    +0.000 A 
ATOM     13  N   UNL     1       1.297  14.523  20.033  0.00  0.00    +0.000 NA
ATOM     14  C   UNL     1       1.578  13.731  19.013  0.00  0.00    +0.000 A 
ATOM     15  O   UNL     1       2.431  14.288  18.095  0.00  0.00    +0.000 OA
ATOM     16  C   UNL     1       2.678  15.544  18.598  0.00  0.00    +0.000 A 
ATOM     17  C   UNL     1       3.553  16.444  17.829  0.00  0.00    +0.000 C 
ENDBRANCH   5  14
ENDBRANCH   1   9
BRANCH   2  18
ATOM     18  C   UNL     1       3.235   6.862  17.891  0.00  0.00    +0.000 A 
ATOM     19  C   UNL     1       4.352   7.012  17.091  0.00  0.00    +0.000 A 
ATOM     20  N   UNL     1       4.820   5.752  16.848  0.00  0.00    +0.000 N 
ATOM     21  C   UNL     1       6.042   5.382  16.176  0.00  0.00    +0.000 C 
ATOM     22  N   UNL     1       4.052   4.786  17.367  0.00  0.00    +0.000 NA
ATOM     23  C   UNL     1       3.081   5.441  18.019  0.00  0.00    +0.000 A 
BRANCH  23  24
ATOM     24  C   UNL     1       2.026   4.671  18.793  0.00  0.00    +0.000 C 
ATOM     25  C   UNL     1       2.455   4.470  20.260  0.00  0.00    +0.000 C 
ATOM     26  C   UNL     1       1.466   3.614  21.049  0.00  0.00    +0.000 C 
ATOM     27  C   UNL     1       1.234   2.273  20.368  0.00  0.00    +0.000 C 
ATOM     28  C   UNL     1       0.713   2.473  18.951  0.00  0.00    +0.000 C 
ATOM     29  C   UNL     1       1.664   3.330  18.118  0.00  0.00    +0.000 C 
ENDBRANCH  23  24
ENDBRANCH   2  18
TORSDOF 4
ENDMDL
MODEL 6
REMARK VINA RESULT:      -8.5      1.462      3.317
REMARK  Name = 
REMARK  7 active torsions:
REMARK  status: ('A' for Active; 'I' for Inactive)
REMARK    1  A    between atoms: C_1  and  C_2
REMARK    2  A    between atoms: C_4  and  C_5
REMARK    3  A    between atoms: C_9  and  N_10
REMARK    4  A    between atoms: C_11  and  C_13
REMARK    5  A    between atoms: N_15  and  C_16
REMARK    6  A    between atoms: C_18  and  C_19
REMARK    7  A    between atoms: C_27  and  C_28
REMARK                            x       y       z     vdW  Elec       q    Type
REMARK                         _______ _______ _______ _____ _____    ______ ____
ROOT
ATOM      1  N   UNL     1       1.337   8.042  20.327  0.00  0.00    +0.000 N 
ATOM      2  C   UNL     1       2.198   7.428  19.416  0.00  0.00    +0.000 C 
ATOM      3  O   UNL     1       2.558   7.913  18.350  0.00  0.00    +0.000 OA
ATOM      4  H   UNL     1       1.198   7.577  21.213  0.00  0.00    +0.000 HD
ENDROOT
BRANCH   1   9
ATOM      5  C   UNL     1      -0.977  10.687  19.035  0.00  0.00    +0.000 A 
ATOM      6  C   UNL     1      -0.564  11.781  19.808  0.00  0.00    +0.000 A 
ATOM      7  C   UNL     1       0.472  11.662  20.720  0.00  0.00    +0.000 A 
ATOM      8  C   UNL     1       1.106  10.438  20.880  0.00  0.00    +0.000 A 
ATOM      9  C   UNL     1       0.714   9.310  20.150  0.00  0.00    +0.000 A 
ATOM     10  C   UNL     1      -0.331   9.443  19.214  0.00  0.00    +0.000 A 
BRANCH   5  14
ATOM     11  C   UNL     1      -5.289  12.038  17.119  0.00  0.00    +0.000 C 
ATOM     12  C   UNL     1      -3.923  11.482  17.193  0.00  0.00    +0.000 A 
ATOM     13  N   UNL     1      -3.215  11.543  18.360  0.00  0.00    +0.000 NA
ATOM     14  C   UNL     1      -2.069  10.941  18.094  0.00  0.00    +0.000 A 
ATOM     15  O   UNL     1      -1.963  10.492  16.802  0.00  0.00    +0.000 OA
ATOM     16  C   UNL     1      -3.167  10.840  16.236  0.00  0.00    +0.000 A 
ATOM     17  C   UNL     1      -3.409  10.473  14.831  0.00  0.00    +0.000 C 
ENDBRANCH   5  14
ENDBRANCH   1   9
BRANCH   2  18
ATOM     18  C   UNL     1       2.702   6.113  19.796  0.00  0.00    +0.000 A 
ATOM     19  C   UNL     1       2.172   5.200  20.687  0.00  0.00    +0.000 A 
ATOM     20  N   UNL     1       2.931   4.071  20.577  0.00  0.00    +0.000 N 
ATOM     21  C   UNL     1       2.699   2.791  21.199  0.00  0.00    +0.000 C 
ATOM     22  N   UNL     1       3.965   4.201  19.735  0.00  0.00    +0.000 NA
ATOM     23  C   UNL     1       3.840   5.438  19.236  0.00  0.00    +0.000 A 
BRANCH  23  24
ATOM     24  C   UNL     1       4.816   5.943  18.188  0.00  0.00    +0.000 C 
ATOM     25  C   UNL     1       4.484   5.359  16.800  0.00  0.00    +0.000 C 
ATOM     26  C   UNL     1       5.502   5.764  15.735  0.00  0.00    +0.000 C 
ATOM     27  C   UNL     1       6.916   5.386  16.153  0.00  0.00    +0.000 C 
ATOM     28  C   UNL     1       7.278   6.046  17.478  0.00  0.00    +0.000 C 
ATOM     29  C   UNL     1       6.286   5.679  18.579  0.00  0.00    +0.000 C 
ENDBRANCH  23  24
ENDBRANCH   2  18
TORSDOF 4
ENDMDL
MODEL 7
REMARK VINA RESULT:      -8.5      2.904      3.563
REMARK  Name = 
REMARK  7 active torsions:
REMARK  status: ('A' for Active; 'I' for Inactive)
REMARK    1  A    between atoms: C_1  and  C_2
REMARK    2  A    between atoms: C_4  and  C_5
REMARK    3  A    between atoms: C_9  and  N_10
REMARK    4  A    between atoms: C_11  and  C_13
REMARK    5  A    between atoms: N_15  and  C_16
REMARK    6  A    between atoms: C_18  and  C_19
REMARK    7  A    between atoms: C_27  and  C_28
REMARK                            x       y       z     vdW  Elec       q    Type
REMARK                         _______ _______ _______ _____ _____    ______ ____
ROOT
ATOM      1  N   UNL     1       2.046   7.994  19.844  0.00  0.00    +0.000 N 
ATOM      2  C   UNL     1       2.146   7.995  18.452  0.00  0.00    +0.000 C 
ATOM      3  O   UNL     1       1.521   8.733  17.700  0.00  0.00    +0.000 OA
ATOM      4  H   UNL     1       2.688   7.403  20.351  0.00  0.00    +0.000 HD
ENDROOT
BRANCH   1   9
ATOM      5  C   UNL     1       0.292  11.052  21.107  0.00  0.00    +0.000 A 
ATOM      6  C   UNL     1      -0.552  10.479  22.068  0.00  0.00    +0.000 A 
ATOM      7  C   UNL     1      -0.530   9.116  22.317  0.00  0.00    +0.000 A 
ATOM      8  C   UNL     1       0.333   8.302  21.598  0.00  0.00    +0.000 A 
ATOM      9  C   UNL     1       1.178   8.823  20.610  0.00  0.00    +0.000 A 
ATOM     10  C   UNL     1       1.159  10.212  20.373  0.00  0.00    +0.000 A 
BRANCH   5  14
ATOM     11  C   UNL     1      -0.292  15.519  19.158  0.00  0.00    +0.000 C 
ATOM     12  C   UNL     1      -0.029  14.476  20.170  0.00  0.00    +0.000 A 
ATOM     13  N   UNL     1      -0.134  13.154  19.843  0.00  0.00    +0.000 NA
ATOM     14  C   UNL     1       0.190  12.504  20.947  0.00  0.00    +0.000 A 
ATOM     15  O   UNL     1       0.492  13.321  22.005  0.00  0.00    +0.000 OA
ATOM     16  C   UNL     1       0.355  14.588  21.489  0.00  0.00    +0.000 A 
ATOM     17  C   UNL     1       0.640  15.734  22.368  0.00  0.00    +0.000 C 
ENDBRANCH   5  14
ENDBRANCH   1   9
BRANCH   2  18
ATOM     18  C   UNL     1       3.088   7.042  17.876  0.00  0.00    +0.000 A 
ATOM     19  C   UNL     1       4.254   7.283  17.174  0.00  0.00    +0.000 A 
ATOM     20  N   UNL     1       4.845   6.067  16.985  0.00  0.00    +0.000 N 
ATOM     21  C   UNL     1       6.147   5.800  16.424  0.00  0.00    +0.000 C 
ATOM     22  N   UNL     1       4.119   5.040  17.445  0.00  0.00    +0.000 NA
ATOM     23  C   UNL     1       3.044   5.612  18.004  0.00  0.00    +0.000 A 
BRANCH  23  24
ATOM     24  C   UNL     1       1.994   4.757  18.692  0.00  0.00    +0.000 C 
ATOM     25  C   UNL     1       2.306   4.604  20.194  0.00  0.00    +0.000 C 
ATOM     26  C   UNL     1       1.328   3.670  20.904  0.00  0.00    +0.000 C 
ATOM     27  C   UNL     1       1.275   2.309  20.225  0.00  0.00    +0.000 C 
ATOM     28  C   UNL     1       0.868   2.454  18.763  0.00  0.00    +0.000 C 
ATOM     29  C   UNL     1       1.812   3.386  18.007  0.00  0.00    +0.000 C 
ENDBRANCH  23  24
ENDBRANCH   2  18
TORSDOF 4
ENDMDL
MODEL 8
REMARK VINA RESULT:      -8.5      2.950      4.133
REMARK  Name = 
REMARK  7 active torsions:
REMARK  status: ('A' for Active; 'I' for Inactive)
REMARK    1  A    between atoms: C_1  and  C_2
REMARK    2  A    between atoms: C_4  and  C_5
REMARK    3  A    between atoms: C_9  and  N_10
REMARK    4  A    between atoms: C_11  and  C_13
REMARK    5  A    between atoms: N_15  and  C_16
REMARK    6  A    between atoms: C_18  and  C_19
REMARK    7  A    between atoms: C_27  and  C_28
REMARK                            x       y       z     vdW  Elec       q    Type
REMARK                         _______ _______ _______ _____ _____    ______ ____
ROOT
ATOM      1  N   UNL     1       1.783   8.934  17.696  0.00  0.00    +0.000 N 
ATOM      2  C   UNL     1       2.342   7.969  18.536  0.00  0.00    +0.000 C 
ATOM      3  O   UNL     1       2.155   7.893  19.744  0.00  0.00    +0.000 OA
ATOM      4  H   UNL     1       1.939   8.827  16.705  0.00  0.00    +0.000 HD
ENDROOT
BRANCH   1   9
ATOM      5  C   UNL     1       0.696  12.281  18.977  0.00  0.00    +0.000 A 
ATOM      6  C   UNL     1      -0.697  12.139  18.900  0.00  0.00    +0.000 A 
ATOM      7  C   UNL     1      -1.272  10.958  18.459  0.00  0.00    +0.000 A 
ATOM      8  C   UNL     1      -0.458   9.901  18.078  0.00  0.00    +0.000 A 
ATOM      9  C   UNL     1       0.938  10.002  18.113  0.00  0.00    +0.000 A 
ATOM     10  C   UNL     1       1.514  11.201  18.576  0.00  0.00    +0.000 A 
BRANCH   5  14
ATOM     11  C   UNL     1       2.062  16.988  19.234  0.00  0.00    +0.000 C 
ATOM     12  C   UNL     1       1.816  15.595  19.658  0.00  0.00    +0.000 A 
ATOM     13  N   UNL     1       1.227  14.707  18.803  0.00  0.00    +0.000 NA
ATOM     14  C   UNL     1       1.183  13.568  19.474  0.00  0.00    +0.000 A 
ATOM     15  O   UNL     1       1.698  13.650  20.742  0.00  0.00    +0.000 OA
ATOM     16  C   UNL     1       2.109  14.958  20.845  0.00  0.00    +0.000 A 
ATOM     17  C   UNL     1       2.751  15.391  22.097  0.00  0.00    +0.000 C 
ENDBRANCH   5  14
ENDBRANCH   1   9
BRANCH   2  18
ATOM     18  C   UNL     1       3.199   6.980  17.893  0.00  0.00    +0.000 A 
ATOM     19  C   UNL     1       4.341   7.174  17.139  0.00  0.00    +0.000 A 
ATOM     20  N   UNL     1       4.854   5.933  16.893  0.00  0.00    +0.000 N 
ATOM     21  C   UNL     1       6.110   5.609  16.262  0.00  0.00    +0.000 C 
ATOM     22  N   UNL     1       4.094   4.937  17.365  0.00  0.00    +0.000 NA
ATOM     23  C   UNL     1       3.081   5.552  17.990  0.00  0.00    +0.000 A 
BRANCH  23  24
ATOM     24  C   UNL     1       2.020   4.739  18.710  0.00  0.00    +0.000 C 
ATOM     25  C   UNL     1       2.366   4.581  20.204  0.00  0.00    +0.000 C 
ATOM     26  C   UNL     1       1.374   3.686  20.945  0.00  0.00    +0.000 C 
ATOM     27  C   UNL     1       1.253   2.325  20.274  0.00  0.00    +0.000 C 
ATOM     28  C   UNL     1       0.813   2.479  18.823  0.00  0.00    +0.000 C 
ATOM     29  C   UNL     1       1.770   3.372  18.037  0.00  0.00    +0.000 C 
ENDBRANCH  23  24
ENDBRANCH   2  18
TORSDOF 4
ENDMDL
MODEL 9
REMARK VINA RESULT:      -8.5      1.671      1.826
REMARK  Name = 
REMARK  7 active torsions:
REMARK  status: ('A' for Active; 'I' for Inactive)
REMARK    1  A    between atoms: C_1  and  C_2
REMARK    2  A    between atoms: C_4  and  C_5
REMARK    3  A    between atoms: C_9  and  N_10
REMARK    4  A    between atoms: C_11  and  C_13
REMARK    5  A    between atoms: N_15  and  C_16
REMARK    6  A    between atoms: C_18  and  C_19
REMARK    7  A    between atoms: C_27  and  C_28
REMARK                            x       y       z     vdW  Elec       q    Type
REMARK                         _______ _______ _______ _____ _____    ______ ____
ROOT
ATOM      1  N   UNL     1       2.131   9.191  17.696  0.00  0.00    +0.000 N 
ATOM      2  C   UNL     1       2.446   8.081  18.481  0.00  0.00    +0.000 C 
ATOM      3  O   UNL     1       2.171   7.956  19.668  0.00  0.00    +0.000 OA
ATOM      4  H   UNL     1       2.328   9.126  16.708  0.00  0.00    +0.000 HD
ENDROOT
BRANCH   1   9
ATOM      5  C   UNL     1      -0.611  11.563  18.631  0.00  0.00    +0.000 A 
ATOM      6  C   UNL     1       0.143  12.650  19.094  0.00  0.00    +0.000 A 
ATOM      7  C   UNL     1       1.529  12.617  19.077  0.00  0.00    +0.000 A 
ATOM      8  C   UNL     1       2.181  11.488  18.604  0.00  0.00    +0.000 A 
ATOM      9  C   UNL     1       1.473  10.367  18.155  0.00  0.00    +0.000 A 
ATOM     10  C   UNL     1       0.064  10.414  18.162  0.00  0.00    +0.000 A 
BRANCH   5  14
ATOM     11  C   UNL     1      -5.173  12.436  20.217  0.00  0.00    +0.000 C 
ATOM     12  C   UNL     1      -4.075  12.063  19.302  0.00  0.00    +0.000 A 
ATOM     13  N   UNL     1      -2.775  12.151  19.712  0.00  0.00    +0.000 NA
ATOM     14  C   UNL     1      -2.065  11.723  18.682  0.00  0.00    +0.000 A 
ATOM     15  O   UNL     1      -2.821  11.366  17.595  0.00  0.00    +0.000 OA
ATOM     16  C   UNL     1      -4.114  11.583  18.011  0.00  0.00    +0.000 A 
ATOM     17  C   UNL     1      -5.208  11.268  17.078  0.00  0.00    +0.000 C 
ENDBRANCH   5  14
ENDBRANCH   1   9
BRANCH   2  18
ATOM     18  C   UNL     1       3.146   6.995  17.804  0.00  0.00    +0.000 A 
ATOM     19  C   UNL     1       4.150   7.062  16.856  0.00  0.00    +0.000 A 
ATOM     20  N   UNL     1       4.568   5.779  16.650  0.00  0.00    +0.000 N 
ATOM     21  C   UNL     1       5.686   5.335  15.854  0.00  0.00    +0.000 C 
ATOM     22  N   UNL     1       3.864   4.869  17.335  0.00  0.00    +0.000 NA
ATOM     23  C   UNL     1       2.994   5.590  18.057  0.00  0.00    +0.000 A 
BRANCH  23  24
ATOM     24  C   UNL     1       2.041   4.901  19.018  0.00  0.00    +0.000 C 
ATOM     25  C   UNL     1       2.712   4.667  20.386  0.00  0.00    +0.000 C 
ATOM     26  C   UNL     1       1.820   3.887  21.351  0.00  0.00    +0.000 C 
ATOM     27  C   UNL     1       1.370   2.567  20.741  0.00  0.00    +0.000 C 
ATOM     28  C   UNL     1       0.619   2.808  19.437  0.00  0.00    +0.000 C 
ATOM     29  C   UNL     1       1.466   3.591  18.436  0.00  0.00    +0.000 C 
ENDBRANCH  23  24
ENDBRANCH   2  18
TORSDOF 4
ENDMDL
