MODEL 1
REMARK VINA RESULT:      -8.7      0.000      0.000
REMARK  Name = 
REMARK  7 active torsions:
REMARK  status: ('A' for Active; 'I' for Inactive)
REMARK    1  A    between atoms: C_1  and  C_2
REMARK    2  A    between atoms: N_4  and  C_5
REMARK    3  A    between atoms: C_7  and  C_8
REMARK    4  A    between atoms: C_12  and  N_13
REMARK    5  A    between atoms: N_13  and  C_14
REMARK    6  A    between atoms: C_14  and  C_15
REMARK    7  A    between atoms: C_19  and  C_20
REMARK                            x       y       z     vdW  Elec       q    Type
REMARK                         _______ _______ _______ _____ _____    ______ ____
ROOT
ATOM      1  N   UNL     1       2.502   3.619  18.024  0.00  0.00    +0.000 NA
ATOM      2  H   UNL     1       2.701   4.518  17.587  0.00  0.00    +0.000 HD
ENDROOT
BRANCH   1   7
ATOM      3  C   UNL     1       2.508   4.791  20.293  0.00  0.00    +0.000 C 
ATOM      4  O   UNL     1       2.222   4.303  21.631  0.00  0.00    +0.000 OA
ATOM      5  C   UNL     1       1.483   3.085  21.526  0.00  0.00    +0.000 C 
ATOM      6  C   UNL     1       1.736   2.549  20.141  0.00  0.00    +0.000 C 
ATOM      7  C   UNL     1       1.805   3.819  19.306  0.00  0.00    +0.000 C 
BRANCH   3  14
ATOM      8  C   UNL     1       3.328   6.891  17.925  0.00  0.00    +0.000 C 
ATOM      9  C   UNL     1       2.472   7.138  19.112  0.00  0.00    +0.000 A 
ATOM     10  N   UNL     1       1.957   8.358  19.316  0.00  0.00    +0.000 NA
ATOM     11  N   UNL     1       1.272   8.238  20.462  0.00  0.00    +0.000 N 
ATOM     12  C   UNL     1       0.566   9.373  21.004  0.00  0.00    +0.000 C 
ATOM     13  C   UNL     1       1.330   6.988  20.999  0.00  0.00    +0.000 A 
ATOM     14  C   UNL     1       2.106   6.225  20.146  0.00  0.00    +0.000 A 
ENDBRANCH   3  14
ENDBRANCH   1   7
BRANCH   1  15
ATOM     15  C   UNL     1       3.764   2.888  18.171  0.00  0.00    +0.000 C 
BRANCH  15  16
ATOM     16  C   UNL     1       4.925   3.730  17.699  0.00  0.00    +0.000 A 
ATOM     17  C   UNL     1       5.725   4.404  18.628  0.00  0.00    +0.000 A 
ATOM     18  C   UNL     1       6.801   5.170  18.197  0.00  0.00    +0.000 A 
ATOM     19  C   UNL     1       7.108   5.248  16.837  0.00  0.00    +0.000 A 
ATOM     20  C   UNL     1       6.354   4.554  15.874  0.00  0.00    +0.000 A 
ATOM     21  C   UNL     1       5.240   3.824  16.331  0.00  0.00    +0.000 A 
BRANCH  20  22
ATOM     22  C   UNL     1       6.742   4.533  14.446  0.00  0.00    +0.000 A 
ATOM     23  C   UNL     1       6.127   3.678  13.527  0.00  0.00    +0.000 A 
ATOM     24  C   UNL     1       6.481   3.746  12.179  0.00  0.00    +0.000 A 
ATOM     25  C   UNL     1       7.439   4.663  11.778  0.00  0.00    +0.000 A 
ATOM     26  C   UNL     1       8.009   5.474  12.744  0.00  0.00    +0.000 A 
ATOM     27  N   UNL     1       7.679   5.435  14.056  0.00  0.00    +0.000 NA
ENDBRANCH  20  22
ENDBRANCH  15  16
ENDBRANCH   1  15
TORSDOF 5
ENDMDL
MODEL 2
REMARK VINA RESULT:      -8.1      2.122      7.051
REMARK  Name = 
REMARK  7 active torsions:
REMARK  status: ('A' for Active; 'I' for Inactive)
REMARK    1  A    between atoms: C_1  and  C_2
REMARK    2  A    between atoms: N_4  and  C_5
REMARK    3  A    between atoms: C_7  and  C_8
REMARK    4  A    between atoms: C_12  and  N_13
REMARK    5  A    between atoms: N_13  and  C_14
REMARK    6  A    between atoms: C_14  and  C_15
REMARK    7  A    between atoms: C_19  and  C_20
REMARK                            x       y       z     vdW  Elec       q    Type
REMARK                         _______ _______ _______ _____ _____    ______ ____
ROOT
ATOM      1  N   UNL     1       5.621   3.420  18.919  0.00  0.00    +0.000 NA
ATOM      2  H   UNL     1       5.680   3.388  19.935  0.00  0.00    +0.000 HD
ENDROOT
BRANCH   1   7
ATOM      3  C   UNL     1       7.134   4.627  17.253  0.00  0.00    +0.000 C 
ATOM      4  O   UNL     1       8.048   5.744  17.414  0.00  0.00    +0.000 OA
ATOM      5  C   UNL     1       7.712   6.441  18.616  0.00  0.00    +0.000 C 
ATOM      6  C   UNL     1       6.920   5.477  19.461  0.00  0.00    +0.000 C 
ATOM      7  C   UNL     1       6.113   4.715  18.420  0.00  0.00    +0.000 C 
BRANCH   3  14
ATOM      8  C   UNL     1       4.962   6.730  16.008  0.00  0.00    +0.000 C 
ATOM      9  C   UNL     1       5.569   5.545  15.353  0.00  0.00    +0.000 A 
ATOM     10  N   UNL     1       5.210   5.223  14.102  0.00  0.00    +0.000 NA
ATOM     11  N   UNL     1       5.915   4.114  13.835  0.00  0.00    +0.000 N 
ATOM     12  C   UNL     1       5.787   3.470  12.550  0.00  0.00    +0.000 C 
ATOM     13  C   UNL     1       6.711   3.716  14.865  0.00  0.00    +0.000 A 
ATOM     14  C   UNL     1       6.521   4.626  15.888  0.00  0.00    +0.000 A 
ENDBRANCH   3  14
ENDBRANCH   1   7
BRANCH   1  15
ATOM     15  C   UNL     1       4.234   3.150  18.528  0.00  0.00    +0.000 C 
BRANCH  15  16
ATOM     16  C   UNL     1       3.279   3.989  19.343  0.00  0.00    +0.000 A 
ATOM     17  C   UNL     1       2.718   3.473  20.515  0.00  0.00    +0.000 A 
ATOM     18  C   UNL     1       1.848   4.248  21.273  0.00  0.00    +0.000 A 
ATOM     19  C   UNL     1       1.553   5.557  20.885  0.00  0.00    +0.000 A 
ATOM     20  C   UNL     1       2.127   6.128  19.734  0.00  0.00    +0.000 A 
ATOM     21  C   UNL     1       2.967   5.306  18.957  0.00  0.00    +0.000 A 
BRANCH  20  22
ATOM     22  C   UNL     1       1.916   7.548  19.380  0.00  0.00    +0.000 A 
ATOM     23  C   UNL     1       2.262   8.056  18.124  0.00  0.00    +0.000 A 
ATOM     24  C   UNL     1       1.979   9.386  17.816  0.00  0.00    +0.000 A 
ATOM     25  C   UNL     1       1.358  10.181  18.766  0.00  0.00    +0.000 A 
ATOM     26  C   UNL     1       1.048   9.613  19.989  0.00  0.00    +0.000 A 
ATOM     27  N   UNL     1       1.304   8.325  20.312  0.00  0.00    +0.000 NA
ENDBRANCH  20  22
ENDBRANCH  15  16
ENDBRANCH   1  15
TORSDOF 5
ENDMDL
MODEL 3
REMARK VINA RESULT:      -8.0      2.288      8.141
REMARK  Name = 
REMARK  7 active torsions:
REMARK  status: ('A' for Active; 'I' for Inactive)
REMARK    1  A    between atoms: C_1  and  C_2
REMARK    2  A    between atoms: N_4  and  C_5
REMARK    3  A    between atoms: C_7  and  C_8
REMARK    4  A    between atoms: C_12  and  N_13
REMARK    5  A    between atoms: N_13  and  C_14
REMARK    6  A    between atoms: C_14  and  C_15
REMARK    7  A    between atoms: C_19  and  C_20
REMARK                            x       y       z     vdW  Elec       q    Type
REMARK                         _______ _______ _______ _____ _____    ______ ____
ROOT
ATOM      1  N   UNL     1       2.125   5.195  18.845  0.00  0.00    +0.000 NA
ATOM      2  H   UNL     1       1.226   4.761  19.050  0.00  0.00    +0.000 HD
ENDROOT
BRANCH   1   7
ATOM      3  C   UNL     1       3.743   4.058  17.230  0.00  0.00    +0.000 C 
ATOM      4  O   UNL     1       4.067   2.658  17.016  0.00  0.00    +0.000 OA
ATOM      5  C   UNL     1       3.654   1.912  18.162  0.00  0.00    +0.000 C 
ATOM      6  C   UNL     1       2.628   2.755  18.874  0.00  0.00    +0.000 C 
ATOM      7  C   UNL     1       3.160   4.164  18.666  0.00  0.00    +0.000 C 
BRANCH   3  14
ATOM      8  C   UNL     1       5.498   4.333  14.485  0.00  0.00    +0.000 C 
ATOM      9  C   UNL     1       5.697   5.041  15.774  0.00  0.00    +0.000 A 
ATOM     10  N   UNL     1       6.718   5.898  15.910  0.00  0.00    +0.000 NA
ATOM     11  N   UNL     1       6.618   6.331  17.175  0.00  0.00    +0.000 N 
ATOM     12  C   UNL     1       7.567   7.289  17.688  0.00  0.00    +0.000 C 
ATOM     13  C   UNL     1       5.571   5.784  17.853  0.00  0.00    +0.000 A 
ATOM     14  C   UNL     1       4.932   4.930  16.974  0.00  0.00    +0.000 A 
ENDBRANCH   3  14
ENDBRANCH   1   7
BRANCH   1  15
ATOM     15  C   UNL     1       2.439   6.137  19.924  0.00  0.00    +0.000 C 
BRANCH  15  16
ATOM     16  C   UNL     1       2.010   7.535  19.551  0.00  0.00    +0.000 A 
ATOM     17  C   UNL     1       2.235   8.016  18.258  0.00  0.00    +0.000 A 
ATOM     18  C   UNL     1       1.830   9.299  17.908  0.00  0.00    +0.000 A 
ATOM     19  C   UNL     1       1.169  10.104  18.839  0.00  0.00    +0.000 A 
ATOM     20  C   UNL     1       0.888   9.645  20.138  0.00  0.00    +0.000 A 
ATOM     21  C   UNL     1       1.352   8.360  20.482  0.00  0.00    +0.000 A 
BRANCH  20  22
ATOM     22  C   UNL     1       0.086  10.442  21.091  0.00  0.00    +0.000 A 
ATOM     23  C   UNL     1      -0.400   9.899  22.284  0.00  0.00    +0.000 A 
ATOM     24  C   UNL     1      -1.093  10.713  23.180  0.00  0.00    +0.000 A 
ATOM     25  C   UNL     1      -1.286  12.048  22.869  0.00  0.00    +0.000 A 
ATOM     26  C   UNL     1      -0.782  12.517  21.668  0.00  0.00    +0.000 A 
ATOM     27  N   UNL     1      -0.100  11.753  20.784  0.00  0.00    +0.000 NA
ENDBRANCH  20  22
ENDBRANCH  15  16
ENDBRANCH   1  15
TORSDOF 5
ENDMDL
MODEL 4
REMARK VINA RESULT:      -7.9      1.950      8.191
REMARK  Name = 
REMARK  7 active torsions:
REMARK  status: ('A' for Active; 'I' for Inactive)
REMARK    1  A    between atoms: C_1  and  C_2
REMARK    2  A    between atoms: N_4  and  C_5
REMARK    3  A    between atoms: C_7  and  C_8
REMARK    4  A    between atoms: C_12  and  N_13
REMARK    5  A    between atoms: N_13  and  C_14
REMARK    6  A    between atoms: C_14  and  C_15
REMARK    7  A    between atoms: C_19  and  C_20
REMARK                            x       y       z     vdW  Elec       q    Type
REMARK                         _______ _______ _______ _____ _____    ______ ____
ROOT
ATOM      1  N   UNL     1       4.131   5.424  19.807  0.00  0.00    +0.000 NA
ATOM      2  H   UNL     1       4.452   6.154  19.172  0.00  0.00    +0.000 HD
ENDROOT
BRANCH   1   7
ATOM      3  C   UNL     1       4.226   3.884  17.773  0.00  0.00    +0.000 C 
ATOM      4  O   UNL     1       3.877   2.484  17.606  0.00  0.00    +0.000 OA
ATOM      5  C   UNL     1       3.837   1.866  18.893  0.00  0.00    +0.000 C 
ATOM      6  C   UNL     1       3.668   2.977  19.896  0.00  0.00    +0.000 C 
ATOM      7  C   UNL     1       4.498   4.097  19.287  0.00  0.00    +0.000 C 
BRANCH   3  14
ATOM      8  C   UNL     1       7.152   5.082  18.610  0.00  0.00    +0.000 C 
ATOM      9  C   UNL     1       6.636   4.793  17.249  0.00  0.00    +0.000 A 
ATOM     10  N   UNL     1       7.402   5.052  16.180  0.00  0.00    +0.000 NA
ATOM     11  N   UNL     1       6.638   4.703  15.136  0.00  0.00    +0.000 N 
ATOM     12  C   UNL     1       7.143   4.842  13.792  0.00  0.00    +0.000 C 
ATOM     13  C   UNL     1       5.413   4.228  15.496  0.00  0.00    +0.000 A 
ATOM     14  C   UNL     1       5.363   4.265  16.876  0.00  0.00    +0.000 A 
ENDBRANCH   3  14
ENDBRANCH   1   7
BRANCH   1  15
ATOM     15  C   UNL     1       2.685   5.581  19.996  0.00  0.00    +0.000 C 
BRANCH  15  16
ATOM     16  C   UNL     1       2.243   6.967  19.591  0.00  0.00    +0.000 A 
ATOM     17  C   UNL     1       2.422   7.403  18.274  0.00  0.00    +0.000 A 
ATOM     18  C   UNL     1       2.005   8.673  17.896  0.00  0.00    +0.000 A 
ATOM     19  C   UNL     1       1.378   9.511  18.821  0.00  0.00    +0.000 A 
ATOM     20  C   UNL     1       1.142   9.096  20.145  0.00  0.00    +0.000 A 
ATOM     21  C   UNL     1       1.618   7.823  20.516  0.00  0.00    +0.000 A 
BRANCH  20  22
ATOM     22  C   UNL     1       0.374   9.927  21.098  0.00  0.00    +0.000 A 
ATOM     23  C   UNL     1      -0.034  11.226  20.784  0.00  0.00    +0.000 A 
ATOM     24  C   UNL     1      -0.816  11.941  21.691  0.00  0.00    +0.000 A 
ATOM     25  C   UNL     1      -1.173  11.347  22.890  0.00  0.00    +0.000 A 
ATOM     26  C   UNL     1      -0.729  10.059  23.136  0.00  0.00    +0.000 A 
ATOM     27  N   UNL     1       0.023   9.340  22.272  0.00  0.00    +0.000 NA
ENDBRANCH  20  22
ENDBRANCH  15  16
ENDBRANCH   1  15
TORSDOF 5
ENDMDL
MODEL 5
REMARK VINA RESULT:      -7.8      2.220      8.661
REMARK  Name = 
REMARK  7 active torsions:
REMARK  status: ('A' for Active; 'I' for Inactive)
REMARK    1  A    between atoms: C_1  and  C_2
REMARK    2  A    between atoms: N_4  and  C_5
REMARK    3  A    between atoms: C_7  and  C_8
REMARK    4  A    between atoms: C_12  and  N_13
REMARK    5  A    between atoms: N_13  and  C_14
REMARK    6  A    between atoms: C_14  and  C_15
REMARK    7  A    between atoms: C_19  and  C_20
REMARK                            x       y       z     vdW  Elec       q    Type
REMARK                         _______ _______ _______ _____ _____    ______ ____
ROOT
ATOM      1  N   UNL     1       3.526   6.330  18.189  0.00  0.00    +0.000 NA
ATOM      2  H   UNL     1       2.975   6.251  17.335  0.00  0.00    +0.000 HD
ENDROOT
BRANCH   1   7
ATOM      3  C   UNL     1       4.350   4.121  17.211  0.00  0.00    +0.000 C 
ATOM      4  O   UNL     1       4.385   2.776  17.760  0.00  0.00    +0.000 OA
ATOM      5  C   UNL     1       4.268   2.859  19.182  0.00  0.00    +0.000 C 
ATOM      6  C   UNL     1       3.660   4.204  19.482  0.00  0.00    +0.000 C 
ATOM      7  C   UNL     1       4.289   5.093  18.421  0.00  0.00    +0.000 C 
BRANCH   3  14
ATOM      8  C   UNL     1       7.481   4.683  17.970  0.00  0.00    +0.000 C 
ATOM      9  C   UNL     1       6.866   4.602  16.622  0.00  0.00    +0.000 A 
ATOM     10  N   UNL     1       7.623   4.798  15.534  0.00  0.00    +0.000 NA
ATOM     11  N   UNL     1       6.765   4.680  14.511  0.00  0.00    +0.000 N 
ATOM     12  C   UNL     1       7.234   4.828  13.155  0.00  0.00    +0.000 C 
ATOM     13  C   UNL     1       5.489   4.415  14.903  0.00  0.00    +0.000 A 
ATOM     14  C   UNL     1       5.502   4.352  16.284  0.00  0.00    +0.000 A 
ENDBRANCH   3  14
ENDBRANCH   1   7
BRANCH   1  15
ATOM     15  C   UNL     1       2.618   6.654  19.294  0.00  0.00    +0.000 C 
BRANCH  15  16
ATOM     16  C   UNL     1       2.056   8.046  19.131  0.00  0.00    +0.000 A 
ATOM     17  C   UNL     1       2.248   8.743  17.934  0.00  0.00    +0.000 A 
ATOM     18  C   UNL     1       1.722  10.019  17.777  0.00  0.00    +0.000 A 
ATOM     19  C   UNL     1       0.973  10.602  18.803  0.00  0.00    +0.000 A 
ATOM     20  C   UNL     1       0.723   9.919  20.007  0.00  0.00    +0.000 A 
ATOM     21  C   UNL     1       1.308   8.647  20.160  0.00  0.00    +0.000 A 
BRANCH  20  22
ATOM     22  C   UNL     1      -0.167  10.476  21.050  0.00  0.00    +0.000 A 
ATOM     23  C   UNL     1      -0.287   9.885  22.310  0.00  0.00    +0.000 A 
ATOM     24  C   UNL     1      -1.086  10.489  23.281  0.00  0.00    +0.000 A 
ATOM     25  C   UNL     1      -1.748  11.667  22.974  0.00  0.00    +0.000 A 
ATOM     26  C   UNL     1      -1.586  12.193  21.703  0.00  0.00    +0.000 A 
ATOM     27  N   UNL     1      -0.812  11.632  20.746  0.00  0.00    +0.000 NA
ENDBRANCH  20  22
ENDBRANCH  15  16
ENDBRANCH   1  15
TORSDOF 5
ENDMDL
MODEL 6
REMARK VINA RESULT:      -7.8      2.239      8.059
REMARK  Name = 
REMARK  7 active torsions:
REMARK  status: ('A' for Active; 'I' for Inactive)
REMARK    1  A    between atoms: C_1  and  C_2
REMARK    2  A    between atoms: N_4  and  C_5
REMARK    3  A    between atoms: C_7  and  C_8
REMARK    4  A    between atoms: C_12  and  N_13
REMARK    5  A    between atoms: N_13  and  C_14
REMARK    6  A    between atoms: C_14  and  C_15
REMARK    7  A    between atoms: C_19  and  C_20
REMARK                            x       y       z     vdW  Elec       q    Type
REMARK                         _______ _______ _______ _____ _____    ______ ____
ROOT
ATOM      1  N   UNL     1       2.029   4.986  19.570  0.00  0.00    +0.000 NA
ATOM      2  H   UNL     1       1.302   4.805  20.260  0.00  0.00    +0.000 HD
ENDROOT
BRANCH   1   7
ATOM      3  C   UNL     1       3.555   3.701  17.977  0.00  0.00    +0.000 C 
ATOM      4  O   UNL     1       3.605   2.296  17.612  0.00  0.00    +0.000 OA
ATOM      5  C   UNL     1       2.913   1.540  18.607  0.00  0.00    +0.000 C 
ATOM      6  C   UNL     1       2.007   2.507  19.325  0.00  0.00    +0.000 C 
ATOM      7  C   UNL     1       2.841   3.778  19.354  0.00  0.00    +0.000 C 
BRANCH   3  14
ATOM      8  C   UNL     1       5.440   4.328  15.379  0.00  0.00    +0.000 C 
ATOM      9  C   UNL     1       5.741   4.578  16.811  0.00  0.00    +0.000 A 
ATOM     10  N   UNL     1       6.925   5.102  17.158  0.00  0.00    +0.000 NA
ATOM     11  N   UNL     1       6.873   5.171  18.496  0.00  0.00    +0.000 N 
ATOM     12  C   UNL     1       7.993   5.699  19.235  0.00  0.00    +0.000 C 
ATOM     13  C   UNL     1       5.702   4.712  19.017  0.00  0.00    +0.000 A 
ATOM     14  C   UNL     1       4.922   4.311  17.949  0.00  0.00    +0.000 A 
ENDBRANCH   3  14
ENDBRANCH   1   7
BRANCH   1  15
ATOM     15  C   UNL     1       2.823   6.132  20.025  0.00  0.00    +0.000 C 
BRANCH  15  16
ATOM     16  C   UNL     1       2.185   7.429  19.587  0.00  0.00    +0.000 A 
ATOM     17  C   UNL     1       2.237   7.816  18.244  0.00  0.00    +0.000 A 
ATOM     18  C   UNL     1       1.641   9.003  17.836  0.00  0.00    +0.000 A 
ATOM     19  C   UNL     1       0.960   9.801  18.759  0.00  0.00    +0.000 A 
ATOM     20  C   UNL     1       0.849   9.427  20.110  0.00  0.00    +0.000 A 
ATOM     21  C   UNL     1       1.504   8.245  20.508  0.00  0.00    +0.000 A 
BRANCH  20  22
ATOM     22  C   UNL     1       0.031  10.201  21.070  0.00  0.00    +0.000 A 
ATOM     23  C   UNL     1      -0.636  11.371  20.696  0.00  0.00    +0.000 A 
ATOM     24  C   UNL     1      -1.451  12.025  21.620  0.00  0.00    +0.000 A 
ATOM     25  C   UNL     1      -1.582  11.500  22.896  0.00  0.00    +0.000 A 
ATOM     26  C   UNL     1      -0.887  10.341  23.197  0.00  0.00    +0.000 A 
ATOM     27  N   UNL     1      -0.097   9.682  22.319  0.00  0.00    +0.000 NA
ENDBRANCH  20  22
ENDBRANCH  15  16
ENDBRANCH   1  15
TORSDOF 5
ENDMDL
MODEL 7
REMARK VINA RESULT:      -7.8      2.588      5.151
REMARK  Name = 
REMARK  7 active torsions:
REMARK  status: ('A' for Active; 'I' for Inactive)
REMARK    1  A    between atoms: C_1  and  C_2
REMARK    2  A    between atoms: N_4  and  C_5
REMARK    3  A    between atoms: C_7  and  C_8
REMARK    4  A    between atoms: C_12  and  N_13
REMARK    5  A    between atoms: N_13  and  C_14
REMARK    6  A    between atoms: C_14  and  C_15
REMARK    7  A    between atoms: C_19  and  C_20
REMARK                            x       y       z     vdW  Elec       q    Type
REMARK                         _______ _______ _______ _____ _____    ______ ____
ROOT
ATOM      1  N   UNL     1       1.974   7.707  20.963  0.00  0.00    +0.000 NA
ATOM      2  H   UNL     1       1.705   7.985  21.906  0.00  0.00    +0.000 HD
ENDROOT
BRANCH   1   7
ATOM      3  C   UNL     1       0.368   9.426  19.971  0.00  0.00    +0.000 C 
ATOM      4  O   UNL     1       0.161   9.877  18.606  0.00  0.00    +0.000 OA
ATOM      5  C   UNL     1       1.310   9.531  17.830  0.00  0.00    +0.000 C 
ATOM      6  C   UNL     1       2.015   8.430  18.579  0.00  0.00    +0.000 C 
ATOM      7  C   UNL     1       1.803   8.832  20.031  0.00  0.00    +0.000 C 
BRANCH   3  14
ATOM      8  C   UNL     1      -0.502   9.191  23.114  0.00  0.00    +0.000 C 
ATOM      9  C   UNL     1      -0.274  10.421  22.317  0.00  0.00    +0.000 A 
ATOM     10  N   UNL     1      -0.452  11.622  22.885  0.00  0.00    +0.000 NA
ATOM     11  N   UNL     1      -0.190  12.493  21.900  0.00  0.00    +0.000 N 
ATOM     12  C   UNL     1      -0.277  13.911  22.148  0.00  0.00    +0.000 C 
ATOM     13  C   UNL     1       0.149  11.895  20.724  0.00  0.00    +0.000 A 
ATOM     14  C   UNL     1       0.111  10.531  20.947  0.00  0.00    +0.000 A 
ENDBRANCH   3  14
ENDBRANCH   1   7
BRANCH   1  15
ATOM     15  C   UNL     1       1.185   6.530  20.587  0.00  0.00    +0.000 C 
BRANCH  15  16
ATOM     16  C   UNL     1       2.078   5.325  20.413  0.00  0.00    +0.000 A 
ATOM     17  C   UNL     1       1.788   4.135  21.089  0.00  0.00    +0.000 A 
ATOM     18  C   UNL     1       2.601   3.020  20.921  0.00  0.00    +0.000 A 
ATOM     19  C   UNL     1       3.694   3.073  20.053  0.00  0.00    +0.000 A 
ATOM     20  C   UNL     1       3.997   4.237  19.324  0.00  0.00    +0.000 A 
ATOM     21  C   UNL     1       3.187   5.367  19.549  0.00  0.00    +0.000 A 
BRANCH  20  22
ATOM     22  C   UNL     1       5.078   4.266  18.315  0.00  0.00    +0.000 A 
ATOM     23  C   UNL     1       4.826   4.055  16.956  0.00  0.00    +0.000 A 
ATOM     24  C   UNL     1       5.870   4.162  16.037  0.00  0.00    +0.000 A 
ATOM     25  C   UNL     1       7.141   4.477  16.492  0.00  0.00    +0.000 A 
ATOM     26  C   UNL     1       7.317   4.668  17.851  0.00  0.00    +0.000 A 
ATOM     27  N   UNL     1       6.322   4.578  18.763  0.00  0.00    +0.000 NA
ENDBRANCH  20  22
ENDBRANCH  15  16
ENDBRANCH   1  15
TORSDOF 5
ENDMDL
MODEL 8
REMARK VINA RESULT:      -7.8      1.043      1.104
REMARK  Name = 
REMARK  7 active torsions:
REMARK  status: ('A' for Active; 'I' for Inactive)
REMARK    1  A    between atoms: C_1  and  C_2
REMARK    2  A    between atoms: N_4  and  C_5
REMARK    3  A    between atoms: C_7  and  C_8
REMARK    4  A    between atoms: C_12  and  N_13
REMARK    5  A    between atoms: N_13  and  C_14
REMARK    6  A    between atoms: C_14  and  C_15
REMARK    7  A    between atoms: C_19  and  C_20
REMARK                            x       y       z     vdW  Elec       q    Type
REMARK                         _______ _______ _______ _____ _____    ______ ____
ROOT
ATOM      1  N   UNL     1       4.194   4.025  20.138  0.00  0.00    +0.000 NA
ATOM      2  H   UNL     1       4.203   3.527  21.026  0.00  0.00    +0.000 HD
ENDROOT
BRANCH   1   7
ATOM      3  C   UNL     1       1.809   4.845  20.539  0.00  0.00    +0.000 C 
ATOM      4  O   UNL     1       0.522   4.203  20.339  0.00  0.00    +0.000 OA
ATOM      5  C   UNL     1       0.694   3.103  19.444  0.00  0.00    +0.000 C 
ATOM      6  C   UNL     1       2.158   2.750  19.476  0.00  0.00    +0.000 C 
ATOM      7  C   UNL     1       2.821   4.112  19.615  0.00  0.00    +0.000 C 
BRANCH   3  14
ATOM      8  C   UNL     1       2.933   6.578  18.003  0.00  0.00    +0.000 C 
ATOM      9  C   UNL     1       2.212   7.072  19.202  0.00  0.00    +0.000 A 
ATOM     10  N   UNL     1       1.978   8.384  19.342  0.00  0.00    +0.000 NA
ATOM     11  N   UNL     1       1.344   8.481  20.519  0.00  0.00    +0.000 N 
ATOM     12  C   UNL     1       0.923   9.771  21.008  0.00  0.00    +0.000 C 
ATOM     13  C   UNL     1       1.162   7.282  21.137  0.00  0.00    +0.000 A 
ATOM     14  C   UNL     1       1.714   6.321  20.310  0.00  0.00    +0.000 A 
ENDBRANCH   3  14
ENDBRANCH   1   7
BRANCH   1  15
ATOM     15  C   UNL     1       5.111   3.345  19.218  0.00  0.00    +0.000 C 
BRANCH  15  16
ATOM     16  C   UNL     1       5.834   4.347  18.350  0.00  0.00    +0.000 A 
ATOM     17  C   UNL     1       6.450   5.461  18.930  0.00  0.00    +0.000 A 
ATOM     18  C   UNL     1       7.127   6.378  18.135  0.00  0.00    +0.000 A 
ATOM     19  C   UNL     1       7.222   6.177  16.756  0.00  0.00    +0.000 A 
ATOM     20  C   UNL     1       6.651   5.049  16.138  0.00  0.00    +0.000 A 
ATOM     21  C   UNL     1       5.929   4.161  16.959  0.00  0.00    +0.000 A 
BRANCH  20  22
ATOM     22  C   UNL     1       6.847   4.765  14.700  0.00  0.00    +0.000 A 
ATOM     23  C   UNL     1       6.055   3.838  14.016  0.00  0.00    +0.000 A 
ATOM     24  C   UNL     1       6.235   3.658  12.644  0.00  0.00    +0.000 A 
ATOM     25  C   UNL     1       7.199   4.403  11.985  0.00  0.00    +0.000 A 
ATOM     26  C   UNL     1       7.949   5.299  12.728  0.00  0.00    +0.000 A 
ATOM     27  N   UNL     1       7.791   5.500  14.056  0.00  0.00    +0.000 NA
ENDBRANCH  20  22
ENDBRANCH  15  16
ENDBRANCH   1  15
TORSDOF 5
ENDMDL
MODEL 9
REMARK VINA RESULT:      -7.7      2.634      8.168
REMARK  Name = 
REMARK  7 active torsions:
REMARK  status: ('A' for Active; 'I' for Inactive)
REMARK    1  A    between atoms: C_1  and  C_2
REMARK    2  A    between atoms: N_4  and  C_5
REMARK    3  A    between atoms: C_7  and  C_8
REMARK    4  A    between atoms: C_12  and  N_13
REMARK    5  A    between atoms: N_13  and  C_14
REMARK    6  A    between atoms: C_14  and  C_15
REMARK    7  A    between atoms: C_19  and  C_20
REMARK                            x       y       z     vdW  Elec       q    Type
REMARK                         _______ _______ _______ _____ _____    ______ ____
ROOT
ATOM      1  N   UNL     1       1.463   5.447  20.387  0.00  0.00    +0.000 NA
ATOM      2  H   UNL     1       1.282   5.350  21.385  0.00  0.00    +0.000 HD
ENDROOT
BRANCH   1   7
ATOM      3  C   UNL     1       2.230   4.175  18.310  0.00  0.00    +0.000 C 
ATOM      4  O   UNL     1       1.754   2.946  17.702  0.00  0.00    +0.000 OA
ATOM      5  C   UNL     1       0.995   2.219  18.670  0.00  0.00    +0.000 C 
ATOM      6  C   UNL     1       0.577   3.216  19.720  0.00  0.00    +0.000 C 
ATOM      7  C   UNL     1       1.784   4.137  19.798  0.00  0.00    +0.000 C 
BRANCH   3  14
ATOM      8  C   UNL     1       4.672   2.618  19.829  0.00  0.00    +0.000 C 
ATOM      9  C   UNL     1       4.764   3.660  18.777  0.00  0.00    +0.000 A 
ATOM     10  N   UNL     1       5.968   4.082  18.365  0.00  0.00    +0.000 NA
ATOM     11  N   UNL     1       5.691   5.020  17.448  0.00  0.00    +0.000 N 
ATOM     12  C   UNL     1       6.764   5.707  16.771  0.00  0.00    +0.000 C 
ATOM     13  C   UNL     1       4.357   5.213  17.257  0.00  0.00    +0.000 A 
ATOM     14  C   UNL     1       3.704   4.340  18.106  0.00  0.00    +0.000 A 
ENDBRANCH   3  14
ENDBRANCH   1   7
BRANCH   1  15
ATOM     15  C   UNL     1       2.534   6.431  20.206  0.00  0.00    +0.000 C 
BRANCH  15  16
ATOM     16  C   UNL     1       1.973   7.744  19.715  0.00  0.00    +0.000 A 
ATOM     17  C   UNL     1       2.207   8.160  18.401  0.00  0.00    +0.000 A 
ATOM     18  C   UNL     1       1.681   9.362  17.943  0.00  0.00    +0.000 A 
ATOM     19  C   UNL     1       0.890  10.148  18.784  0.00  0.00    +0.000 A 
ATOM     20  C   UNL     1       0.597   9.747  20.100  0.00  0.00    +0.000 A 
ATOM     21  C   UNL     1       1.182   8.549  20.555  0.00  0.00    +0.000 A 
BRANCH  20  22
ATOM     22  C   UNL     1      -0.335  10.511  20.959  0.00  0.00    +0.000 A 
ATOM     23  C   UNL     1      -0.444  10.267  22.330  0.00  0.00    +0.000 A 
ATOM     24  C   UNL     1      -1.288  11.061  23.107  0.00  0.00    +0.000 A 
ATOM     25  C   UNL     1      -2.004  12.080  22.500  0.00  0.00    +0.000 A 
ATOM     26  C   UNL     1      -1.851  12.260  21.136  0.00  0.00    +0.000 A 
ATOM     27  N   UNL     1      -1.035  11.510  20.361  0.00  0.00    +0.000 NA
ENDBRANCH  20  22
ENDBRANCH  15  16
ENDBRANCH   1  15
TORSDOF 5
ENDMDL
