MODEL 1
REMARK VINA RESULT:      -8.2      0.000      0.000
REMARK  Name = 
REMARK  2 active torsions:
REMARK  status: ('A' for Active; 'I' for Inactive)
REMARK    1  A    between atoms: C_2  and  C_3
REMARK    2  A    between atoms: C_16  and  C_17
REMARK                            x       y       z     vdW  Elec       q    Type
REMARK                         _______ _______ _______ _____ _____    ______ ____
ROOT
ATOM      1  O   UNL     1       5.191   2.526  20.667  0.00  0.00    +0.000 OA
ATOM      2  C   UNL     1       4.429   3.173  19.943  0.00  0.00    +0.000 C 
ATOM      3  N   UNL     1       3.090   3.325  20.299  0.00  0.00    +0.000 N 
ATOM      4  C   UNL     1       2.607   2.760  21.551  0.00  0.00    +0.000 C 
ATOM      5  C   UNL     1       1.184   2.339  21.234  0.00  0.00    +0.000 C 
ATOM      6  C   UNL     1       0.695   3.436  20.299  0.00  0.00    +0.000 C 
ATOM      7  C   UNL     1       1.959   3.872  19.543  0.00  0.00    +0.000 C 
ENDROOT
BRANCH   2   8
ATOM      8  C   UNL     1       5.045   3.828  18.734  0.00  0.00    +0.000 A 
ATOM      9  C   UNL     1       4.778   3.492  17.399  0.00  0.00    +0.000 A 
ATOM     10  C   UNL     1       5.266   4.231  16.313  0.00  0.00    +0.000 A 
ATOM     11  C   UNL     1       6.131   5.268  16.622  0.00  0.00    +0.000 A 
ATOM     12  N   UNL     1       6.808   6.179  15.863  0.00  0.00    +0.000 N 
ATOM     13  N   UNL     1       7.571   6.985  16.615  0.00  0.00    +0.000 NA
ATOM     14  N   UNL     1       7.388   6.637  17.884  0.00  0.00    +0.000 NA
ATOM     15  C   UNL     1       6.503   5.591  17.918  0.00  0.00    +0.000 A 
ATOM     16  C   UNL     1       5.957   4.874  18.991  0.00  0.00    +0.000 A 
ATOM     17  H   UNL     1       6.805   6.301  14.858  0.00  0.00    +0.000 HD
ENDBRANCH   2   8
BRANCH   7  18
ATOM     18  C   UNL     1       2.011   5.371  19.346  0.00  0.00    +0.000 A 
ATOM     19  N   UNL     1       1.685   6.226  20.297  0.00  0.00    +0.000 NA
ATOM     20  C   UNL     1       1.738   7.525  19.818  0.00  0.00    +0.000 A 
ATOM     21  C   UNL     1       1.425   8.689  20.549  0.00  0.00    +0.000 A 
ATOM     22  C   UNL     1       1.513   9.940  19.932  0.00  0.00    +0.000 A 
ATOM     23  C   UNL     1       1.903  10.046  18.602  0.00  0.00    +0.000 A 
ATOM     24  C   UNL     1       2.221   8.906  17.857  0.00  0.00    +0.000 A 
ATOM     25  C   UNL     1       2.136   7.653  18.487  0.00  0.00    +0.000 A 
ATOM     26  S   UNL     1       2.465   6.089  17.849  0.00  0.00    +0.000 S 
ENDBRANCH   7  18
TORSDOF 2
ENDMDL
MODEL 2
REMARK VINA RESULT:      -8.1      0.784      1.446
REMARK  Name = 
REMARK  2 active torsions:
REMARK  status: ('A' for Active; 'I' for Inactive)
REMARK    1  A    between atoms: C_2  and  C_3
REMARK    2  A    between atoms: C_16  and  C_17
REMARK                            x       y       z     vdW  Elec       q    Type
REMARK                         _______ _______ _______ _____ _____    ______ ____
ROOT
ATOM      1  O   UNL     1       5.197   2.578  20.398  0.00  0.00    +0.000 OA
ATOM      2  C   UNL     1       4.548   3.315  19.650  0.00  0.00    +0.000 C 
ATOM      3  N   UNL     1       3.157   3.341  19.731  0.00  0.00    +0.000 N 
ATOM      4  C   UNL     1       2.477   2.534  20.735  0.00  0.00    +0.000 C 
ATOM      5  C   UNL     1       1.187   2.118  20.053  0.00  0.00    +0.000 C 
ATOM      6  C   UNL     1       0.811   3.348  19.238  0.00  0.00    +0.000 C 
ATOM      7  C   UNL     1       2.162   3.970  18.857  0.00  0.00    +0.000 C 
ENDROOT
BRANCH   2   8
ATOM      8  C   UNL     1       5.342   4.208  18.732  0.00  0.00    +0.000 A 
ATOM      9  C   UNL     1       6.013   5.379  19.112  0.00  0.00    +0.000 A 
ATOM     10  C   UNL     1       6.858   6.090  18.248  0.00  0.00    +0.000 A 
ATOM     11  C   UNL     1       6.916   5.634  16.942  0.00  0.00    +0.000 A 
ATOM     12  N   UNL     1       7.591   6.056  15.833  0.00  0.00    +0.000 N 
ATOM     13  N   UNL     1       7.302   5.308  14.759  0.00  0.00    +0.000 NA
ATOM     14  N   UNL     1       6.452   4.363  15.148  0.00  0.00    +0.000 NA
ATOM     15  C   UNL     1       6.205   4.535  16.484  0.00  0.00    +0.000 A 
ATOM     16  C   UNL     1       5.412   3.805  17.381  0.00  0.00    +0.000 A 
ATOM     17  H   UNL     1       8.239   6.828  15.735  0.00  0.00    +0.000 HD
ENDBRANCH   2   8
BRANCH   7  18
ATOM     18  C   UNL     1       2.132   5.481  18.936  0.00  0.00    +0.000 A 
ATOM     19  N   UNL     1       1.711   6.128  20.006  0.00  0.00    +0.000 NA
ATOM     20  C   UNL     1       1.708   7.494  19.773  0.00  0.00    +0.000 A 
ATOM     21  C   UNL     1       1.290   8.488  20.682  0.00  0.00    +0.000 A 
ATOM     22  C   UNL     1       1.331   9.833  20.307  0.00  0.00    +0.000 A 
ATOM     23  C   UNL     1       1.775  10.201  19.042  0.00  0.00    +0.000 A 
ATOM     24  C   UNL     1       2.196   9.234  18.124  0.00  0.00    +0.000 A 
ATOM     25  C   UNL     1       2.158   7.884  18.511  0.00  0.00    +0.000 A 
ATOM     26  S   UNL     1       2.612   6.483  17.622  0.00  0.00    +0.000 S 
ENDBRANCH   7  18
TORSDOF 2
ENDMDL
MODEL 3
REMARK VINA RESULT:      -7.9      1.138      1.899
REMARK  Name = 
REMARK  2 active torsions:
REMARK  status: ('A' for Active; 'I' for Inactive)
REMARK    1  A    between atoms: C_2  and  C_3
REMARK    2  A    between atoms: C_16  and  C_17
REMARK                            x       y       z     vdW  Elec       q    Type
REMARK                         _______ _______ _______ _____ _____    ______ ____
ROOT
ATOM      1  O   UNL     1       5.172   2.342  20.234  0.00  0.00    +0.000 OA
ATOM      2  C   UNL     1       4.516   3.093  19.507  0.00  0.00    +0.000 C 
ATOM      3  N   UNL     1       3.124   3.021  19.505  0.00  0.00    +0.000 N 
ATOM      4  C   UNL     1       2.447   2.094  20.400  0.00  0.00    +0.000 C 
ATOM      5  C   UNL     1       1.229   1.651  19.611  0.00  0.00    +0.000 C 
ATOM      6  C   UNL     1       0.814   2.915  18.872  0.00  0.00    +0.000 C 
ATOM      7  C   UNL     1       2.137   3.652  18.623  0.00  0.00    +0.000 C 
ENDROOT
BRANCH   2   8
ATOM      8  C   UNL     1       5.295   4.107  18.710  0.00  0.00    +0.000 A 
ATOM      9  C   UNL     1       5.789   5.324  19.199  0.00  0.00    +0.000 A 
ATOM     10  C   UNL     1       6.633   6.161  18.456  0.00  0.00    +0.000 A 
ATOM     11  C   UNL     1       6.875   5.773  17.148  0.00  0.00    +0.000 A 
ATOM     12  N   UNL     1       7.609   6.317  16.133  0.00  0.00    +0.000 N 
ATOM     13  N   UNL     1       7.516   5.591  15.009  0.00  0.00    +0.000 NA
ATOM     14  N   UNL     1       6.742   4.544  15.273  0.00  0.00    +0.000 NA
ATOM     15  C   UNL     1       6.342   4.627  16.580  0.00  0.00    +0.000 A 
ATOM     16  C   UNL     1       5.547   3.776  17.362  0.00  0.00    +0.000 A 
ATOM     17  H   UNL     1       8.173   7.157  16.131  0.00  0.00    +0.000 HD
ENDBRANCH   2   8
BRANCH   7  18
ATOM     18  C   UNL     1       1.998   5.146  18.815  0.00  0.00    +0.000 A 
ATOM     19  N   UNL     1       2.199   6.011  17.839  0.00  0.00    +0.000 NA
ATOM     20  C   UNL     1       2.092   7.309  18.314  0.00  0.00    +0.000 A 
ATOM     21  C   UNL     1       2.275   8.484  17.558  0.00  0.00    +0.000 A 
ATOM     22  C   UNL     1       2.146   9.733  18.172  0.00  0.00    +0.000 A 
ATOM     23  C   UNL     1       1.842   9.825  19.526  0.00  0.00    +0.000 A 
ATOM     24  C   UNL     1       1.653   8.674  20.297  0.00  0.00    +0.000 A 
ATOM     25  C   UNL     1       1.779   7.423  19.669  0.00  0.00    +0.000 A 
ATOM     26  S   UNL     1       1.600   5.847  20.336  0.00  0.00    +0.000 S 
ENDBRANCH   7  18
TORSDOF 2
ENDMDL
MODEL 4
REMARK VINA RESULT:      -7.5      2.045      5.035
REMARK  Name = 
REMARK  2 active torsions:
REMARK  status: ('A' for Active; 'I' for Inactive)
REMARK    1  A    between atoms: C_2  and  C_3
REMARK    2  A    between atoms: C_16  and  C_17
REMARK                            x       y       z     vdW  Elec       q    Type
REMARK                         _______ _______ _______ _____ _____    ______ ____
ROOT
ATOM      1  O   UNL     1       3.769   3.137  16.080  0.00  0.00    +0.000 OA
ATOM      2  C   UNL     1       3.762   3.942  17.016  0.00  0.00    +0.000 C 
ATOM      3  N   UNL     1       4.549   5.091  16.953  0.00  0.00    +0.000 N 
ATOM      4  C   UNL     1       5.337   5.363  15.759  0.00  0.00    +0.000 C 
ATOM      5  C   UNL     1       6.583   6.043  16.294  0.00  0.00    +0.000 C 
ATOM      6  C   UNL     1       6.051   6.896  17.438  0.00  0.00    +0.000 C 
ATOM      7  C   UNL     1       4.860   6.091  17.979  0.00  0.00    +0.000 C 
ENDROOT
BRANCH   2   8
ATOM      8  C   UNL     1       2.820   3.644  18.152  0.00  0.00    +0.000 A 
ATOM      9  C   UNL     1       1.420   3.660  18.078  0.00  0.00    +0.000 A 
ATOM     10  C   UNL     1       0.594   3.230  19.126  0.00  0.00    +0.000 A 
ATOM     11  C   UNL     1       1.235   2.883  20.303  0.00  0.00    +0.000 A 
ATOM     12  N   UNL     1       0.789   2.445  21.517  0.00  0.00    +0.000 N 
ATOM     13  N   UNL     1       1.797   2.268  22.383  0.00  0.00    +0.000 NA
ATOM     14  N   UNL     1       2.926   2.560  21.746  0.00  0.00    +0.000 NA
ATOM     15  C   UNL     1       2.611   2.933  20.467  0.00  0.00    +0.000 A 
ATOM     16  C   UNL     1       3.420   3.310  19.385  0.00  0.00    +0.000 A 
ATOM     17  H   UNL     1      -0.159   2.258  21.820  0.00  0.00    +0.000 HD
ENDBRANCH   2   8
BRANCH   7  18
ATOM     18  C   UNL     1       3.696   6.983  18.350  0.00  0.00    +0.000 A 
ATOM     19  N   UNL     1       3.314   8.002  17.603  0.00  0.00    +0.000 NA
ATOM     20  C   UNL     1       2.287   8.696  18.221  0.00  0.00    +0.000 A 
ATOM     21  C   UNL     1       1.655   9.855  17.725  0.00  0.00    +0.000 A 
ATOM     22  C   UNL     1       0.636  10.460  18.464  0.00  0.00    +0.000 A 
ATOM     23  C   UNL     1       0.240   9.931  19.688  0.00  0.00    +0.000 A 
ATOM     24  C   UNL     1       0.850   8.782  20.200  0.00  0.00    +0.000 A 
ATOM     25  C   UNL     1       1.871   8.176  19.448  0.00  0.00    +0.000 A 
ATOM     26  S   UNL     1       2.794   6.768  19.799  0.00  0.00    +0.000 S 
ENDBRANCH   7  18
TORSDOF 2
ENDMDL
MODEL 5
REMARK VINA RESULT:      -7.4      1.885      4.897
REMARK  Name = 
REMARK  2 active torsions:
REMARK  status: ('A' for Active; 'I' for Inactive)
REMARK    1  A    between atoms: C_2  and  C_3
REMARK    2  A    between atoms: C_16  and  C_17
REMARK                            x       y       z     vdW  Elec       q    Type
REMARK                         _______ _______ _______ _____ _____    ______ ____
ROOT
ATOM      1  O   UNL     1       4.312   2.247  16.364  0.00  0.00    +0.000 OA
ATOM      2  C   UNL     1       4.307   3.134  17.223  0.00  0.00    +0.000 C 
ATOM      3  N   UNL     1       5.258   4.153  17.179  0.00  0.00    +0.000 N 
ATOM      4  C   UNL     1       6.222   4.194  16.089  0.00  0.00    +0.000 C 
ATOM      5  C   UNL     1       7.479   4.746  16.736  0.00  0.00    +0.000 C 
ATOM      6  C   UNL     1       6.939   5.772  17.724  0.00  0.00    +0.000 C 
ATOM      7  C   UNL     1       5.583   5.196  18.156  0.00  0.00    +0.000 C 
ENDROOT
BRANCH   2   8
ATOM      8  C   UNL     1       3.195   3.082  18.237  0.00  0.00    +0.000 A 
ATOM      9  C   UNL     1       1.827   3.206  17.956  0.00  0.00    +0.000 A 
ATOM     10  C   UNL     1       0.827   3.002  18.917  0.00  0.00    +0.000 A 
ATOM     11  C   UNL     1       1.265   2.773  20.211  0.00  0.00    +0.000 A 
ATOM     12  N   UNL     1       0.616   2.551  21.392  0.00  0.00    +0.000 N 
ATOM     13  N   UNL     1       1.475   2.415  22.413  0.00  0.00    +0.000 NA
ATOM     14  N   UNL     1       2.703   2.517  21.917  0.00  0.00    +0.000 NA
ATOM     15  C   UNL     1       2.604   2.728  20.568  0.00  0.00    +0.000 A 
ATOM     16  C   UNL     1       3.586   2.878  19.578  0.00  0.00    +0.000 A 
ATOM     17  H   UNL     1      -0.378   2.491  21.573  0.00  0.00    +0.000 HD
ENDBRANCH   2   8
BRANCH   7  18
ATOM     18  C   UNL     1       4.528   6.273  18.289  0.00  0.00    +0.000 A 
ATOM     19  N   UNL     1       3.764   6.391  19.359  0.00  0.00    +0.000 NA
ATOM     20  C   UNL     1       2.831   7.399  19.176  0.00  0.00    +0.000 A 
ATOM     21  C   UNL     1       1.836   7.782  20.098  0.00  0.00    +0.000 A 
ATOM     22  C   UNL     1       0.951   8.814  19.776  0.00  0.00    +0.000 A 
ATOM     23  C   UNL     1       1.040   9.464  18.550  0.00  0.00    +0.000 A 
ATOM     24  C   UNL     1       2.019   9.103  17.620  0.00  0.00    +0.000 A 
ATOM     25  C   UNL     1       2.909   8.069  17.954  0.00  0.00    +0.000 A 
ATOM     26  S   UNL     1       4.209   7.412  17.039  0.00  0.00    +0.000 S 
ENDBRANCH   7  18
TORSDOF 2
ENDMDL
MODEL 6
REMARK VINA RESULT:      -7.4      2.801      6.673
REMARK  Name = 
REMARK  2 active torsions:
REMARK  status: ('A' for Active; 'I' for Inactive)
REMARK    1  A    between atoms: C_2  and  C_3
REMARK    2  A    between atoms: C_16  and  C_17
REMARK                            x       y       z     vdW  Elec       q    Type
REMARK                         _______ _______ _______ _____ _____    ______ ____
ROOT
ATOM      1  O   UNL     1       7.019   4.931  20.396  0.00  0.00    +0.000 OA
ATOM      2  C   UNL     1       6.445   5.225  19.343  0.00  0.00    +0.000 C 
ATOM      3  N   UNL     1       7.003   6.170  18.484  0.00  0.00    +0.000 N 
ATOM      4  C   UNL     1       8.290   6.770  18.808  0.00  0.00    +0.000 C 
ATOM      5  C   UNL     1       8.173   8.187  18.279  0.00  0.00    +0.000 C 
ATOM      6  C   UNL     1       7.368   8.016  16.998  0.00  0.00    +0.000 C 
ATOM      7  C   UNL     1       6.450   6.821  17.293  0.00  0.00    +0.000 C 
ENDROOT
BRANCH   2   8
ATOM      8  C   UNL     1       5.185   4.461  19.029  0.00  0.00    +0.000 A 
ATOM      9  C   UNL     1       5.118   3.256  18.314  0.00  0.00    +0.000 A 
ATOM     10  C   UNL     1       3.937   2.512  18.179  0.00  0.00    +0.000 A 
ATOM     11  C   UNL     1       2.792   3.089  18.702  0.00  0.00    +0.000 A 
ATOM     12  N   UNL     1       1.486   2.695  18.751  0.00  0.00    +0.000 N 
ATOM     13  N   UNL     1       0.709   3.617  19.340  0.00  0.00    +0.000 NA
ATOM     14  N   UNL     1       1.496   4.621  19.711  0.00  0.00    +0.000 NA
ATOM     15  C   UNL     1       2.779   4.320  19.340  0.00  0.00    +0.000 A 
ATOM     16  C   UNL     1       3.983   5.018  19.514  0.00  0.00    +0.000 A 
ATOM     17  H   UNL     1       1.062   1.842  18.408  0.00  0.00    +0.000 HD
ENDBRANCH   2   8
BRANCH   7  18
ATOM     18  C   UNL     1       6.308   5.907  16.095  0.00  0.00    +0.000 A 
ATOM     19  N   UNL     1       7.287   5.711  15.231  0.00  0.00    +0.000 NA
ATOM     20  C   UNL     1       6.857   4.903  14.191  0.00  0.00    +0.000 A 
ATOM     21  C   UNL     1       7.626   4.510  13.076  0.00  0.00    +0.000 A 
ATOM     22  C   UNL     1       7.057   3.698  12.092  0.00  0.00    +0.000 A 
ATOM     23  C   UNL     1       5.737   3.276  12.200  0.00  0.00    +0.000 A 
ATOM     24  C   UNL     1       4.955   3.650  13.297  0.00  0.00    +0.000 A 
ATOM     25  C   UNL     1       5.536   4.462  14.285  0.00  0.00    +0.000 A 
ATOM     26  S   UNL     1       4.845   5.074  15.737  0.00  0.00    +0.000 S 
ENDBRANCH   7  18
TORSDOF 2
ENDMDL
MODEL 7
REMARK VINA RESULT:      -7.3      0.815      1.266
REMARK  Name = 
REMARK  2 active torsions:
REMARK  status: ('A' for Active; 'I' for Inactive)
REMARK    1  A    between atoms: C_2  and  C_3
REMARK    2  A    between atoms: C_16  and  C_17
REMARK                            x       y       z     vdW  Elec       q    Type
REMARK                         _______ _______ _______ _____ _____    ______ ____
ROOT
ATOM      1  O   UNL     1       5.191   2.472  20.586  0.00  0.00    +0.000 OA
ATOM      2  C   UNL     1       4.386   3.102  19.893  0.00  0.00    +0.000 C 
ATOM      3  N   UNL     1       3.048   3.180  20.276  0.00  0.00    +0.000 N 
ATOM      4  C   UNL     1       2.615   2.561  21.521  0.00  0.00    +0.000 C 
ATOM      5  C   UNL     1       1.209   2.080  21.218  0.00  0.00    +0.000 C 
ATOM      6  C   UNL     1       0.651   3.178  20.322  0.00  0.00    +0.000 C 
ATOM      7  C   UNL     1       1.878   3.693  19.556  0.00  0.00    +0.000 C 
ENDROOT
BRANCH   2   8
ATOM      8  C   UNL     1       4.947   3.817  18.692  0.00  0.00    +0.000 A 
ATOM      9  C   UNL     1       4.559   3.606  17.361  0.00  0.00    +0.000 A 
ATOM     10  C   UNL     1       5.008   4.403  16.299  0.00  0.00    +0.000 A 
ATOM     11  C   UNL     1       5.957   5.361  16.615  0.00  0.00    +0.000 A 
ATOM     12  N   UNL     1       6.629   6.291  15.876  0.00  0.00    +0.000 N 
ATOM     13  N   UNL     1       7.496   6.990  16.623  0.00  0.00    +0.000 NA
ATOM     14  N   UNL     1       7.389   6.550  17.873  0.00  0.00    +0.000 NA
ATOM     15  C   UNL     1       6.446   5.557  17.898  0.00  0.00    +0.000 A 
ATOM     16  C   UNL     1       5.939   4.786  18.954  0.00  0.00    +0.000 A 
ATOM     17  H   UNL     1       6.558   6.494  14.886  0.00  0.00    +0.000 HD
ENDBRANCH   2   8
BRANCH   7  18
ATOM     18  C   UNL     1       1.856   5.198  19.399  0.00  0.00    +0.000 A 
ATOM     19  N   UNL     1       2.209   5.801  18.280  0.00  0.00    +0.000 NA
ATOM     20  C   UNL     1       2.179   7.177  18.443  0.00  0.00    +0.000 A 
ATOM     21  C   UNL     1       2.524   8.133  17.466  0.00  0.00    +0.000 A 
ATOM     22  C   UNL     1       2.458   9.494  17.773  0.00  0.00    +0.000 A 
ATOM     23  C   UNL     1       2.059   9.915  19.037  0.00  0.00    +0.000 A 
ATOM     24  C   UNL     1       1.710   8.985  20.022  0.00  0.00    +0.000 A 
ATOM     25  C   UNL     1       1.773   7.619  19.703  0.00  0.00    +0.000 A 
ATOM     26  S   UNL     1       1.404   6.253  20.682  0.00  0.00    +0.000 S 
ENDBRANCH   7  18
TORSDOF 2
ENDMDL
MODEL 8
REMARK VINA RESULT:      -7.0      8.500     11.223
REMARK  Name = 
REMARK  2 active torsions:
REMARK  status: ('A' for Active; 'I' for Inactive)
REMARK    1  A    between atoms: C_2  and  C_3
REMARK    2  A    between atoms: C_16  and  C_17
REMARK                            x       y       z     vdW  Elec       q    Type
REMARK                         _______ _______ _______ _____ _____    ______ ____
ROOT
ATOM      1  O   UNL     1      -5.775  12.368  16.882  0.00  0.00    +0.000 OA
ATOM      2  C   UNL     1      -4.885  11.881  17.586  0.00  0.00    +0.000 C 
ATOM      3  N   UNL     1      -3.816  11.210  16.994  0.00  0.00    +0.000 N 
ATOM      4  C   UNL     1      -3.727  11.131  15.543  0.00  0.00    +0.000 C 
ATOM      5  C   UNL     1      -3.103   9.772  15.290  0.00  0.00    +0.000 C 
ATOM      6  C   UNL     1      -2.104   9.630  16.431  0.00  0.00    +0.000 C 
ATOM      7  C   UNL     1      -2.751  10.399  17.591  0.00  0.00    +0.000 C 
ENDROOT
BRANCH   2   8
ATOM      8  C   UNL     1      -4.994  12.122  19.069  0.00  0.00    +0.000 A 
ATOM      9  C   UNL     1      -4.069  12.828  19.851  0.00  0.00    +0.000 A 
ATOM     10  C   UNL     1      -4.294  13.149  21.198  0.00  0.00    +0.000 A 
ATOM     11  C   UNL     1      -5.449  12.632  21.761  0.00  0.00    +0.000 A 
ATOM     12  N   UNL     1      -5.992  12.706  23.011  0.00  0.00    +0.000 N 
ATOM     13  N   UNL     1      -7.130  12.002  23.102  0.00  0.00    +0.000 NA
ATOM     14  N   UNL     1      -7.368  11.474  21.906  0.00  0.00    +0.000 NA
ATOM     15  C   UNL     1      -6.357  11.852  21.063  0.00  0.00    +0.000 A 
ATOM     16  C   UNL     1      -6.139  11.593  19.702  0.00  0.00    +0.000 A 
ATOM     17  H   UNL     1      -5.650  13.196  23.829  0.00  0.00    +0.000 HD
ENDBRANCH   2   8
BRANCH   7  18
ATOM     18  C   UNL     1      -1.734  11.193  18.381  0.00  0.00    +0.000 A 
ATOM     19  N   UNL     1      -1.351  12.406  18.030  0.00  0.00    +0.000 NA
ATOM     20  C   UNL     1      -0.351  12.860  18.876  0.00  0.00    +0.000 A 
ATOM     21  C   UNL     1       0.314  14.099  18.780  0.00  0.00    +0.000 A 
ATOM     22  C   UNL     1       1.315  14.423  19.699  0.00  0.00    +0.000 A 
ATOM     23  C   UNL     1       1.664  13.531  20.707  0.00  0.00    +0.000 A 
ATOM     24  C   UNL     1       1.017  12.296  20.824  0.00  0.00    +0.000 A 
ATOM     25  C   UNL     1       0.008  11.981  19.899  0.00  0.00    +0.000 A 
ATOM     26  S   UNL     1      -0.964  10.566  19.787  0.00  0.00    +0.000 S 
ENDBRANCH   7  18
TORSDOF 2
ENDMDL
MODEL 9
REMARK VINA RESULT:      -6.9      7.402     11.119
REMARK  Name = 
REMARK  2 active torsions:
REMARK  status: ('A' for Active; 'I' for Inactive)
REMARK    1  A    between atoms: C_2  and  C_3
REMARK    2  A    between atoms: C_16  and  C_17
REMARK                            x       y       z     vdW  Elec       q    Type
REMARK                         _______ _______ _______ _____ _____    ______ ____
ROOT
ATOM      1  O   UNL     1      -0.089  10.674  23.081  0.00  0.00    +0.000 OA
ATOM      2  C   UNL     1      -0.695  11.474  22.363  0.00  0.00    +0.000 C 
ATOM      3  N   UNL     1      -0.471  11.484  20.987  0.00  0.00    +0.000 N 
ATOM      4  C   UNL     1       0.441  10.515  20.397  0.00  0.00    +0.000 C 
ATOM      5  C   UNL     1       1.085  11.273  19.251  0.00  0.00    +0.000 C 
ATOM      6  C   UNL     1      -0.055  12.129  18.716  0.00  0.00    +0.000 C 
ATOM      7  C   UNL     1      -0.908  12.430  19.956  0.00  0.00    +0.000 C 
ENDROOT
BRANCH   2   8
ATOM      8  C   UNL     1      -1.713  12.351  23.043  0.00  0.00    +0.000 A 
ATOM      9  C   UNL     1      -3.005  11.960  23.422  0.00  0.00    +0.000 A 
ATOM     10  C   UNL     1      -3.857  12.771  24.184  0.00  0.00    +0.000 A 
ATOM     11  C   UNL     1      -3.396  14.048  24.460  0.00  0.00    +0.000 A 
ATOM     12  N   UNL     1      -3.926  15.107  25.138  0.00  0.00    +0.000 N 
ATOM     13  N   UNL     1      -3.111  16.172  25.112  0.00  0.00    +0.000 NA
ATOM     14  N   UNL     1      -2.020  15.824  24.439  0.00  0.00    +0.000 NA
ATOM     15  C   UNL     1      -2.165  14.523  24.034  0.00  0.00    +0.000 A 
ATOM     16  C   UNL     1      -1.306  13.673  23.323  0.00  0.00    +0.000 A 
ATOM     17  H   UNL     1      -4.812  15.177  25.622  0.00  0.00    +0.000 HD
ENDBRANCH   2   8
BRANCH   7  18
ATOM     18  C   UNL     1      -2.389  12.376  19.651  0.00  0.00    +0.000 A 
ATOM     19  N   UNL     1      -3.283  13.054  20.345  0.00  0.00    +0.000 NA
ATOM     20  C   UNL     1      -4.563  12.751  19.909  0.00  0.00    +0.000 A 
ATOM     21  C   UNL     1      -5.763  13.267  20.442  0.00  0.00    +0.000 A 
ATOM     22  C   UNL     1      -6.989  12.864  19.909  0.00  0.00    +0.000 A 
ATOM     23  C   UNL     1      -7.038  11.954  18.859  0.00  0.00    +0.000 A 
ATOM     24  C   UNL     1      -5.863  11.430  18.312  0.00  0.00    +0.000 A 
ATOM     25  C   UNL     1      -4.633  11.846  18.850  0.00  0.00    +0.000 A 
ATOM     26  S   UNL     1      -3.037  11.395  18.394  0.00  0.00    +0.000 S 
ENDBRANCH   7  18
TORSDOF 2
ENDMDL
