MODEL 1
REMARK VINA RESULT:      -8.6      0.000      0.000
REMARK  Name = 
REMARK  2 active torsions:
REMARK  status: ('A' for Active; 'I' for Inactive)
REMARK    1  A    between atoms: C_2  and  C_3
REMARK    2  A    between atoms: C_3  and  C_4
REMARK                            x       y       z     vdW  Elec       q    Type
REMARK                         _______ _______ _______ _____ _____    ______ ____
ROOT
ATOM      1  O   UNL     1       4.363   2.408  17.860  0.00  0.00    +0.000 OA
ATOM      2  C   UNL     1       3.926   3.552  17.705  0.00  0.00    +0.000 C 
ATOM      3  N   UNL     1       3.424   4.251  18.783  0.00  0.00    +0.000 N 
ATOM      4  C   UNL     1       3.354   3.742  20.166  0.00  0.00    +0.000 C 
ATOM      5  C   UNL     1       2.453   4.756  20.900  0.00  0.00    +0.000 C 
ATOM      6  N   UNL     1       2.434   5.861  19.958  0.00  0.00    +0.000 N 
ATOM      7  C   UNL     1       2.961   5.534  18.750  0.00  0.00    +0.000 A 
ATOM      8  N   UNL     1       2.879   6.515  17.896  0.00  0.00    +0.000 NA
ATOM      9  C   UNL     1       2.275   7.531  18.620  0.00  0.00    +0.000 A 
ATOM     10  C   UNL     1       1.950   8.837  18.224  0.00  0.00    +0.000 A 
ATOM     11  C   UNL     1       1.304   9.677  19.138  0.00  0.00    +0.000 A 
ATOM     12  C   UNL     1       0.984   9.231  20.425  0.00  0.00    +0.000 A 
ATOM     13  C   UNL     1       1.313   7.937  20.853  0.00  0.00    +0.000 A 
ATOM     14  C   UNL     1       1.962   7.123  19.927  0.00  0.00    +0.000 A 
ENDROOT
BRANCH   2  15
ATOM     15  C   UNL     1       3.864   4.263  16.351  0.00  0.00    +0.000 C 
BRANCH  15  16
ATOM     16  C   UNL     1       5.188   4.698  15.804  0.00  0.00    +0.000 A 
ATOM     17  C   UNL     1       6.171   5.403  16.473  0.00  0.00    +0.000 A 
ATOM     18  N   UNL     1       7.234   5.565  15.626  0.00  0.00    +0.000 N 
ATOM     19  C   UNL     1       6.977   4.962  14.418  0.00  0.00    +0.000 A 
ATOM     20  C   UNL     1       7.767   4.875  13.265  0.00  0.00    +0.000 A 
ATOM     21  C   UNL     1       7.246   4.173  12.174  0.00  0.00    +0.000 A 
ATOM     22  C   UNL     1       5.992   3.570  12.240  0.00  0.00    +0.000 A 
ATOM     23  C   UNL     1       5.216   3.671  13.399  0.00  0.00    +0.000 A 
ATOM     24  C   UNL     1       5.709   4.391  14.506  0.00  0.00    +0.000 A 
ATOM     25  H   UNL     1       8.092   6.047  15.854  0.00  0.00    +0.000 HD
ENDBRANCH  15  16
ENDBRANCH   2  15
TORSDOF 2
ENDMDL
MODEL 2
REMARK VINA RESULT:      -8.1      3.853      5.434
REMARK  Name = 
REMARK  2 active torsions:
REMARK  status: ('A' for Active; 'I' for Inactive)
REMARK    1  A    between atoms: C_2  and  C_3
REMARK    2  A    between atoms: C_3  and  C_4
REMARK                            x       y       z     vdW  Elec       q    Type
REMARK                         _______ _______ _______ _____ _____    ______ ____
ROOT
ATOM      1  O   UNL     1       3.249   7.489  17.441  0.00  0.00    +0.000 OA
ATOM      2  C   UNL     1       2.671   7.675  18.516  0.00  0.00    +0.000 C 
ATOM      3  N   UNL     1       1.974   8.847  18.731  0.00  0.00    +0.000 N 
ATOM      4  C   UNL     1       1.847   9.949  17.758  0.00  0.00    +0.000 C 
ATOM      5  C   UNL     1       1.255  11.114  18.579  0.00  0.00    +0.000 C 
ATOM      6  N   UNL     1       0.803  10.425  19.774  0.00  0.00    +0.000 N 
ATOM      7  C   UNL     1       1.257   9.147  19.851  0.00  0.00    +0.000 A 
ATOM      8  N   UNL     1       0.895   8.563  20.959  0.00  0.00    +0.000 NA
ATOM      9  C   UNL     1       0.152   9.533  21.614  0.00  0.00    +0.000 A 
ATOM     10  C   UNL     1      -0.510   9.465  22.849  0.00  0.00    +0.000 A 
ATOM     11  C   UNL     1      -1.174  10.604  23.320  0.00  0.00    +0.000 A 
ATOM     12  C   UNL     1      -1.181  11.791  22.580  0.00  0.00    +0.000 A 
ATOM     13  C   UNL     1      -0.543  11.881  21.336  0.00  0.00    +0.000 A 
ATOM     14  C   UNL     1       0.104  10.732  20.886  0.00  0.00    +0.000 A 
ENDROOT
BRANCH   2  15
ATOM     15  C   UNL     1       2.703   6.685  19.682  0.00  0.00    +0.000 C 
BRANCH  15  16
ATOM     16  C   UNL     1       3.422   5.402  19.401  0.00  0.00    +0.000 A 
ATOM     17  C   UNL     1       4.786   5.185  19.460  0.00  0.00    +0.000 A 
ATOM     18  N   UNL     1       5.024   3.869  19.166  0.00  0.00    +0.000 N 
ATOM     19  C   UNL     1       3.840   3.210  18.935  0.00  0.00    +0.000 A 
ATOM     20  C   UNL     1       3.600   1.871  18.604  0.00  0.00    +0.000 A 
ATOM     21  C   UNL     1       2.269   1.472  18.443  0.00  0.00    +0.000 A 
ATOM     22  C   UNL     1       1.222   2.373  18.621  0.00  0.00    +0.000 A 
ATOM     23  C   UNL     1       1.481   3.708  18.948  0.00  0.00    +0.000 A 
ATOM     24  C   UNL     1       2.815   4.141  19.095  0.00  0.00    +0.000 A 
ATOM     25  H   UNL     1       5.935   3.435  19.134  0.00  0.00    +0.000 HD
ENDBRANCH  15  16
ENDBRANCH   2  15
TORSDOF 2
ENDMDL
MODEL 3
REMARK VINA RESULT:      -8.1      3.626      5.677
REMARK  Name = 
REMARK  2 active torsions:
REMARK  status: ('A' for Active; 'I' for Inactive)
REMARK    1  A    between atoms: C_2  and  C_3
REMARK    2  A    between atoms: C_3  and  C_4
REMARK                            x       y       z     vdW  Elec       q    Type
REMARK                         _______ _______ _______ _____ _____    ______ ____
ROOT
ATOM      1  O   UNL     1       3.142   7.130  17.738  0.00  0.00    +0.000 OA
ATOM      2  C   UNL     1       2.579   7.428  18.795  0.00  0.00    +0.000 C 
ATOM      3  N   UNL     1       1.858   8.601  18.886  0.00  0.00    +0.000 N 
ATOM      4  C   UNL     1       1.687   9.578  17.794  0.00  0.00    +0.000 C 
ATOM      5  C   UNL     1       1.082  10.818  18.485  0.00  0.00    +0.000 C 
ATOM      6  N   UNL     1       0.668  10.265  19.761  0.00  0.00    +0.000 N 
ATOM      7  C   UNL     1       1.153   9.015  19.978  0.00  0.00    +0.000 A 
ATOM      8  N   UNL     1       0.825   8.558  21.153  0.00  0.00    +0.000 NA
ATOM      9  C   UNL     1       0.072   9.581  21.706  0.00  0.00    +0.000 A 
ATOM     10  C   UNL     1      -0.568   9.645  22.953  0.00  0.00    +0.000 A 
ATOM     11  C   UNL     1      -1.250  10.817  23.301  0.00  0.00    +0.000 A 
ATOM     12  C   UNL     1      -1.299  11.908  22.427  0.00  0.00    +0.000 A 
ATOM     13  C   UNL     1      -0.685  11.865  21.168  0.00  0.00    +0.000 A 
ATOM     14  C   UNL     1      -0.018  10.685  20.843  0.00  0.00    +0.000 A 
ENDROOT
BRANCH   2  15
ATOM     15  C   UNL     1       2.655   6.582  20.068  0.00  0.00    +0.000 C 
BRANCH  15  16
ATOM     16  C   UNL     1       2.073   5.208  19.949  0.00  0.00    +0.000 A 
ATOM     17  C   UNL     1       0.874   4.766  20.475  0.00  0.00    +0.000 A 
ATOM     18  N   UNL     1       0.700   3.459  20.108  0.00  0.00    +0.000 N 
ATOM     19  C   UNL     1       1.754   3.037  19.332  0.00  0.00    +0.000 A 
ATOM     20  C   UNL     1       2.000   1.793  18.740  0.00  0.00    +0.000 A 
ATOM     21  C   UNL     1       3.165   1.656  17.978  0.00  0.00    +0.000 A 
ATOM     22  C   UNL     1       4.039   2.726  17.805  0.00  0.00    +0.000 A 
ATOM     23  C   UNL     1       3.779   3.961  18.407  0.00  0.00    +0.000 A 
ATOM     24  C   UNL     1       2.622   4.119  19.198  0.00  0.00    +0.000 A 
ATOM     25  H   UNL     1      -0.091   2.884  20.358  0.00  0.00    +0.000 HD
ENDBRANCH  15  16
ENDBRANCH   2  15
TORSDOF 2
ENDMDL
MODEL 4
REMARK VINA RESULT:      -8.0      1.944      7.435
REMARK  Name = 
REMARK  2 active torsions:
REMARK  status: ('A' for Active; 'I' for Inactive)
REMARK    1  A    between atoms: C_2  and  C_3
REMARK    2  A    between atoms: C_3  and  C_4
REMARK                            x       y       z     vdW  Elec       q    Type
REMARK                         _______ _______ _______ _____ _____    ______ ____
ROOT
ATOM      1  O   UNL     1       0.792   4.832  20.507  0.00  0.00    +0.000 OA
ATOM      2  C   UNL     1       1.807   5.214  19.919  0.00  0.00    +0.000 C 
ATOM      3  N   UNL     1       2.321   4.471  18.876  0.00  0.00    +0.000 N 
ATOM      4  C   UNL     1       1.751   3.207  18.373  0.00  0.00    +0.000 C 
ATOM      5  C   UNL     1       2.843   2.641  17.442  0.00  0.00    +0.000 C 
ATOM      6  N   UNL     1       3.700   3.798  17.265  0.00  0.00    +0.000 N 
ATOM      7  C   UNL     1       3.403   4.812  18.118  0.00  0.00    +0.000 A 
ATOM      8  N   UNL     1       4.221   5.818  17.989  0.00  0.00    +0.000 NA
ATOM      9  C   UNL     1       5.080   5.417  16.978  0.00  0.00    +0.000 A 
ATOM     10  C   UNL     1       6.155   6.105  16.396  0.00  0.00    +0.000 A 
ATOM     11  C   UNL     1       6.903   5.466  15.400  0.00  0.00    +0.000 A 
ATOM     12  C   UNL     1       6.590   4.167  14.986  0.00  0.00    +0.000 A 
ATOM     13  C   UNL     1       5.511   3.464  15.538  0.00  0.00    +0.000 A 
ATOM     14  C   UNL     1       4.778   4.124  16.522  0.00  0.00    +0.000 A 
ENDROOT
BRANCH   2  15
ATOM     15  C   UNL     1       2.587   6.476  20.297  0.00  0.00    +0.000 C 
BRANCH  15  16
ATOM     16  C   UNL     1       1.940   7.763  19.891  0.00  0.00    +0.000 A 
ATOM     17  C   UNL     1       1.955   8.340  18.635  0.00  0.00    +0.000 A 
ATOM     18  N   UNL     1       1.217   9.492  18.682  0.00  0.00    +0.000 N 
ATOM     19  C   UNL     1       0.699   9.675  19.943  0.00  0.00    +0.000 A 
ATOM     20  C   UNL     1      -0.107  10.702  20.449  0.00  0.00    +0.000 A 
ATOM     21  C   UNL     1      -0.503  10.615  21.787  0.00  0.00    +0.000 A 
ATOM     22  C   UNL     1      -0.121   9.536  22.581  0.00  0.00    +0.000 A 
ATOM     23  C   UNL     1       0.687   8.521  22.059  0.00  0.00    +0.000 A 
ATOM     24  C   UNL     1       1.118   8.595  20.718  0.00  0.00    +0.000 A 
ATOM     25  H   UNL     1       1.061  10.117  17.904  0.00  0.00    +0.000 HD
ENDBRANCH  15  16
ENDBRANCH   2  15
TORSDOF 2
ENDMDL
MODEL 5
REMARK VINA RESULT:      -7.7      2.869      7.638
REMARK  Name = 
REMARK  2 active torsions:
REMARK  status: ('A' for Active; 'I' for Inactive)
REMARK    1  A    between atoms: C_2  and  C_3
REMARK    2  A    between atoms: C_3  and  C_4
REMARK                            x       y       z     vdW  Elec       q    Type
REMARK                         _______ _______ _______ _____ _____    ______ ____
ROOT
ATOM      1  O   UNL     1       0.726   7.825  21.294  0.00  0.00    +0.000 OA
ATOM      2  C   UNL     1       1.489   7.820  20.324  0.00  0.00    +0.000 C 
ATOM      3  N   UNL     1       2.133   6.655  19.958  0.00  0.00    +0.000 N 
ATOM      4  C   UNL     1       1.992   5.357  20.645  0.00  0.00    +0.000 C 
ATOM      5  C   UNL     1       3.124   4.490  20.055  0.00  0.00    +0.000 C 
ATOM      6  N   UNL     1       3.509   5.270  18.892  0.00  0.00    +0.000 N 
ATOM      7  C   UNL     1       2.957   6.511  18.882  0.00  0.00    +0.000 A 
ATOM      8  N   UNL     1       3.362   7.219  17.866  0.00  0.00    +0.000 NA
ATOM      9  C   UNL     1       4.212   6.362  17.184  0.00  0.00    +0.000 A 
ATOM     10  C   UNL     1       4.926   6.574  15.996  0.00  0.00    +0.000 A 
ATOM     11  C   UNL     1       5.756   5.552  15.518  0.00  0.00    +0.000 A 
ATOM     12  C   UNL     1       5.876   4.341  16.207  0.00  0.00    +0.000 A 
ATOM     13  C   UNL     1       5.160   4.096  17.387  0.00  0.00    +0.000 A 
ATOM     14  C   UNL     1       4.336   5.126  17.837  0.00  0.00    +0.000 A 
ENDROOT
BRANCH   2  15
ATOM     15  C   UNL     1       1.815   9.061  19.491  0.00  0.00    +0.000 C 
BRANCH  15  16
ATOM     16  C   UNL     1       0.829  10.181  19.614  0.00  0.00    +0.000 A 
ATOM     17  C   UNL     1       0.888  11.246  20.493  0.00  0.00    +0.000 A 
ATOM     18  N   UNL     1      -0.187  12.059  20.256  0.00  0.00    +0.000 N 
ATOM     19  C   UNL     1      -0.944  11.559  19.223  0.00  0.00    +0.000 A 
ATOM     20  C   UNL     1      -2.120  12.050  18.643  0.00  0.00    +0.000 A 
ATOM     21  C   UNL     1      -2.667  11.329  17.577  0.00  0.00    +0.000 A 
ATOM     22  C   UNL     1      -2.054  10.173  17.102  0.00  0.00    +0.000 A 
ATOM     23  C   UNL     1      -0.881   9.695  17.696  0.00  0.00    +0.000 A 
ATOM     24  C   UNL     1      -0.320  10.391  18.786  0.00  0.00    +0.000 A 
ATOM     25  H   UNL     1      -0.395  12.912  20.755  0.00  0.00    +0.000 HD
ENDBRANCH  15  16
ENDBRANCH   2  15
TORSDOF 2
ENDMDL
MODEL 6
REMARK VINA RESULT:      -7.7      2.095      6.737
REMARK  Name = 
REMARK  2 active torsions:
REMARK  status: ('A' for Active; 'I' for Inactive)
REMARK    1  A    between atoms: C_2  and  C_3
REMARK    2  A    between atoms: C_3  and  C_4
REMARK                            x       y       z     vdW  Elec       q    Type
REMARK                         _______ _______ _______ _____ _____    ______ ____
ROOT
ATOM      1  O   UNL     1       0.525   4.370  20.468  0.00  0.00    +0.000 OA
ATOM      2  C   UNL     1       1.593   4.825  20.050  0.00  0.00    +0.000 C 
ATOM      3  N   UNL     1       2.202   4.257  18.949  0.00  0.00    +0.000 N 
ATOM      4  C   UNL     1       1.677   3.106  18.189  0.00  0.00    +0.000 C 
ATOM      5  C   UNL     1       2.851   2.683  17.282  0.00  0.00    +0.000 C 
ATOM      6  N   UNL     1       3.726   3.837  17.383  0.00  0.00    +0.000 N 
ATOM      7  C   UNL     1       3.352   4.699  18.363  0.00  0.00    +0.000 A 
ATOM      8  N   UNL     1       4.182   5.696  18.483  0.00  0.00    +0.000 NA
ATOM      9  C   UNL     1       5.132   5.453  17.503  0.00  0.00    +0.000 A 
ATOM     10  C   UNL     1       6.260   6.207  17.148  0.00  0.00    +0.000 A 
ATOM     11  C   UNL     1       7.097   5.730  16.132  0.00  0.00    +0.000 A 
ATOM     12  C   UNL     1       6.821   4.525  15.478  0.00  0.00    +0.000 A 
ATOM     13  C   UNL     1       5.691   3.761  15.801  0.00  0.00    +0.000 A 
ATOM     14  C   UNL     1       4.870   4.261  16.810  0.00  0.00    +0.000 A 
ENDROOT
BRANCH   2  15
ATOM     15  C   UNL     1       2.338   5.990  20.706  0.00  0.00    +0.000 C 
BRANCH  15  16
ATOM     16  C   UNL     1       1.591   7.287  20.723  0.00  0.00    +0.000 A 
ATOM     17  C   UNL     1       0.817   7.785  21.754  0.00  0.00    +0.000 A 
ATOM     18  N   UNL     1       0.340   9.013  21.379  0.00  0.00    +0.000 N 
ATOM     19  C   UNL     1       0.803   9.341  20.127  0.00  0.00    +0.000 A 
ATOM     20  C   UNL     1       0.577  10.484  19.350  0.00  0.00    +0.000 A 
ATOM     21  C   UNL     1       1.202  10.553  18.101  0.00  0.00    +0.000 A 
ATOM     22  C   UNL     1       2.031   9.527  17.655  0.00  0.00    +0.000 A 
ATOM     23  C   UNL     1       2.242   8.391  18.443  0.00  0.00    +0.000 A 
ATOM     24  C   UNL     1       1.607   8.286  19.697  0.00  0.00    +0.000 A 
ATOM     25  H   UNL     1      -0.256   9.603  21.941  0.00  0.00    +0.000 HD
ENDBRANCH  15  16
ENDBRANCH   2  15
TORSDOF 2
ENDMDL
MODEL 7
REMARK VINA RESULT:      -7.7      3.242      7.746
REMARK  Name = 
REMARK  2 active torsions:
REMARK  status: ('A' for Active; 'I' for Inactive)
REMARK    1  A    between atoms: C_2  and  C_3
REMARK    2  A    between atoms: C_3  and  C_4
REMARK                            x       y       z     vdW  Elec       q    Type
REMARK                         _______ _______ _______ _____ _____    ______ ____
ROOT
ATOM      1  O   UNL     1       2.540   9.549  17.450  0.00  0.00    +0.000 OA
ATOM      2  C   UNL     1       2.293   8.637  18.244  0.00  0.00    +0.000 C 
ATOM      3  N   UNL     1       2.992   7.449  18.170  0.00  0.00    +0.000 N 
ATOM      4  C   UNL     1       4.052   7.148  17.189  0.00  0.00    +0.000 C 
ATOM      5  C   UNL     1       4.279   5.629  17.328  0.00  0.00    +0.000 C 
ATOM      6  N   UNL     1       3.599   5.348  18.580  0.00  0.00    +0.000 N 
ATOM      7  C   UNL     1       2.846   6.390  19.017  0.00  0.00    +0.000 A 
ATOM      8  N   UNL     1       2.193   6.100  20.107  0.00  0.00    +0.000 NA
ATOM      9  C   UNL     1       2.572   4.796  20.381  0.00  0.00    +0.000 A 
ATOM     10  C   UNL     1       2.202   3.965  21.449  0.00  0.00    +0.000 A 
ATOM     11  C   UNL     1       2.700   2.658  21.489  0.00  0.00    +0.000 A 
ATOM     12  C   UNL     1       3.551   2.180  20.487  0.00  0.00    +0.000 A 
ATOM     13  C   UNL     1       3.951   2.994  19.419  0.00  0.00    +0.000 A 
ATOM     14  C   UNL     1       3.448   4.294  19.406  0.00  0.00    +0.000 A 
ENDROOT
BRANCH   2  15
ATOM     15  C   UNL     1       1.206   8.715  19.318  0.00  0.00    +0.000 C 
BRANCH  15  16
ATOM     16  C   UNL     1       0.408   9.981  19.318  0.00  0.00    +0.000 A 
ATOM     17  C   UNL     1       0.631  11.102  20.095  0.00  0.00    +0.000 A 
ATOM     18  N   UNL     1      -0.303  12.047  19.763  0.00  0.00    +0.000 N 
ATOM     19  C   UNL     1      -1.125  11.576  18.768  0.00  0.00    +0.000 A 
ATOM     20  C   UNL     1      -2.207  12.187  18.123  0.00  0.00    +0.000 A 
ATOM     21  C   UNL     1      -2.857  11.462  17.119  0.00  0.00    +0.000 A 
ATOM     22  C   UNL     1      -2.431  10.185  16.765  0.00  0.00    +0.000 A 
ATOM     23  C   UNL     1      -1.350   9.588  17.422  0.00  0.00    +0.000 A 
ATOM     24  C   UNL     1      -0.691  10.289  18.453  0.00  0.00    +0.000 A 
ATOM     25  H   UNL     1      -0.376  12.965  20.178  0.00  0.00    +0.000 HD
ENDBRANCH  15  16
ENDBRANCH   2  15
TORSDOF 2
ENDMDL
MODEL 8
REMARK VINA RESULT:      -7.5      2.693      7.970
REMARK  Name = 
REMARK  2 active torsions:
REMARK  status: ('A' for Active; 'I' for Inactive)
REMARK    1  A    between atoms: C_2  and  C_3
REMARK    2  A    between atoms: C_3  and  C_4
REMARK                            x       y       z     vdW  Elec       q    Type
REMARK                         _______ _______ _______ _____ _____    ______ ____
ROOT
ATOM      1  O   UNL     1       0.695   7.678  21.499  0.00  0.00    +0.000 OA
ATOM      2  C   UNL     1       1.457   7.709  20.529  0.00  0.00    +0.000 C 
ATOM      3  N   UNL     1       2.050   6.546  20.080  0.00  0.00    +0.000 N 
ATOM      4  C   UNL     1       1.854   5.210  20.674  0.00  0.00    +0.000 C 
ATOM      5  C   UNL     1       2.948   4.340  20.020  0.00  0.00    +0.000 C 
ATOM      6  N   UNL     1       3.365   5.182  18.914  0.00  0.00    +0.000 N 
ATOM      7  C   UNL     1       2.867   6.443  18.993  0.00  0.00    +0.000 A 
ATOM      8  N   UNL     1       3.301   7.204  18.027  0.00  0.00    +0.000 NA
ATOM      9  C   UNL     1       4.113   6.361  17.285  0.00  0.00    +0.000 A 
ATOM     10  C   UNL     1       4.835   6.625  16.111  0.00  0.00    +0.000 A 
ATOM     11  C   UNL     1       5.620   5.605  15.560  0.00  0.00    +0.000 A 
ATOM     12  C   UNL     1       5.689   4.344  16.161  0.00  0.00    +0.000 A 
ATOM     13  C   UNL     1       4.964   4.048  17.324  0.00  0.00    +0.000 A 
ATOM     14  C   UNL     1       4.184   5.078  17.848  0.00  0.00    +0.000 A 
ENDROOT
BRANCH   2  15
ATOM     15  C   UNL     1       1.835   8.991  19.784  0.00  0.00    +0.000 C 
BRANCH  15  16
ATOM     16  C   UNL     1       0.689   9.707  19.138  0.00  0.00    +0.000 A 
ATOM     17  C   UNL     1       0.273   9.593  17.825  0.00  0.00    +0.000 A 
ATOM     18  N   UNL     1      -0.827  10.389  17.653  0.00  0.00    +0.000 N 
ATOM     19  C   UNL     1      -1.155  11.011  18.834  0.00  0.00    +0.000 A 
ATOM     20  C   UNL     1      -2.192  11.905  19.128  0.00  0.00    +0.000 A 
ATOM     21  C   UNL     1      -2.294  12.370  20.442  0.00  0.00    +0.000 A 
ATOM     22  C   UNL     1      -1.403  11.946  21.425  0.00  0.00    +0.000 A 
ATOM     23  C   UNL     1      -0.372  11.055  21.113  0.00  0.00    +0.000 A 
ATOM     24  C   UNL     1      -0.233  10.587  19.790  0.00  0.00    +0.000 A 
ATOM     25  H   UNL     1      -1.337  10.499  16.788  0.00  0.00    +0.000 HD
ENDBRANCH  15  16
ENDBRANCH   2  15
TORSDOF 2
ENDMDL
MODEL 9
REMARK VINA RESULT:      -7.4      1.972      7.427
REMARK  Name = 
REMARK  2 active torsions:
REMARK  status: ('A' for Active; 'I' for Inactive)
REMARK    1  A    between atoms: C_2  and  C_3
REMARK    2  A    between atoms: C_3  and  C_4
REMARK                            x       y       z     vdW  Elec       q    Type
REMARK                         _______ _______ _______ _____ _____    ______ ____
ROOT
ATOM      1  O   UNL     1       1.130   5.502  20.865  0.00  0.00    +0.000 OA
ATOM      2  C   UNL     1       1.935   5.836  19.991  0.00  0.00    +0.000 C 
ATOM      3  N   UNL     1       2.537   4.876  19.203  0.00  0.00    +0.000 N 
ATOM      4  C   UNL     1       2.303   3.423  19.310  0.00  0.00    +0.000 C 
ATOM      5  C   UNL     1       3.417   2.795  18.447  0.00  0.00    +0.000 C 
ATOM      6  N   UNL     1       3.891   3.947  17.702  0.00  0.00    +0.000 N 
ATOM      7  C   UNL     1       3.401   5.121  18.177  0.00  0.00    +0.000 A 
ATOM      8  N   UNL     1       3.884   6.149  17.538  0.00  0.00    +0.000 NA
ATOM      9  C   UNL     1       4.722   5.583  16.590  0.00  0.00    +0.000 A 
ATOM     10  C   UNL     1       5.498   6.206  15.601  0.00  0.00    +0.000 A 
ATOM     11  C   UNL     1       6.298   5.409  14.772  0.00  0.00    +0.000 A 
ATOM     12  C   UNL     1       6.328   4.019  14.921  0.00  0.00    +0.000 A 
ATOM     13  C   UNL     1       5.549   3.370  15.889  0.00  0.00    +0.000 A 
ATOM     14  C   UNL     1       4.756   4.184  16.696  0.00  0.00    +0.000 A 
ENDROOT
BRANCH   2  15
ATOM     15  C   UNL     1       2.357   7.284  19.731  0.00  0.00    +0.000 C 
BRANCH  15  16
ATOM     16  C   UNL     1       1.547   8.317  20.450  0.00  0.00    +0.000 A 
ATOM     17  C   UNL     1       1.505   8.537  21.814  0.00  0.00    +0.000 A 
ATOM     18  N   UNL     1       0.668   9.594  22.053  0.00  0.00    +0.000 N 
ATOM     19  C   UNL     1       0.173  10.087  20.869  0.00  0.00    +0.000 A 
ATOM     20  C   UNL     1      -0.707  11.149  20.629  0.00  0.00    +0.000 A 
ATOM     21  C   UNL     1      -1.026  11.439  19.299  0.00  0.00    +0.000 A 
ATOM     22  C   UNL     1      -0.474  10.705  18.252  0.00  0.00    +0.000 A 
ATOM     23  C   UNL     1       0.401   9.646  18.510  0.00  0.00    +0.000 A 
ATOM     24  C   UNL     1       0.722   9.319  19.844  0.00  0.00    +0.000 A 
ATOM     25  H   UNL     1       0.451   9.971  22.964  0.00  0.00    +0.000 HD
ENDBRANCH  15  16
ENDBRANCH   2  15
TORSDOF 2
ENDMDL
