MODEL 1
REMARK VINA RESULT:      -9.3      0.000      0.000
REMARK  Name = 
REMARK  4 active torsions:
REMARK  status: ('A' for Active; 'I' for Inactive)
REMARK    1  A    between atoms: C_2  and  C_3
REMARK    2  A    between atoms: C_3  and  C_4
REMARK    3  A    between atoms: N_14  and  C_15
REMARK    4  A    between atoms: C_18  and  C_19
REMARK                            x       y       z     vdW  Elec       q    Type
REMARK                         _______ _______ _______ _____ _____    ______ ____
ROOT
ATOM      1  O   UNL     1       8.527   7.383  18.867  0.00  0.00    +0.000 OA
ATOM      2  C   UNL     1       8.003   8.144  18.060  0.00  0.00    +0.000 C 
ATOM      3  N   UNL     1       6.967   7.787  17.233  0.00  0.00    +0.000 N 
ATOM      4  H   UNL     1       6.536   8.512  16.671  0.00  0.00    +0.000 HD
ENDROOT
BRANCH   3   5
ATOM      5  C   UNL     1       6.366   6.470  17.205  0.00  0.00    +0.000 C 
ATOM      6  C   UNL     1       7.141   5.434  16.395  0.00  0.00    +0.000 C 
ATOM      7  C   UNL     1       6.107   4.390  15.964  0.00  0.00    +0.000 C 
ATOM      8  C   UNL     1       4.723   5.045  16.113  0.00  0.00    +0.000 C 
ATOM      9  C   UNL     1       5.005   6.497  16.513  0.00  0.00    +0.000 C 
BRANCH   8  10
ATOM     10  C   UNL     1       3.822   4.303  17.085  0.00  0.00    +0.000 A 
ATOM     11  C   UNL     1       2.753   4.925  17.750  0.00  0.00    +0.000 A 
ATOM     12  C   UNL     1       1.952   4.221  18.654  0.00  0.00    +0.000 A 
ATOM     13  C   UNL     1       2.215   2.881  18.916  0.00  0.00    +0.000 A 
ATOM     14  C   UNL     1       3.272   2.257  18.266  0.00  0.00    +0.000 A 
ATOM     15  F   UNL     1       3.533   0.968  18.525  0.00  0.00    +0.000 F 
ATOM     16  C   UNL     1       4.068   2.948  17.357  0.00  0.00    +0.000 A 
ENDBRANCH   8  10
ENDBRANCH   3   5
BRANCH   2  17
ATOM     17  C   UNL     1       8.433   9.596  17.929  0.00  0.00    +0.000 C 
BRANCH  17  18
ATOM     18  C   UNL     1       9.530  10.023  18.903  0.00  0.00    +0.000 C 
ATOM     19  N   UNL     1       9.064  10.135  20.279  0.00  0.00    +0.000 N 
ATOM     20  C   UNL     1       9.247  11.395  20.801  0.00  0.00    +0.000 C 
ATOM     21  O   UNL     1       8.945  11.762  21.917  0.00  0.00    +0.000 OA
ATOM     22  C   UNL     1       9.883  12.205  19.757  0.00  0.00    +0.000 A 
ATOM     23  C   UNL     1      10.262  13.532  19.792  0.00  0.00    +0.000 A 
ATOM     24  C   UNL     1      10.868  14.054  18.647  0.00  0.00    +0.000 A 
ATOM     25  C   UNL     1      11.086  13.242  17.518  0.00  0.00    +0.000 A 
ATOM     26  C   UNL     1      10.693  11.899  17.508  0.00  0.00    +0.000 A 
ATOM     27  C   UNL     1      10.082  11.394  18.641  0.00  0.00    +0.000 A 
ATOM     28  H   UNL     1       8.786   9.365  20.873  0.00  0.00    +0.000 HD
ENDBRANCH  17  18
ENDBRANCH   2  17
TORSDOF 4
ENDMDL
MODEL 2
REMARK VINA RESULT:      -9.1      0.923      1.313
REMARK  Name = 
REMARK  4 active torsions:
REMARK  status: ('A' for Active; 'I' for Inactive)
REMARK    1  A    between atoms: C_2  and  C_3
REMARK    2  A    between atoms: C_3  and  C_4
REMARK    3  A    between atoms: N_14  and  C_15
REMARK    4  A    between atoms: C_18  and  C_19
REMARK                            x       y       z     vdW  Elec       q    Type
REMARK                         _______ _______ _______ _____ _____    ______ ____
ROOT
ATOM      1  O   UNL     1       8.519   7.366  18.889  0.00  0.00    +0.000 OA
ATOM      2  C   UNL     1       8.000   8.121  18.072  0.00  0.00    +0.000 C 
ATOM      3  N   UNL     1       6.974   7.753  17.236  0.00  0.00    +0.000 N 
ATOM      4  H   UNL     1       6.546   8.472  16.666  0.00  0.00    +0.000 HD
ENDROOT
BRANCH   3   5
ATOM      5  C   UNL     1       6.382   6.433  17.209  0.00  0.00    +0.000 C 
ATOM      6  C   UNL     1       7.068   5.445  16.268  0.00  0.00    +0.000 C 
ATOM      7  C   UNL     1       5.999   4.413  15.902  0.00  0.00    +0.000 C 
ATOM      8  C   UNL     1       4.636   5.044  16.234  0.00  0.00    +0.000 C 
ATOM      9  C   UNL     1       4.952   6.478  16.673  0.00  0.00    +0.000 C 
BRANCH   8  10
ATOM     10  C   UNL     1       3.852   4.245  17.261  0.00  0.00    +0.000 A 
ATOM     11  C   UNL     1       3.978   2.852  17.391  0.00  0.00    +0.000 A 
ATOM     12  C   UNL     1       3.229   2.141  18.333  0.00  0.00    +0.000 A 
ATOM     13  C   UNL     1       2.332   2.812  19.155  0.00  0.00    +0.000 A 
ATOM     14  C   UNL     1       2.197   4.188  19.033  0.00  0.00    +0.000 A 
ATOM     15  F   UNL     1       1.325   4.836  19.818  0.00  0.00    +0.000 F 
ATOM     16  C   UNL     1       2.946   4.906  18.105  0.00  0.00    +0.000 A 
ENDBRANCH   8  10
ENDBRANCH   3   5
BRANCH   2  17
ATOM     17  C   UNL     1       8.422   9.575  17.938  0.00  0.00    +0.000 C 
BRANCH  17  18
ATOM     18  C   UNL     1       9.528  10.005  18.901  0.00  0.00    +0.000 C 
ATOM     19  N   UNL     1       9.071  10.132  20.278  0.00  0.00    +0.000 N 
ATOM     20  C   UNL     1       9.263  11.395  20.788  0.00  0.00    +0.000 C 
ATOM     21  O   UNL     1       8.970  11.775  21.903  0.00  0.00    +0.000 OA
ATOM     22  C   UNL     1       9.897  12.193  19.732  0.00  0.00    +0.000 A 
ATOM     23  C   UNL     1      10.283  13.519  19.753  0.00  0.00    +0.000 A 
ATOM     24  C   UNL     1      10.883  14.027  18.599  0.00  0.00    +0.000 A 
ATOM     25  C   UNL     1      11.091  13.204  17.477  0.00  0.00    +0.000 A 
ATOM     26  C   UNL     1      10.692  11.862  17.481  0.00  0.00    +0.000 A 
ATOM     27  C   UNL     1      10.084  11.370  18.623  0.00  0.00    +0.000 A 
ATOM     28  H   UNL     1       8.793   9.368  20.881  0.00  0.00    +0.000 HD
ENDBRANCH  17  18
ENDBRANCH   2  17
TORSDOF 4
ENDMDL
MODEL 3
REMARK VINA RESULT:      -8.4      6.000      8.612
REMARK  Name = 
REMARK  4 active torsions:
REMARK  status: ('A' for Active; 'I' for Inactive)
REMARK    1  A    between atoms: C_2  and  C_3
REMARK    2  A    between atoms: C_3  and  C_4
REMARK    3  A    between atoms: N_14  and  C_15
REMARK    4  A    between atoms: C_18  and  C_19
REMARK                            x       y       z     vdW  Elec       q    Type
REMARK                         _______ _______ _______ _____ _____    ______ ____
ROOT
ATOM      1  O   UNL     1       2.255   7.591  19.594  0.00  0.00    +0.000 OA
ATOM      2  C   UNL     1       2.404   7.980  18.440  0.00  0.00    +0.000 C 
ATOM      3  N   UNL     1       1.594   8.910  17.836  0.00  0.00    +0.000 N 
ATOM      4  H   UNL     1       1.855   9.240  16.915  0.00  0.00    +0.000 HD
ENDROOT
BRANCH   3   5
ATOM      5  C   UNL     1       0.463   9.543  18.480  0.00  0.00    +0.000 C 
ATOM      6  C   UNL     1      -0.705   9.861  17.550  0.00  0.00    +0.000 C 
ATOM      7  C   UNL     1      -1.453  11.022  18.209  0.00  0.00    +0.000 C 
ATOM      8  C   UNL     1      -0.487  11.657  19.225  0.00  0.00    +0.000 C 
ATOM      9  C   UNL     1       0.840  10.915  19.036  0.00  0.00    +0.000 C 
BRANCH   8  10
ATOM     10  C   UNL     1      -1.019  11.615  20.647  0.00  0.00    +0.000 A 
ATOM     11  C   UNL     1      -2.058  12.451  21.090  0.00  0.00    +0.000 A 
ATOM     12  C   UNL     1      -2.513  12.403  22.411  0.00  0.00    +0.000 A 
ATOM     13  C   UNL     1      -1.929  11.524  23.315  0.00  0.00    +0.000 A 
ATOM     14  C   UNL     1      -0.899  10.696  22.889  0.00  0.00    +0.000 A 
ATOM     15  F   UNL     1      -0.328   9.856  23.762  0.00  0.00    +0.000 F 
ATOM     16  C   UNL     1      -0.446  10.730  21.573  0.00  0.00    +0.000 A 
ENDBRANCH   8  10
ENDBRANCH   3   5
BRANCH   2  17
ATOM     17  C   UNL     1       3.549   7.491  17.568  0.00  0.00    +0.000 C 
BRANCH  17  18
ATOM     18  C   UNL     1       3.942   6.032  17.797  0.00  0.00    +0.000 C 
ATOM     19  N   UNL     1       4.550   5.799  19.099  0.00  0.00    +0.000 N 
ATOM     20  C   UNL     1       5.817   5.271  19.007  0.00  0.00    +0.000 C 
ATOM     21  O   UNL     1       6.548   4.987  19.933  0.00  0.00    +0.000 OA
ATOM     22  C   UNL     1       6.113   5.108  17.579  0.00  0.00    +0.000 A 
ATOM     23  C   UNL     1       7.255   4.624  16.974  0.00  0.00    +0.000 A 
ATOM     24  C   UNL     1       7.263   4.564  15.579  0.00  0.00    +0.000 A 
ATOM     25  C   UNL     1       6.138   4.972  14.838  0.00  0.00    +0.000 A 
ATOM     26  C   UNL     1       4.991   5.458  15.475  0.00  0.00    +0.000 A 
ATOM     27  C   UNL     1       4.997   5.528  16.857  0.00  0.00    +0.000 A 
ATOM     28  H   UNL     1       4.075   5.849  19.991  0.00  0.00    +0.000 HD
ENDBRANCH  17  18
ENDBRANCH   2  17
TORSDOF 4
ENDMDL
MODEL 4
REMARK VINA RESULT:      -8.4      5.796      8.407
REMARK  Name = 
REMARK  4 active torsions:
REMARK  status: ('A' for Active; 'I' for Inactive)
REMARK    1  A    between atoms: C_2  and  C_3
REMARK    2  A    between atoms: C_3  and  C_4
REMARK    3  A    between atoms: N_14  and  C_15
REMARK    4  A    between atoms: C_18  and  C_19
REMARK                            x       y       z     vdW  Elec       q    Type
REMARK                         _______ _______ _______ _____ _____    ______ ____
ROOT
ATOM      1  O   UNL     1       1.894   9.215  17.329  0.00  0.00    +0.000 OA
ATOM      2  C   UNL     1       1.636   8.934  18.495  0.00  0.00    +0.000 C 
ATOM      3  N   UNL     1       1.941   7.727  19.077  0.00  0.00    +0.000 N 
ATOM      4  H   UNL     1       1.778   7.625  20.071  0.00  0.00    +0.000 HD
ENDROOT
BRANCH   3   5
ATOM      5  C   UNL     1       2.599   6.638  18.388  0.00  0.00    +0.000 C 
ATOM      6  C   UNL     1       1.666   5.521  17.925  0.00  0.00    +0.000 C 
ATOM      7  C   UNL     1       2.538   4.267  17.830  0.00  0.00    +0.000 C 
ATOM      8  C   UNL     1       3.806   4.541  18.658  0.00  0.00    +0.000 C 
ATOM      9  C   UNL     1       3.574   5.907  19.310  0.00  0.00    +0.000 C 
BRANCH   8  10
ATOM     10  C   UNL     1       5.077   4.462  17.830  0.00  0.00    +0.000 A 
ATOM     11  C   UNL     1       6.331   4.852  18.332  0.00  0.00    +0.000 A 
ATOM     12  C   UNL     1       7.481   4.786  17.540  0.00  0.00    +0.000 A 
ATOM     13  C   UNL     1       7.394   4.338  16.227  0.00  0.00    +0.000 A 
ATOM     14  C   UNL     1       6.161   3.954  15.720  0.00  0.00    +0.000 A 
ATOM     15  F   UNL     1       6.074   3.531  14.451  0.00  0.00    +0.000 F 
ATOM     16  C   UNL     1       5.011   4.007  16.505  0.00  0.00    +0.000 A 
ENDBRANCH   8  10
ENDBRANCH   3   5
BRANCH   2  17
ATOM     17  C   UNL     1       0.982   9.932  19.437  0.00  0.00    +0.000 C 
BRANCH  17  18
ATOM     18  C   UNL     1       0.319  11.120  18.741  0.00  0.00    +0.000 C 
ATOM     19  N   UNL     1       0.140  12.270  19.616  0.00  0.00    +0.000 N 
ATOM     20  C   UNL     1      -1.177  12.651  19.730  0.00  0.00    +0.000 C 
ATOM     21  O   UNL     1      -1.606  13.571  20.396  0.00  0.00    +0.000 OA
ATOM     22  C   UNL     1      -1.963  11.742  18.888  0.00  0.00    +0.000 A 
ATOM     23  C   UNL     1      -3.326  11.711  18.672  0.00  0.00    +0.000 A 
ATOM     24  C   UNL     1      -3.813  10.736  17.799  0.00  0.00    +0.000 A 
ATOM     25  C   UNL     1      -2.934   9.839  17.164  0.00  0.00    +0.000 A 
ATOM     26  C   UNL     1      -1.555   9.892  17.398  0.00  0.00    +0.000 A 
ATOM     27  C   UNL     1      -1.082  10.852  18.275  0.00  0.00    +0.000 A 
ATOM     28  H   UNL     1       0.880  12.852  19.985  0.00  0.00    +0.000 HD
ENDBRANCH  17  18
ENDBRANCH   2  17
TORSDOF 4
ENDMDL
MODEL 5
REMARK VINA RESULT:      -8.3      5.867      7.974
REMARK  Name = 
REMARK  4 active torsions:
REMARK  status: ('A' for Active; 'I' for Inactive)
REMARK    1  A    between atoms: C_2  and  C_3
REMARK    2  A    between atoms: C_3  and  C_4
REMARK    3  A    between atoms: N_14  and  C_15
REMARK    4  A    between atoms: C_18  and  C_19
REMARK                            x       y       z     vdW  Elec       q    Type
REMARK                         _______ _______ _______ _____ _____    ______ ____
ROOT
ATOM      1  O   UNL     1       2.018   8.956  17.440  0.00  0.00    +0.000 OA
ATOM      2  C   UNL     1       1.938   8.561  18.599  0.00  0.00    +0.000 C 
ATOM      3  N   UNL     1       2.322   7.308  19.008  0.00  0.00    +0.000 N 
ATOM      4  H   UNL     1       2.310   7.108  20.000  0.00  0.00    +0.000 HD
ENDROOT
BRANCH   3   5
ATOM      5  C   UNL     1       2.865   6.297  18.126  0.00  0.00    +0.000 C 
ATOM      6  C   UNL     1       1.987   5.060  17.957  0.00  0.00    +0.000 C 
ATOM      7  C   UNL     1       2.939   3.926  17.568  0.00  0.00    +0.000 C 
ATOM      8  C   UNL     1       4.356   4.379  17.961  0.00  0.00    +0.000 C 
ATOM      9  C   UNL     1       4.166   5.718  18.680  0.00  0.00    +0.000 C 
BRANCH   8  10
ATOM     10  C   UNL     1       5.302   4.447  16.775  0.00  0.00    +0.000 A 
ATOM     11  C   UNL     1       6.642   4.849  16.899  0.00  0.00    +0.000 A 
ATOM     12  C   UNL     1       7.485   4.920  15.786  0.00  0.00    +0.000 A 
ATOM     13  C   UNL     1       6.996   4.599  14.525  0.00  0.00    +0.000 A 
ATOM     14  C   UNL     1       5.673   4.203  14.390  0.00  0.00    +0.000 A 
ATOM     15  F   UNL     1       5.197   3.902  13.174  0.00  0.00    +0.000 F 
ATOM     16  C   UNL     1       4.829   4.120  15.495  0.00  0.00    +0.000 A 
ENDBRANCH   8  10
ENDBRANCH   3   5
BRANCH   2  17
ATOM     17  C   UNL     1       1.435   9.456  19.720  0.00  0.00    +0.000 C 
BRANCH  17  18
ATOM     18  C   UNL     1       0.020   9.994  19.516  0.00  0.00    +0.000 C 
ATOM     19  N   UNL     1      -0.085  10.922  18.398  0.00  0.00    +0.000 N 
ATOM     20  C   UNL     1      -0.550  12.160  18.777  0.00  0.00    +0.000 C 
ATOM     21  O   UNL     1      -0.727  13.116  18.052  0.00  0.00    +0.000 OA
ATOM     22  C   UNL     1      -0.800  12.102  20.222  0.00  0.00    +0.000 A 
ATOM     23  C   UNL     1      -1.265  13.089  21.068  0.00  0.00    +0.000 A 
ATOM     24  C   UNL     1      -1.425  12.754  22.414  0.00  0.00    +0.000 A 
ATOM     25  C   UNL     1      -1.133  11.455  22.869  0.00  0.00    +0.000 A 
ATOM     26  C   UNL     1      -0.664  10.471  21.991  0.00  0.00    +0.000 A 
ATOM     27  C   UNL     1      -0.494  10.815  20.662  0.00  0.00    +0.000 A 
ATOM     28  H   UNL     1       0.003  10.681  17.420  0.00  0.00    +0.000 HD
ENDBRANCH  17  18
ENDBRANCH   2  17
TORSDOF 4
ENDMDL
MODEL 6
REMARK VINA RESULT:      -8.2      6.763     10.070
REMARK  Name = 
REMARK  4 active torsions:
REMARK  status: ('A' for Active; 'I' for Inactive)
REMARK    1  A    between atoms: C_2  and  C_3
REMARK    2  A    between atoms: C_3  and  C_4
REMARK    3  A    between atoms: N_14  and  C_15
REMARK    4  A    between atoms: C_18  and  C_19
REMARK                            x       y       z     vdW  Elec       q    Type
REMARK                         _______ _______ _______ _____ _____    ______ ____
ROOT
ATOM      1  O   UNL     1       2.487   8.284  17.585  0.00  0.00    +0.000 OA
ATOM      2  C   UNL     1       2.180   8.022  18.744  0.00  0.00    +0.000 C 
ATOM      3  N   UNL     1       1.199   8.683  19.443  0.00  0.00    +0.000 N 
ATOM      4  H   UNL     1       0.951   8.331  20.360  0.00  0.00    +0.000 HD
ENDROOT
BRANCH   3   5
ATOM      5  C   UNL     1       0.410   9.770  18.905  0.00  0.00    +0.000 C 
ATOM      6  C   UNL     1       1.122  11.120  18.873  0.00  0.00    +0.000 C 
ATOM      7  C   UNL     1       0.012  12.173  18.901  0.00  0.00    +0.000 C 
ATOM      8  C   UNL     1      -1.258  11.470  19.408  0.00  0.00    +0.000 C 
ATOM      9  C   UNL     1      -0.813  10.050  19.776  0.00  0.00    +0.000 C 
BRANCH   8  10
ATOM     10  C   UNL     1      -2.398  11.517  18.405  0.00  0.00    +0.000 A 
ATOM     11  C   UNL     1      -3.713  11.847  18.771  0.00  0.00    +0.000 A 
ATOM     12  C   UNL     1      -4.746  11.864  17.829  0.00  0.00    +0.000 A 
ATOM     13  C   UNL     1      -4.480  11.540  16.503  0.00  0.00    +0.000 A 
ATOM     14  C   UNL     1      -3.184  11.210  16.131  0.00  0.00    +0.000 A 
ATOM     15  F   UNL     1      -2.928  10.887  14.856  0.00  0.00    +0.000 F 
ATOM     16  C   UNL     1      -2.148  11.200  17.061  0.00  0.00    +0.000 A 
ENDBRANCH   8  10
ENDBRANCH   3   5
BRANCH   2  17
ATOM     17  C   UNL     1       2.840   6.891  19.515  0.00  0.00    +0.000 C 
BRANCH  17  18
ATOM     18  C   UNL     1       1.919   5.711  19.823  0.00  0.00    +0.000 C 
ATOM     19  N   UNL     1       2.045   5.227  21.190  0.00  0.00    +0.000 N 
ATOM     20  C   UNL     1       2.410   3.902  21.254  0.00  0.00    +0.000 C 
ATOM     21  O   UNL     1       2.588   3.252  22.262  0.00  0.00    +0.000 OA
ATOM     22  C   UNL     1       2.533   3.423  19.872  0.00  0.00    +0.000 A 
ATOM     23  C   UNL     1       2.881   2.169  19.411  0.00  0.00    +0.000 A 
ATOM     24  C   UNL     1       2.907   1.982  18.027  0.00  0.00    +0.000 A 
ATOM     25  C   UNL     1       2.575   3.036  17.155  0.00  0.00    +0.000 A 
ATOM     26  C   UNL     1       2.225   4.298  17.648  0.00  0.00    +0.000 A 
ATOM     27  C   UNL     1       2.215   4.479  19.019  0.00  0.00    +0.000 A 
ATOM     28  H   UNL     1       1.749   5.722  22.021  0.00  0.00    +0.000 HD
ENDBRANCH  17  18
ENDBRANCH   2  17
TORSDOF 4
ENDMDL
MODEL 7
REMARK VINA RESULT:      -8.1      5.613      8.700
REMARK  Name = 
REMARK  4 active torsions:
REMARK  status: ('A' for Active; 'I' for Inactive)
REMARK    1  A    between atoms: C_2  and  C_3
REMARK    2  A    between atoms: C_3  and  C_4
REMARK    3  A    between atoms: N_14  and  C_15
REMARK    4  A    between atoms: C_18  and  C_19
REMARK                            x       y       z     vdW  Elec       q    Type
REMARK                         _______ _______ _______ _____ _____    ______ ____
ROOT
ATOM      1  O   UNL     1       3.626   7.377  17.827  0.00  0.00    +0.000 OA
ATOM      2  C   UNL     1       2.811   6.625  18.353  0.00  0.00    +0.000 C 
ATOM      3  N   UNL     1       1.923   7.018  19.325  0.00  0.00    +0.000 N 
ATOM      4  H   UNL     1       1.225   6.350  19.627  0.00  0.00    +0.000 HD
ENDROOT
BRANCH   3   5
ATOM      5  C   UNL     1       1.840   8.363  19.852  0.00  0.00    +0.000 C 
ATOM      6  C   UNL     1       1.218   8.465  21.243  0.00  0.00    +0.000 C 
ATOM      7  C   UNL     1       0.651   9.883  21.339  0.00  0.00    +0.000 C 
ATOM      8  C   UNL     1       0.529  10.414  19.900  0.00  0.00    +0.000 C 
ATOM      9  C   UNL     1       0.918   9.236  19.001  0.00  0.00    +0.000 C 
BRANCH   8  10
ATOM     10  C   UNL     1       1.354  11.667  19.663  0.00  0.00    +0.000 A 
ATOM     11  C   UNL     1       1.954  11.955  18.426  0.00  0.00    +0.000 A 
ATOM     12  C   UNL     1       2.724  13.107  18.243  0.00  0.00    +0.000 A 
ATOM     13  C   UNL     1       2.916  13.987  19.301  0.00  0.00    +0.000 A 
ATOM     14  C   UNL     1       2.331  13.711  20.529  0.00  0.00    +0.000 A 
ATOM     15  F   UNL     1       2.525  14.554  21.553  0.00  0.00    +0.000 F 
ATOM     16  C   UNL     1       1.555  12.571  20.717  0.00  0.00    +0.000 A 
ENDBRANCH   8  10
ENDBRANCH   3   5
BRANCH   2  17
ATOM     17  C   UNL     1       2.677   5.169  17.938  0.00  0.00    +0.000 C 
BRANCH  17  18
ATOM     18  C   UNL     1       3.901   4.307  18.244  0.00  0.00    +0.000 C 
ATOM     19  N   UNL     1       4.654   4.771  19.401  0.00  0.00    +0.000 N 
ATOM     20  C   UNL     1       5.961   5.074  19.098  0.00  0.00    +0.000 C 
ATOM     21  O   UNL     1       6.803   5.484  19.869  0.00  0.00    +0.000 OA
ATOM     22  C   UNL     1       6.146   4.797  17.668  0.00  0.00    +0.000 A 
ATOM     23  C   UNL     1       7.277   4.946  16.890  0.00  0.00    +0.000 A 
ATOM     24  C   UNL     1       7.176   4.590  15.543  0.00  0.00    +0.000 A 
ATOM     25  C   UNL     1       5.969   4.090  15.022  0.00  0.00    +0.000 A 
ATOM     26  C   UNL     1       4.837   3.947  15.833  0.00  0.00    +0.000 A 
ATOM     27  C   UNL     1       4.940   4.315  17.162  0.00  0.00    +0.000 A 
ATOM     28  H   UNL     1       4.342   4.734  20.362  0.00  0.00    +0.000 HD
ENDBRANCH  17  18
ENDBRANCH   2  17
TORSDOF 4
ENDMDL
MODEL 8
REMARK VINA RESULT:      -8.0      5.560      7.385
REMARK  Name = 
REMARK  4 active torsions:
REMARK  status: ('A' for Active; 'I' for Inactive)
REMARK    1  A    between atoms: C_2  and  C_3
REMARK    2  A    between atoms: C_3  and  C_4
REMARK    3  A    between atoms: N_14  and  C_15
REMARK    4  A    between atoms: C_18  and  C_19
REMARK                            x       y       z     vdW  Elec       q    Type
REMARK                         _______ _______ _______ _____ _____    ______ ____
ROOT
ATOM      1  O   UNL     1       1.952   5.561  18.243  0.00  0.00    +0.000 OA
ATOM      2  C   UNL     1       2.458   5.968  19.283  0.00  0.00    +0.000 C 
ATOM      3  N   UNL     1       3.808   5.946  19.537  0.00  0.00    +0.000 N 
ATOM      4  H   UNL     1       4.140   6.393  20.383  0.00  0.00    +0.000 HD
ENDROOT
BRANCH   3   5
ATOM      5  C   UNL     1       4.800   5.439  18.612  0.00  0.00    +0.000 C 
ATOM      6  C   UNL     1       6.147   5.101  19.245  0.00  0.00    +0.000 C 
ATOM      7  C   UNL     1       7.174   5.212  18.116  0.00  0.00    +0.000 C 
ATOM      8  C   UNL     1       6.519   6.040  16.997  0.00  0.00    +0.000 C 
ATOM      9  C   UNL     1       5.169   6.488  17.565  0.00  0.00    +0.000 C 
BRANCH   8  10
ATOM     10  C   UNL     1       6.412   5.279  15.687  0.00  0.00    +0.000 A 
ATOM     11  C   UNL     1       5.467   4.260  15.479  0.00  0.00    +0.000 A 
ATOM     12  C   UNL     1       5.405   3.564  14.268  0.00  0.00    +0.000 A 
ATOM     13  C   UNL     1       6.298   3.868  13.247  0.00  0.00    +0.000 A 
ATOM     14  C   UNL     1       7.238   4.870  13.443  0.00  0.00    +0.000 A 
ATOM     15  F   UNL     1       8.106   5.158  12.463  0.00  0.00    +0.000 F 
ATOM     16  C   UNL     1       7.300   5.576  14.641  0.00  0.00    +0.000 A 
ENDBRANCH   8  10
ENDBRANCH   3   5
BRANCH   2  17
ATOM     17  C   UNL     1       1.626   6.586  20.395  0.00  0.00    +0.000 C 
BRANCH  17  18
ATOM     18  C   UNL     1       1.930   8.058  20.671  0.00  0.00    +0.000 C 
ATOM     19  N   UNL     1       1.694   8.442  22.056  0.00  0.00    +0.000 N 
ATOM     20  C   UNL     1       0.772   9.457  22.176  0.00  0.00    +0.000 C 
ATOM     21  O   UNL     1       0.389   9.962  23.210  0.00  0.00    +0.000 OA
ATOM     22  C   UNL     1       0.350   9.817  20.818  0.00  0.00    +0.000 A 
ATOM     23  C   UNL     1      -0.560  10.773  20.412  0.00  0.00    +0.000 A 
ATOM     24  C   UNL     1      -0.764  10.917  19.038  0.00  0.00    +0.000 A 
ATOM     25  C   UNL     1      -0.052  10.123  18.120  0.00  0.00    +0.000 A 
ATOM     26  C   UNL     1       0.867   9.162  18.557  0.00  0.00    +0.000 A 
ATOM     27  C   UNL     1       1.052   9.015  19.920  0.00  0.00    +0.000 A 
ATOM     28  H   UNL     1       2.239   8.142  22.853  0.00  0.00    +0.000 HD
ENDBRANCH  17  18
ENDBRANCH   2  17
TORSDOF 4
ENDMDL
MODEL 9
REMARK VINA RESULT:      -7.9      6.567      9.747
REMARK  Name = 
REMARK  4 active torsions:
REMARK  status: ('A' for Active; 'I' for Inactive)
REMARK    1  A    between atoms: C_2  and  C_3
REMARK    2  A    between atoms: C_3  and  C_4
REMARK    3  A    between atoms: N_14  and  C_15
REMARK    4  A    between atoms: C_18  and  C_19
REMARK                            x       y       z     vdW  Elec       q    Type
REMARK                         _______ _______ _______ _____ _____    ______ ____
ROOT
ATOM      1  O   UNL     1       1.699   8.461  19.530  0.00  0.00    +0.000 OA
ATOM      2  C   UNL     1       1.726   8.702  18.327  0.00  0.00    +0.000 C 
ATOM      3  N   UNL     1       0.787   9.468  17.679  0.00  0.00    +0.000 N 
ATOM      4  H   UNL     1       0.949   9.691  16.704  0.00  0.00    +0.000 HD
ENDROOT
BRANCH   3   5
ATOM      5  C   UNL     1      -0.350  10.081  18.330  0.00  0.00    +0.000 C 
ATOM      6  C   UNL     1      -1.555  10.313  17.422  0.00  0.00    +0.000 C 
ATOM      7  C   UNL     1      -2.332  11.470  18.054  0.00  0.00    +0.000 C 
ATOM      8  C   UNL     1      -1.366  12.185  19.015  0.00  0.00    +0.000 C 
ATOM      9  C   UNL     1      -0.015  11.489  18.818  0.00  0.00    +0.000 C 
BRANCH   8  10
ATOM     10  C   UNL     1      -1.857  12.182  20.452  0.00  0.00    +0.000 A 
ATOM     11  C   UNL     1      -3.007  12.876  20.860  0.00  0.00    +0.000 A 
ATOM     12  C   UNL     1      -3.424  12.871  22.194  0.00  0.00    +0.000 A 
ATOM     13  C   UNL     1      -2.688  12.177  23.147  0.00  0.00    +0.000 A 
ATOM     14  C   UNL     1      -1.547  11.490  22.756  0.00  0.00    +0.000 A 
ATOM     15  F   UNL     1      -0.831  10.829  23.676  0.00  0.00    +0.000 F 
ATOM     16  C   UNL     1      -1.130  11.482  21.428  0.00  0.00    +0.000 A 
ENDBRANCH   8  10
ENDBRANCH   3   5
BRANCH   2  17
ATOM     17  C   UNL     1       2.848   8.201  17.432  0.00  0.00    +0.000 C 
BRANCH  17  18
ATOM     18  C   UNL     1       3.723   7.117  18.060  0.00  0.00    +0.000 C 
ATOM     19  N   UNL     1       5.039   7.016  17.445  0.00  0.00    +0.000 N 
ATOM     20  C   UNL     1       5.289   5.766  16.926  0.00  0.00    +0.000 C 
ATOM     21  O   UNL     1       6.300   5.411  16.357  0.00  0.00    +0.000 OA
ATOM     22  C   UNL     1       4.105   4.943  17.199  0.00  0.00    +0.000 A 
ATOM     23  C   UNL     1       3.866   3.623  16.873  0.00  0.00    +0.000 A 
ATOM     24  C   UNL     1       2.644   3.078  17.272  0.00  0.00    +0.000 A 
ATOM     25  C   UNL     1       1.713   3.853  17.989  0.00  0.00    +0.000 A 
ATOM     26  C   UNL     1       1.979   5.189  18.308  0.00  0.00    +0.000 A 
ATOM     27  C   UNL     1       3.186   5.726  17.896  0.00  0.00    +0.000 A 
ATOM     28  H   UNL     1       5.778   7.703  17.514  0.00  0.00    +0.000 HD
ENDBRANCH  17  18
ENDBRANCH   2  17
TORSDOF 4
ENDMDL
