MODEL 1
REMARK VINA RESULT:      -8.9      0.000      0.000
REMARK  Name = 
REMARK  3 active torsions:
REMARK  status: ('A' for Active; 'I' for Inactive)
REMARK    1  A    between atoms: C_2  and  C_14
REMARK    2  A    between atoms: C_6  and  C_7
REMARK    3  A    between atoms: N_18  and  C_19
REMARK                            x       y       z     vdW  Elec       q    Type
REMARK                         _______ _______ _______ _____ _____    ______ ____
ROOT
ATOM      1  O   UNL     1       0.939   4.973  20.569  0.00  0.00    +0.000 OA
ATOM      2  C   UNL     1       1.702   4.938  19.603  0.00  0.00    +0.000 C 
ATOM      3  N   UNL     1       2.231   6.028  18.948  0.00  0.00    +0.000 N 
ATOM      4  C   UNL     1       1.882   7.301  19.307  0.00  0.00    +0.000 A 
ATOM      5  N   UNL     1       1.294   7.716  20.396  0.00  0.00    +0.000 NA
ATOM      6  C   UNL     1       1.004   9.058  20.270  0.00  0.00    +0.000 A 
ATOM      7  C   UNL     1       1.406   9.642  19.087  0.00  0.00    +0.000 A 
ATOM      8  S   UNL     1       2.237   8.483  18.127  0.00  0.00    +0.000 S 
ATOM      9  H   UNL     1       2.726   5.936  18.070  0.00  0.00    +0.000 HD
ENDROOT
BRANCH   6  10
ATOM     10  C   UNL     1       0.291   9.771  21.357  0.00  0.00    +0.000 A 
ATOM     11  C   UNL     1      -0.213   9.256  22.531  0.00  0.00    +0.000 A 
ATOM     12  C   UNL     1      -0.805  10.330  23.242  0.00  0.00    +0.000 A 
ATOM     13  C   UNL     1      -0.656  11.464  22.474  0.00  0.00    +0.000 A 
ATOM     14  N   UNL     1       0.026  11.116  21.336  0.00  0.00    +0.000 N 
ATOM     15  H   UNL     1       0.289  11.734  20.578  0.00  0.00    +0.000 HD
ENDBRANCH   6  10
BRANCH   2  16
ATOM     16  C   UNL     1       2.114   3.581  19.054  0.00  0.00    +0.000 C 
ATOM     17  C   UNL     1       3.137   2.888  19.937  0.00  0.00    +0.000 C 
ATOM     18  C   UNL     1       4.455   3.249  19.300  0.00  0.00    +0.000 C 
ATOM     19  O   UNL     1       5.528   3.077  19.854  0.00  0.00    +0.000 OA
ATOM     20  N   UNL     1       4.193   3.770  18.023  0.00  0.00    +0.000 N 
ATOM     21  C   UNL     1       2.785   3.679  17.702  0.00  0.00    +0.000 C 
BRANCH  20  22
ATOM     22  C   UNL     1       5.162   4.225  17.090  0.00  0.00    +0.000 A 
ATOM     23  C   UNL     1       6.096   5.227  17.437  0.00  0.00    +0.000 A 
ATOM     24  C   UNL     1       7.046   5.695  16.521  0.00  0.00    +0.000 A 
ATOM     25  C   UNL     1       7.041   5.150  15.261  0.00  0.00    +0.000 A 
ATOM     26  C   UNL     1       6.138   4.180  14.904  0.00  0.00    +0.000 A 
ATOM     27  C   UNL     1       5.192   3.700  15.787  0.00  0.00    +0.000 A 
ATOM     28  O   UNL     1       6.294   3.774  13.615  0.00  0.00    +0.000 OA
ATOM     29  C   UNL     1       7.360   4.647  13.187  0.00  0.00    +0.000 C 
ATOM     30  O   UNL     1       7.878   5.479  14.244  0.00  0.00    +0.000 OA
ENDBRANCH  20  22
ENDBRANCH   2  16
TORSDOF 3
ENDMDL
MODEL 2
REMARK VINA RESULT:      -8.5      2.824      8.698
REMARK  Name = 
REMARK  3 active torsions:
REMARK  status: ('A' for Active; 'I' for Inactive)
REMARK    1  A    between atoms: C_2  and  C_14
REMARK    2  A    between atoms: C_6  and  C_7
REMARK    3  A    between atoms: N_18  and  C_19
REMARK                            x       y       z     vdW  Elec       q    Type
REMARK                         _______ _______ _______ _____ _____    ______ ____
ROOT
ATOM      1  O   UNL     1       3.951   2.876  17.351  0.00  0.00    +0.000 OA
ATOM      2  C   UNL     1       4.520   3.785  17.958  0.00  0.00    +0.000 C 
ATOM      3  N   UNL     1       5.395   4.698  17.413  0.00  0.00    +0.000 N 
ATOM      4  C   UNL     1       5.760   4.624  16.096  0.00  0.00    +0.000 A 
ATOM      5  N   UNL     1       5.201   3.954  15.126  0.00  0.00    +0.000 NA
ATOM      6  C   UNL     1       5.988   4.052  13.997  0.00  0.00    +0.000 A 
ATOM      7  C   UNL     1       7.123   4.822  14.132  0.00  0.00    +0.000 A 
ATOM      8  S   UNL     1       7.170   5.504  15.710  0.00  0.00    +0.000 S 
ATOM      9  H   UNL     1       5.946   5.321  17.990  0.00  0.00    +0.000 HD
ENDROOT
BRANCH   6  10
ATOM     10  C   UNL     1       5.600   3.341  12.756  0.00  0.00    +0.000 A 
ATOM     11  C   UNL     1       4.492   3.543  11.963  0.00  0.00    +0.000 A 
ATOM     12  C   UNL     1       4.564   2.619  10.891  0.00  0.00    +0.000 A 
ATOM     13  C   UNL     1       5.708   1.872  11.069  0.00  0.00    +0.000 A 
ATOM     14  N   UNL     1       6.340   2.329  12.198  0.00  0.00    +0.000 N 
ATOM     15  H   UNL     1       7.207   1.981  12.586  0.00  0.00    +0.000 HD
ENDBRANCH   6  10
BRANCH   2  16
ATOM     16  C   UNL     1       4.260   3.935  19.449  0.00  0.00    +0.000 C 
ATOM     17  C   UNL     1       2.957   3.281  19.875  0.00  0.00    +0.000 C 
ATOM     18  C   UNL     1       1.969   4.420  19.857  0.00  0.00    +0.000 C 
ATOM     19  O   UNL     1       0.762   4.251  19.913  0.00  0.00    +0.000 OA
ATOM     20  N   UNL     1       2.690   5.622  19.786  0.00  0.00    +0.000 N 
ATOM     21  C   UNL     1       4.114   5.380  19.871  0.00  0.00    +0.000 C 
BRANCH  20  22
ATOM     22  C   UNL     1       2.138   6.929  19.754  0.00  0.00    +0.000 A 
ATOM     23  C   UNL     1       2.191   7.717  18.583  0.00  0.00    +0.000 A 
ATOM     24  C   UNL     1       1.662   9.013  18.543  0.00  0.00    +0.000 A 
ATOM     25  C   UNL     1       1.089   9.504  19.691  0.00  0.00    +0.000 A 
ATOM     26  C   UNL     1       1.033   8.756  20.840  0.00  0.00    +0.000 A 
ATOM     27  C   UNL     1       1.544   7.476  20.906  0.00  0.00    +0.000 A 
ATOM     28  O   UNL     1       0.432   9.420  21.863  0.00  0.00    +0.000 OA
ATOM     29  C   UNL     1       0.173  10.695  21.239  0.00  0.00    +0.000 C 
ATOM     30  O   UNL     1       0.533  10.733  19.843  0.00  0.00    +0.000 OA
ENDBRANCH  20  22
ENDBRANCH   2  16
TORSDOF 3
ENDMDL
MODEL 3
REMARK VINA RESULT:      -8.5      2.851      8.412
REMARK  Name = 
REMARK  3 active torsions:
REMARK  status: ('A' for Active; 'I' for Inactive)
REMARK    1  A    between atoms: C_2  and  C_14
REMARK    2  A    between atoms: C_6  and  C_7
REMARK    3  A    between atoms: N_18  and  C_19
REMARK                            x       y       z     vdW  Elec       q    Type
REMARK                         _______ _______ _______ _____ _____    ______ ____
ROOT
ATOM      1  O   UNL     1       3.834   2.773  17.401  0.00  0.00    +0.000 OA
ATOM      2  C   UNL     1       4.400   3.645  18.062  0.00  0.00    +0.000 C 
ATOM      3  N   UNL     1       5.300   4.571  17.580  0.00  0.00    +0.000 N 
ATOM      4  C   UNL     1       5.695   4.551  16.270  0.00  0.00    +0.000 A 
ATOM      5  N   UNL     1       5.150   3.934  15.257  0.00  0.00    +0.000 NA
ATOM      6  C   UNL     1       5.966   4.072  14.153  0.00  0.00    +0.000 A 
ATOM      7  C   UNL     1       7.107   4.820  14.350  0.00  0.00    +0.000 A 
ATOM      8  S   UNL     1       7.125   5.428  15.958  0.00  0.00    +0.000 S 
ATOM      9  H   UNL     1       5.845   5.158  18.197  0.00  0.00    +0.000 HD
ENDROOT
BRANCH   6  10
ATOM     10  C   UNL     1       5.599   3.424  12.871  0.00  0.00    +0.000 A 
ATOM     11  C   UNL     1       4.461   3.604  12.116  0.00  0.00    +0.000 A 
ATOM     12  C   UNL     1       4.571   2.764  10.980  0.00  0.00    +0.000 A 
ATOM     13  C   UNL     1       5.767   2.087  11.083  0.00  0.00    +0.000 A 
ATOM     14  N   UNL     1       6.392   2.507  12.230  0.00  0.00    +0.000 N 
ATOM     15  H   UNL     1       7.290   2.193  12.577  0.00  0.00    +0.000 HD
ENDBRANCH   6  10
BRANCH   2  16
ATOM     16  C   UNL     1       4.107   3.732  19.552  0.00  0.00    +0.000 C 
ATOM     17  C   UNL     1       2.773   3.102  19.913  0.00  0.00    +0.000 C 
ATOM     18  C   UNL     1       1.823   4.274  19.928  0.00  0.00    +0.000 C 
ATOM     19  O   UNL     1       0.610   4.144  19.946  0.00  0.00    +0.000 OA
ATOM     20  N   UNL     1       2.586   5.453  19.935  0.00  0.00    +0.000 N 
ATOM     21  C   UNL     1       3.998   5.158  20.042  0.00  0.00    +0.000 C 
BRANCH  20  22
ATOM     22  C   UNL     1       2.077   6.777  19.955  0.00  0.00    +0.000 A 
ATOM     23  C   UNL     1       1.389   7.279  21.082  0.00  0.00    +0.000 A 
ATOM     24  C   UNL     1       0.870   8.580  21.108  0.00  0.00    +0.000 A 
ATOM     25  C   UNL     1       1.046   9.360  19.991  0.00  0.00    +0.000 A 
ATOM     26  C   UNL     1       1.707   8.888  18.885  0.00  0.00    +0.000 A 
ATOM     27  C   UNL     1       2.230   7.612  18.834  0.00  0.00    +0.000 A 
ATOM     28  O   UNL     1       1.772   9.809  17.887  0.00  0.00    +0.000 OA
ATOM     29  C   UNL     1       1.022  10.893  18.473  0.00  0.00    +0.000 C 
ATOM     30  O   UNL     1       0.610  10.636  19.831  0.00  0.00    +0.000 OA
ENDBRANCH  20  22
ENDBRANCH   2  16
TORSDOF 3
ENDMDL
MODEL 4
REMARK VINA RESULT:      -8.0      3.849      9.973
REMARK  Name = 
REMARK  3 active torsions:
REMARK  status: ('A' for Active; 'I' for Inactive)
REMARK    1  A    between atoms: C_2  and  C_14
REMARK    2  A    between atoms: C_6  and  C_7
REMARK    3  A    between atoms: N_18  and  C_19
REMARK                            x       y       z     vdW  Elec       q    Type
REMARK                         _______ _______ _______ _____ _____    ______ ____
ROOT
ATOM      1  O   UNL     1       0.848   8.924  19.807  0.00  0.00    +0.000 OA
ATOM      2  C   UNL     1       1.356   9.413  18.797  0.00  0.00    +0.000 C 
ATOM      3  N   UNL     1       2.254   8.789  17.959  0.00  0.00    +0.000 N 
ATOM      4  C   UNL     1       2.716   7.531  18.235  0.00  0.00    +0.000 A 
ATOM      5  N   UNL     1       2.241   6.646  19.068  0.00  0.00    +0.000 NA
ATOM      6  C   UNL     1       3.107   5.575  19.131  0.00  0.00    +0.000 A 
ATOM      7  C   UNL     1       4.217   5.662  18.317  0.00  0.00    +0.000 A 
ATOM      8  S   UNL     1       4.137   7.107  17.390  0.00  0.00    +0.000 S 
ATOM      9  H   UNL     1       2.751   9.295  17.237  0.00  0.00    +0.000 HD
ENDROOT
BRANCH   6  10
ATOM     10  C   UNL     1       2.824   4.442  20.043  0.00  0.00    +0.000 A 
ATOM     11  C   UNL     1       1.797   4.310  20.953  0.00  0.00    +0.000 A 
ATOM     12  C   UNL     1       1.952   3.052  21.586  0.00  0.00    +0.000 A 
ATOM     13  C   UNL     1       3.076   2.459  21.053  0.00  0.00    +0.000 A 
ATOM     14  N   UNL     1       3.590   3.306  20.104  0.00  0.00    +0.000 N 
ATOM     15  H   UNL     1       4.414   3.147  19.537  0.00  0.00    +0.000 HD
ENDBRANCH   6  10
BRANCH   2  16
ATOM     16  C   UNL     1       0.984  10.838  18.416  0.00  0.00    +0.000 C 
ATOM     17  C   UNL     1       1.890  11.864  19.072  0.00  0.00    +0.000 C 
ATOM     18  C   UNL     1       1.122  12.276  20.303  0.00  0.00    +0.000 C 
ATOM     19  O   UNL     1       1.624  12.912  21.215  0.00  0.00    +0.000 OA
ATOM     20  N   UNL     1      -0.197  11.817  20.167  0.00  0.00    +0.000 N 
ATOM     21  C   UNL     1      -0.409  11.217  18.867  0.00  0.00    +0.000 C 
BRANCH  20  22
ATOM     22  C   UNL     1      -1.247  12.000  21.104  0.00  0.00    +0.000 A 
ATOM     23  C   UNL     1      -1.135  11.524  22.430  0.00  0.00    +0.000 A 
ATOM     24  C   UNL     1      -2.170  11.686  23.359  0.00  0.00    +0.000 A 
ATOM     25  C   UNL     1      -3.312  12.322  22.939  0.00  0.00    +0.000 A 
ATOM     26  C   UNL     1      -3.441  12.785  21.654  0.00  0.00    +0.000 A 
ATOM     27  C   UNL     1      -2.437  12.642  20.719  0.00  0.00    +0.000 A 
ATOM     28  O   UNL     1      -4.645  13.380  21.436  0.00  0.00    +0.000 OA
ATOM     29  C   UNL     1      -5.279  13.180  22.716  0.00  0.00    +0.000 C 
ATOM     30  O   UNL     1      -4.416  12.563  23.692  0.00  0.00    +0.000 OA
ENDBRANCH  20  22
ENDBRANCH   2  16
TORSDOF 3
ENDMDL
MODEL 5
REMARK VINA RESULT:      -7.7      4.609      9.197
REMARK  Name = 
REMARK  3 active torsions:
REMARK  status: ('A' for Active; 'I' for Inactive)
REMARK    1  A    between atoms: C_2  and  C_14
REMARK    2  A    between atoms: C_6  and  C_7
REMARK    3  A    between atoms: N_18  and  C_19
REMARK                            x       y       z     vdW  Elec       q    Type
REMARK                         _______ _______ _______ _____ _____    ______ ____
ROOT
ATOM      1  O   UNL     1       1.863   8.960  18.720  0.00  0.00    +0.000 OA
ATOM      2  C   UNL     1       1.432   8.641  19.829  0.00  0.00    +0.000 C 
ATOM      3  N   UNL     1       1.689   7.460  20.490  0.00  0.00    +0.000 N 
ATOM      4  C   UNL     1       2.441   6.477  19.906  0.00  0.00    +0.000 A 
ATOM      5  N   UNL     1       3.227   6.552  18.867  0.00  0.00    +0.000 NA
ATOM      6  C   UNL     1       3.667   5.286  18.541  0.00  0.00    +0.000 A 
ATOM      7  C   UNL     1       3.221   4.275  19.365  0.00  0.00    +0.000 A 
ATOM      8  S   UNL     1       2.270   4.942  20.632  0.00  0.00    +0.000 S 
ATOM      9  H   UNL     1       1.183   7.193  21.325  0.00  0.00    +0.000 HD
ENDROOT
BRANCH   6  10
ATOM     10  C   UNL     1       4.544   5.083  17.364  0.00  0.00    +0.000 A 
ATOM     11  C   UNL     1       4.902   5.995  16.395  0.00  0.00    +0.000 A 
ATOM     12  C   UNL     1       5.756   5.328  15.482  0.00  0.00    +0.000 A 
ATOM     13  C   UNL     1       5.882   4.026  15.913  0.00  0.00    +0.000 A 
ATOM     14  N   UNL     1       5.154   3.891  17.068  0.00  0.00    +0.000 N 
ATOM     15  H   UNL     1       5.054   3.050  17.624  0.00  0.00    +0.000 HD
ENDBRANCH   6  10
BRANCH   2  16
ATOM     16  C   UNL     1       0.520   9.615  20.560  0.00  0.00    +0.000 C 
ATOM     17  C   UNL     1      -0.769   9.877  19.801  0.00  0.00    +0.000 C 
ATOM     18  C   UNL     1      -0.475  11.142  19.033  0.00  0.00    +0.000 C 
ATOM     19  O   UNL     1      -1.181  11.544  18.123  0.00  0.00    +0.000 OA
ATOM     20  N   UNL     1       0.690  11.715  19.567  0.00  0.00    +0.000 N 
ATOM     21  C   UNL     1       1.145  10.982  20.729  0.00  0.00    +0.000 C 
BRANCH  20  22
ATOM     22  C   UNL     1       1.305  12.918  19.132  0.00  0.00    +0.000 A 
ATOM     23  C   UNL     1       2.566  12.905  18.496  0.00  0.00    +0.000 A 
ATOM     24  C   UNL     1       3.190  14.086  18.075  0.00  0.00    +0.000 A 
ATOM     25  C   UNL     1       2.536  15.271  18.308  0.00  0.00    +0.000 A 
ATOM     26  C   UNL     1       1.314  15.304  18.930  0.00  0.00    +0.000 A 
ATOM     27  C   UNL     1       0.676  14.155  19.352  0.00  0.00    +0.000 A 
ATOM     28  O   UNL     1       0.836  16.570  19.070  0.00  0.00    +0.000 OA
ATOM     29  C   UNL     1       1.930  17.331  18.518  0.00  0.00    +0.000 C 
ATOM     30  O   UNL     1       2.985  16.509  17.978  0.00  0.00    +0.000 OA
ENDBRANCH  20  22
ENDBRANCH   2  16
TORSDOF 3
ENDMDL
MODEL 6
REMARK VINA RESULT:      -7.6      4.423      8.873
REMARK  Name = 
REMARK  3 active torsions:
REMARK  status: ('A' for Active; 'I' for Inactive)
REMARK    1  A    between atoms: C_2  and  C_14
REMARK    2  A    between atoms: C_6  and  C_7
REMARK    3  A    between atoms: N_18  and  C_19
REMARK                            x       y       z     vdW  Elec       q    Type
REMARK                         _______ _______ _______ _____ _____    ______ ____
ROOT
ATOM      1  O   UNL     1       1.780   8.934  18.710  0.00  0.00    +0.000 OA
ATOM      2  C   UNL     1       1.353   8.612  19.819  0.00  0.00    +0.000 C 
ATOM      3  N   UNL     1       1.642   7.444  20.491  0.00  0.00    +0.000 N 
ATOM      4  C   UNL     1       2.424   6.479  19.918  0.00  0.00    +0.000 A 
ATOM      5  N   UNL     1       3.212   6.568  18.881  0.00  0.00    +0.000 NA
ATOM      6  C   UNL     1       3.690   5.313  18.568  0.00  0.00    +0.000 A 
ATOM      7  C   UNL     1       3.270   4.295  19.398  0.00  0.00    +0.000 A 
ATOM      8  S   UNL     1       2.296   4.945  20.656  0.00  0.00    +0.000 S 
ATOM      9  H   UNL     1       1.141   7.170  21.326  0.00  0.00    +0.000 HD
ENDROOT
BRANCH   6  10
ATOM     10  C   UNL     1       4.578   5.126  17.396  0.00  0.00    +0.000 A 
ATOM     11  C   UNL     1       4.914   6.040  16.421  0.00  0.00    +0.000 A 
ATOM     12  C   UNL     1       5.790   5.391  15.517  0.00  0.00    +0.000 A 
ATOM     13  C   UNL     1       5.952   4.096  15.959  0.00  0.00    +0.000 A 
ATOM     14  N   UNL     1       5.223   3.949  17.112  0.00  0.00    +0.000 N 
ATOM     15  H   UNL     1       5.145   3.110  17.673  0.00  0.00    +0.000 HD
ENDBRANCH   6  10
BRANCH   2  16
ATOM     16  C   UNL     1       0.411   9.565  20.538  0.00  0.00    +0.000 C 
ATOM     17  C   UNL     1      -0.845   9.849  19.734  0.00  0.00    +0.000 C 
ATOM     18  C   UNL     1      -0.521  11.134  19.015  0.00  0.00    +0.000 C 
ATOM     19  O   UNL     1      -1.188  11.562  18.088  0.00  0.00    +0.000 OA
ATOM     20  N   UNL     1       0.620  11.692  19.614  0.00  0.00    +0.000 N 
ATOM     21  C   UNL     1       1.027  10.927  20.772  0.00  0.00    +0.000 C 
BRANCH  20  22
ATOM     22  C   UNL     1       1.252  12.906  19.240  0.00  0.00    +0.000 A 
ATOM     23  C   UNL     1       0.563  14.139  19.304  0.00  0.00    +0.000 A 
ATOM     24  C   UNL     1       1.172  15.342  18.924  0.00  0.00    +0.000 A 
ATOM     25  C   UNL     1       2.469  15.288  18.476  0.00  0.00    +0.000 A 
ATOM     26  C   UNL     1       3.151  14.100  18.401  0.00  0.00    +0.000 A 
ATOM     27  C   UNL     1       2.577  12.901  18.771  0.00  0.00    +0.000 A 
ATOM     28  O   UNL     1       4.418  14.257  17.930  0.00  0.00    +0.000 OA
ATOM     29  C   UNL     1       4.429  15.675  17.661  0.00  0.00    +0.000 C 
ATOM     30  O   UNL     1       3.216  16.343  18.061  0.00  0.00    +0.000 OA
ENDBRANCH  20  22
ENDBRANCH   2  16
TORSDOF 3
ENDMDL
MODEL 7
REMARK VINA RESULT:      -7.6      3.982      9.029
REMARK  Name = 
REMARK  3 active torsions:
REMARK  status: ('A' for Active; 'I' for Inactive)
REMARK    1  A    between atoms: C_2  and  C_14
REMARK    2  A    between atoms: C_6  and  C_7
REMARK    3  A    between atoms: N_18  and  C_19
REMARK                            x       y       z     vdW  Elec       q    Type
REMARK                         _______ _______ _______ _____ _____    ______ ____
ROOT
ATOM      1  O   UNL     1       2.205   8.168  19.345  0.00  0.00    +0.000 OA
ATOM      2  C   UNL     1       1.805   7.651  20.388  0.00  0.00    +0.000 C 
ATOM      3  N   UNL     1       2.044   6.356  20.794  0.00  0.00    +0.000 N 
ATOM      4  C   UNL     1       2.735   5.485  19.995  0.00  0.00    +0.000 A 
ATOM      5  N   UNL     1       3.481   5.740  18.956  0.00  0.00    +0.000 NA
ATOM      6  C   UNL     1       3.861   4.551  18.369  0.00  0.00    +0.000 A 
ATOM      7  C   UNL     1       3.410   3.410  18.999  0.00  0.00    +0.000 A 
ATOM      8  S   UNL     1       2.535   3.843  20.415  0.00  0.00    +0.000 S 
ATOM      9  H   UNL     1       1.561   5.945  21.582  0.00  0.00    +0.000 HD
ENDROOT
BRANCH   6  10
ATOM     10  C   UNL     1       4.683   4.558  17.136  0.00  0.00    +0.000 A 
ATOM     11  C   UNL     1       4.929   5.606  16.277  0.00  0.00    +0.000 A 
ATOM     12  C   UNL     1       5.771   5.119  15.246  0.00  0.00    +0.000 A 
ATOM     13  C   UNL     1       6.003   3.785  15.501  0.00  0.00    +0.000 A 
ATOM     14  N   UNL     1       5.350   3.457  16.662  0.00  0.00    +0.000 N 
ATOM     15  H   UNL     1       5.333   2.549  17.109  0.00  0.00    +0.000 HD
ENDBRANCH   6  10
BRANCH   2  16
ATOM     16  C   UNL     1       0.960   8.488  21.336  0.00  0.00    +0.000 C 
ATOM     17  C   UNL     1      -0.468   8.648  20.846  0.00  0.00    +0.000 C 
ATOM     18  C   UNL     1      -0.446   9.970  20.122  0.00  0.00    +0.000 C 
ATOM     19  O   UNL     1      -1.347  10.337  19.385  0.00  0.00    +0.000 OA
ATOM     20  N   UNL     1       0.739  10.638  20.469  0.00  0.00    +0.000 N 
ATOM     21  C   UNL     1       1.473   9.904  21.477  0.00  0.00    +0.000 C 
BRANCH  20  22
ATOM     22  C   UNL     1       1.144  11.918  20.008  0.00  0.00    +0.000 A 
ATOM     23  C   UNL     1       1.786  12.076  18.760  0.00  0.00    +0.000 A 
ATOM     24  C   UNL     1       2.203  13.331  18.301  0.00  0.00    +0.000 A 
ATOM     25  C   UNL     1       1.973  14.416  19.111  0.00  0.00    +0.000 A 
ATOM     26  C   UNL     1       1.356  14.281  20.329  0.00  0.00    +0.000 A 
ATOM     27  C   UNL     1       0.933  13.057  20.805  0.00  0.00    +0.000 A 
ATOM     28  O   UNL     1       1.225  15.469  20.979  0.00  0.00    +0.000 OA
ATOM     29  C   UNL     1       1.887  16.355  20.053  0.00  0.00    +0.000 C 
ATOM     30  O   UNL     1       2.310  15.703  18.839  0.00  0.00    +0.000 OA
ENDBRANCH  20  22
ENDBRANCH   2  16
TORSDOF 3
ENDMDL
MODEL 8
REMARK VINA RESULT:      -7.6      4.194     10.221
REMARK  Name = 
REMARK  3 active torsions:
REMARK  status: ('A' for Active; 'I' for Inactive)
REMARK    1  A    between atoms: C_2  and  C_14
REMARK    2  A    between atoms: C_6  and  C_7
REMARK    3  A    between atoms: N_18  and  C_19
REMARK                            x       y       z     vdW  Elec       q    Type
REMARK                         _______ _______ _______ _____ _____    ______ ____
ROOT
ATOM      1  O   UNL     1       0.546   9.397  19.937  0.00  0.00    +0.000 OA
ATOM      2  C   UNL     1       1.120   9.891  18.967  0.00  0.00    +0.000 C 
ATOM      3  N   UNL     1       1.994   9.239  18.124  0.00  0.00    +0.000 N 
ATOM      4  C   UNL     1       2.349   7.938  18.350  0.00  0.00    +0.000 A 
ATOM      5  N   UNL     1       1.782   7.054  19.126  0.00  0.00    +0.000 NA
ATOM      6  C   UNL     1       2.562   5.917  19.160  0.00  0.00    +0.000 A 
ATOM      7  C   UNL     1       3.699   5.955  18.382  0.00  0.00    +0.000 A 
ATOM      8  S   UNL     1       3.759   7.444  17.524  0.00  0.00    +0.000 S 
ATOM      9  H   UNL     1       2.550   9.737  17.441  0.00  0.00    +0.000 HD
ENDROOT
BRANCH   6  10
ATOM     10  C   UNL     1       2.165   4.768  20.008  0.00  0.00    +0.000 A 
ATOM     11  C   UNL     1       1.277   3.755  19.716  0.00  0.00    +0.000 A 
ATOM     12  C   UNL     1       1.234   2.895  20.842  0.00  0.00    +0.000 A 
ATOM     13  C   UNL     1       2.086   3.416  21.791  0.00  0.00    +0.000 A 
ATOM     14  N   UNL     1       2.660   4.547  21.268  0.00  0.00    +0.000 N 
ATOM     15  H   UNL     1       3.332   5.149  21.726  0.00  0.00    +0.000 HD
ENDBRANCH   6  10
BRANCH   2  16
ATOM     16  C   UNL     1       0.871  11.357  18.645  0.00  0.00    +0.000 C 
ATOM     17  C   UNL     1       1.624  12.287  19.579  0.00  0.00    +0.000 C 
ATOM     18  C   UNL     1       0.606  12.621  20.640  0.00  0.00    +0.000 C 
ATOM     19  O   UNL     1       0.901  13.156  21.697  0.00  0.00    +0.000 OA
ATOM     20  N   UNL     1      -0.657  12.227  20.172  0.00  0.00    +0.000 N 
ATOM     21  C   UNL     1      -0.580  11.750  18.808  0.00  0.00    +0.000 C 
BRANCH  20  22
ATOM     22  C   UNL     1      -1.888  12.369  20.864  0.00  0.00    +0.000 A 
ATOM     23  C   UNL     1      -3.068  12.748  20.186  0.00  0.00    +0.000 A 
ATOM     24  C   UNL     1      -4.285  12.906  20.860  0.00  0.00    +0.000 A 
ATOM     25  C   UNL     1      -4.297  12.686  22.216  0.00  0.00    +0.000 A 
ATOM     26  C   UNL     1      -3.160  12.323  22.892  0.00  0.00    +0.000 A 
ATOM     27  C   UNL     1      -1.948  12.158  22.252  0.00  0.00    +0.000 A 
ATOM     28  O   UNL     1      -3.379  12.157  24.224  0.00  0.00    +0.000 OA
ATOM     29  C   UNL     1      -4.773  12.517  24.314  0.00  0.00    +0.000 C 
ATOM     30  O   UNL     1      -5.376  12.795  23.034  0.00  0.00    +0.000 OA
ENDBRANCH  20  22
ENDBRANCH   2  16
TORSDOF 3
ENDMDL
MODEL 9
REMARK VINA RESULT:      -7.5      2.039      2.484
REMARK  Name = 
REMARK  3 active torsions:
REMARK  status: ('A' for Active; 'I' for Inactive)
REMARK    1  A    between atoms: C_2  and  C_14
REMARK    2  A    between atoms: C_6  and  C_7
REMARK    3  A    between atoms: N_18  and  C_19
REMARK                            x       y       z     vdW  Elec       q    Type
REMARK                         _______ _______ _______ _____ _____    ______ ____
ROOT
ATOM      1  O   UNL     1       2.252   7.239  18.164  0.00  0.00    +0.000 OA
ATOM      2  C   UNL     1       2.154   6.580  19.200  0.00  0.00    +0.000 C 
ATOM      3  N   UNL     1       1.682   7.039  20.411  0.00  0.00    +0.000 N 
ATOM      4  C   UNL     1       1.319   8.348  20.573  0.00  0.00    +0.000 A 
ATOM      5  N   UNL     1       1.080   9.253  19.664  0.00  0.00    +0.000 NA
ATOM      6  C   UNL     1       0.892  10.473  20.280  0.00  0.00    +0.000 A 
ATOM      7  C   UNL     1       0.967  10.459  21.657  0.00  0.00    +0.000 A 
ATOM      8  S   UNL     1       1.216   8.848  22.202  0.00  0.00    +0.000 S 
ATOM      9  H   UNL     1       1.772   6.496  21.260  0.00  0.00    +0.000 HD
ENDROOT
BRANCH   6  10
ATOM     10  C   UNL     1       0.647  11.687  19.467  0.00  0.00    +0.000 A 
ATOM     11  C   UNL     1      -0.546  12.145  18.950  0.00  0.00    +0.000 A 
ATOM     12  C   UNL     1      -0.269  13.343  18.246  0.00  0.00    +0.000 A 
ATOM     13  C   UNL     1       1.086  13.574  18.343  0.00  0.00    +0.000 A 
ATOM     14  N   UNL     1       1.632  12.569  19.101  0.00  0.00    +0.000 N 
ATOM     15  H   UNL     1       2.608  12.463  19.351  0.00  0.00    +0.000 HD
ENDBRANCH   6  10
BRANCH   2  16
ATOM     16  C   UNL     1       2.594   5.125  19.178  0.00  0.00    +0.000 C 
ATOM     17  C   UNL     1       3.749   4.858  20.127  0.00  0.00    +0.000 C 
ATOM     18  C   UNL     1       4.965   4.963  19.242  0.00  0.00    +0.000 C 
ATOM     19  O   UNL     1       6.100   5.045  19.681  0.00  0.00    +0.000 OA
ATOM     20  N   UNL     1       4.535   4.930  17.906  0.00  0.00    +0.000 N 
ATOM     21  C   UNL     1       3.110   4.693  17.823  0.00  0.00    +0.000 C 
BRANCH  20  22
ATOM     22  C   UNL     1       5.367   4.998  16.758  0.00  0.00    +0.000 A 
ATOM     23  C   UNL     1       6.451   5.903  16.692  0.00  0.00    +0.000 A 
ATOM     24  C   UNL     1       7.269   5.989  15.559  0.00  0.00    +0.000 A 
ATOM     25  C   UNL     1       6.981   5.165  14.499  0.00  0.00    +0.000 A 
ATOM     26  C   UNL     1       5.930   4.284  14.542  0.00  0.00    +0.000 A 
ATOM     27  C   UNL     1       5.109   4.177  15.646  0.00  0.00    +0.000 A 
ATOM     28  O   UNL     1       5.810   3.563  13.395  0.00  0.00    +0.000 OA
ATOM     29  C   UNL     1       6.871   4.137  12.605  0.00  0.00    +0.000 C 
ATOM     30  O   UNL     1       7.656   5.111  13.322  0.00  0.00    +0.000 OA
ENDBRANCH  20  22
ENDBRANCH   2  16
TORSDOF 3
ENDMDL
