MODEL 1
REMARK VINA RESULT:      -8.6      0.000      0.000
REMARK  Name = 
REMARK  8 active torsions:
REMARK  status: ('A' for Active; 'I' for Inactive)
REMARK    1  A    between atoms: C_1  and  C_2
REMARK    2  A    between atoms: C_5  and  S_6
REMARK    3  A    between atoms: S_6  and  C_7
REMARK    4  A    between atoms: C_10  and  N_11
REMARK    5  A    between atoms: C_12  and  C_14
REMARK    6  A    between atoms: C_14  and  C_15
REMARK    7  A    between atoms: C_16  and  C_17
REMARK    8  A    between atoms: C_28  and  C_29
REMARK                            x       y       z     vdW  Elec       q    Type
REMARK                         _______ _______ _______ _____ _____    ______ ____
ROOT
ATOM      1  N   UNL     1       0.280  10.888  18.465  0.00  0.00    +0.000 N 
ATOM      2  C   UNL     1      -1.092  10.838  18.314  0.00  0.00    +0.000 C 
ATOM      3  O   UNL     1      -1.760   9.810  18.219  0.00  0.00    +0.000 OA
ATOM      4  H   UNL     1       0.687  11.773  18.758  0.00  0.00    +0.000 HD
ENDROOT
BRANCH   1   8
ATOM      5  C   UNL     1       2.317   7.287  19.283  0.00  0.00    +0.000 A 
ATOM      6  C   UNL     1       1.669   7.991  20.304  0.00  0.00    +0.000 A 
ATOM      7  C   UNL     1       1.029   9.207  20.032  0.00  0.00    +0.000 A 
ATOM      8  C   UNL     1       1.039   9.734  18.740  0.00  0.00    +0.000 A 
ATOM      9  C   UNL     1       1.690   9.047  17.718  0.00  0.00    +0.000 A 
ATOM     10  C   UNL     1       2.349   7.838  17.996  0.00  0.00    +0.000 A 
BRANCH   5  11
ATOM     11  S   UNL     1       3.181   5.770  19.631  0.00  0.00    +0.000 S 
BRANCH  11  16
ATOM     12  C   UNL     1       6.750   4.323  14.850  0.00  0.00    +0.000 C 
ATOM     13  C   UNL     1       5.855   4.725  15.985  0.00  0.00    +0.000 A 
ATOM     14  C   UNL     1       6.201   5.760  16.851  0.00  0.00    +0.000 A 
ATOM     15  C   UNL     1       5.372   6.092  17.930  0.00  0.00    +0.000 A 
ATOM     16  C   UNL     1       4.167   5.411  18.169  0.00  0.00    +0.000 A 
ATOM     17  C   UNL     1       3.800   4.374  17.280  0.00  0.00    +0.000 A 
ATOM     18  C   UNL     1       2.548   3.544  17.412  0.00  0.00    +0.000 C 
ATOM     19  C   UNL     1       4.655   4.043  16.206  0.00  0.00    +0.000 A 
ENDBRANCH  11  16
ENDBRANCH   5  11
ENDBRANCH   1   8
BRANCH   2  20
ATOM     20  C   UNL     1      -1.763  12.217  18.251  0.00  0.00    +0.000 C 
BRANCH  20  21
ATOM     21  C   UNL     1      -3.018  12.243  19.089  0.00  0.00    +0.000 A 
ATOM     22  C   UNL     1      -3.125  12.582  20.392  0.00  0.00    +0.000 A 
ATOM     23  C   UNL     1      -1.964  13.046  21.244  0.00  0.00    +0.000 C 
ATOM     24  N   UNL     1      -4.341  12.521  21.073  0.00  0.00    +0.000 N 
ATOM     25  C   UNL     1      -5.466  12.100  20.470  0.00  0.00    +0.000 A 
ATOM     26  C   UNL     1      -6.749  11.856  20.901  0.00  0.00    +0.000 A 
ATOM     27  C   UNL     1      -7.426  11.425  19.739  0.00  0.00    +0.000 A 
ATOM     28  N   UNL     1      -6.644  11.404  18.656  0.00  0.00    +0.000 NA
ATOM     29  N   UNL     1      -5.426  11.799  19.127  0.00  0.00    +0.000 N 
ATOM     30  C   UNL     1      -4.270  11.875  18.333  0.00  0.00    +0.000 A 
ATOM     31  O   UNL     1      -4.288  11.669  17.124  0.00  0.00    +0.000 OA
ATOM     32  H   UNL     1      -4.319  12.736  22.067  0.00  0.00    +0.000 HD
ENDBRANCH  20  21
ENDBRANCH   2  20
TORSDOF 5
ENDMDL
MODEL 2
REMARK VINA RESULT:      -8.6      1.154      1.843
REMARK  Name = 
REMARK  8 active torsions:
REMARK  status: ('A' for Active; 'I' for Inactive)
REMARK    1  A    between atoms: C_1  and  C_2
REMARK    2  A    between atoms: C_5  and  S_6
REMARK    3  A    between atoms: S_6  and  C_7
REMARK    4  A    between atoms: C_10  and  N_11
REMARK    5  A    between atoms: C_12  and  C_14
REMARK    6  A    between atoms: C_14  and  C_15
REMARK    7  A    between atoms: C_16  and  C_17
REMARK    8  A    between atoms: C_28  and  C_29
REMARK                            x       y       z     vdW  Elec       q    Type
REMARK                         _______ _______ _______ _____ _____    ______ ____
ROOT
ATOM      1  N   UNL     1       0.340  10.724  18.357  0.00  0.00    +0.000 N 
ATOM      2  C   UNL     1      -1.040  10.678  18.424  0.00  0.00    +0.000 C 
ATOM      3  O   UNL     1      -1.711   9.656  18.549  0.00  0.00    +0.000 OA
ATOM      4  H   UNL     1       0.784  11.629  18.481  0.00  0.00    +0.000 HD
ENDROOT
BRANCH   1   8
ATOM      5  C   UNL     1       2.489   7.197  19.208  0.00  0.00    +0.000 A 
ATOM      6  C   UNL     1       1.805   7.879  20.219  0.00  0.00    +0.000 A 
ATOM      7  C   UNL     1       1.127   9.072  19.937  0.00  0.00    +0.000 A 
ATOM      8  C   UNL     1       1.134   9.597  18.644  0.00  0.00    +0.000 A 
ATOM      9  C   UNL     1       1.822   8.931  17.631  0.00  0.00    +0.000 A 
ATOM     10  C   UNL     1       2.518   7.746  17.920  0.00  0.00    +0.000 A 
BRANCH   5  11
ATOM     11  S   UNL     1       3.401   5.711  19.570  0.00  0.00    +0.000 S 
BRANCH  11  16
ATOM     12  C   UNL     1       6.890   4.235  14.739  0.00  0.00    +0.000 C 
ATOM     13  C   UNL     1       6.015   4.644  15.887  0.00  0.00    +0.000 A 
ATOM     14  C   UNL     1       6.387   5.669  16.754  0.00  0.00    +0.000 A 
ATOM     15  C   UNL     1       5.577   6.008  17.845  0.00  0.00    +0.000 A 
ATOM     16  C   UNL     1       4.363   5.345  18.094  0.00  0.00    +0.000 A 
ATOM     17  C   UNL     1       3.970   4.319  17.205  0.00  0.00    +0.000 A 
ATOM     18  C   UNL     1       2.706   3.508  17.347  0.00  0.00    +0.000 C 
ATOM     19  C   UNL     1       4.806   3.980  16.118  0.00  0.00    +0.000 A 
ENDBRANCH  11  16
ENDBRANCH   5  11
ENDBRANCH   1   8
BRANCH   2  20
ATOM     20  C   UNL     1      -1.716  12.050  18.306  0.00  0.00    +0.000 C 
BRANCH  20  21
ATOM     21  C   UNL     1      -3.207  11.901  18.131  0.00  0.00    +0.000 A 
ATOM     22  C   UNL     1      -3.864  11.500  17.022  0.00  0.00    +0.000 A 
ATOM     23  C   UNL     1      -3.181  11.084  15.737  0.00  0.00    +0.000 C 
ATOM     24  N   UNL     1      -5.257  11.447  16.967  0.00  0.00    +0.000 N 
ATOM     25  C   UNL     1      -6.018  11.813  18.014  0.00  0.00    +0.000 A 
ATOM     26  C   UNL     1      -7.371  11.948  18.213  0.00  0.00    +0.000 A 
ATOM     27  C   UNL     1      -7.481  12.380  19.552  0.00  0.00    +0.000 A 
ATOM     28  N   UNL     1      -6.298  12.501  20.161  0.00  0.00    +0.000 NA
ATOM     29  N   UNL     1      -5.399  12.173  19.190  0.00  0.00    +0.000 N 
ATOM     30  C   UNL     1      -4.006  12.212  19.372  0.00  0.00    +0.000 A 
ATOM     31  O   UNL     1      -3.491  12.467  20.456  0.00  0.00    +0.000 OA
ATOM     32  H   UNL     1      -5.670  11.192  16.073  0.00  0.00    +0.000 HD
ENDBRANCH  20  21
ENDBRANCH   2  20
TORSDOF 5
ENDMDL
MODEL 3
REMARK VINA RESULT:      -8.6      1.412      2.431
REMARK  Name = 
REMARK  8 active torsions:
REMARK  status: ('A' for Active; 'I' for Inactive)
REMARK    1  A    between atoms: C_1  and  C_2
REMARK    2  A    between atoms: C_5  and  S_6
REMARK    3  A    between atoms: S_6  and  C_7
REMARK    4  A    between atoms: C_10  and  N_11
REMARK    5  A    between atoms: C_12  and  C_14
REMARK    6  A    between atoms: C_14  and  C_15
REMARK    7  A    between atoms: C_16  and  C_17
REMARK    8  A    between atoms: C_28  and  C_29
REMARK                            x       y       z     vdW  Elec       q    Type
REMARK                         _______ _______ _______ _____ _____    ______ ____
ROOT
ATOM      1  N   UNL     1       0.375  10.970  18.821  0.00  0.00    +0.000 N 
ATOM      2  C   UNL     1      -0.979  10.973  18.544  0.00  0.00    +0.000 C 
ATOM      3  O   UNL     1      -1.644   9.986  18.238  0.00  0.00    +0.000 OA
ATOM      4  H   UNL     1       0.761  11.793  19.276  0.00  0.00    +0.000 HD
ENDROOT
BRANCH   1   8
ATOM      5  C   UNL     1       2.290   7.245  19.314  0.00  0.00    +0.000 A 
ATOM      6  C   UNL     1       1.693   7.892  20.401  0.00  0.00    +0.000 A 
ATOM      7  C   UNL     1       1.094   9.148  20.238  0.00  0.00    +0.000 A 
ATOM      8  C   UNL     1       1.094   9.771  18.989  0.00  0.00    +0.000 A 
ATOM      9  C   UNL     1       1.696   9.140  17.902  0.00  0.00    +0.000 A 
ATOM     10  C   UNL     1       2.314   7.891  18.071  0.00  0.00    +0.000 A 
BRANCH   5  11
ATOM     11  S   UNL     1       3.102   5.675  19.524  0.00  0.00    +0.000 S 
BRANCH  11  16
ATOM     12  C   UNL     1       6.834   4.694  14.749  0.00  0.00    +0.000 C 
ATOM     13  C   UNL     1       5.894   4.978  15.883  0.00  0.00    +0.000 A 
ATOM     14  C   UNL     1       6.107   6.046  16.752  0.00  0.00    +0.000 A 
ATOM     15  C   UNL     1       5.241   6.270  17.830  0.00  0.00    +0.000 A 
ATOM     16  C   UNL     1       4.128   5.445  18.064  0.00  0.00    +0.000 A 
ATOM     17  C   UNL     1       3.894   4.373  17.172  0.00  0.00    +0.000 A 
ATOM     18  C   UNL     1       2.754   3.395  17.298  0.00  0.00    +0.000 C 
ATOM     19  C   UNL     1       4.786   4.153  16.099  0.00  0.00    +0.000 A 
ENDBRANCH  11  16
ENDBRANCH   5  11
ENDBRANCH   1   8
BRANCH   2  20
ATOM     20  C   UNL     1      -1.629  12.361  18.625  0.00  0.00    +0.000 C 
BRANCH  20  21
ATOM     21  C   UNL     1      -2.599  12.433  19.778  0.00  0.00    +0.000 A 
ATOM     22  C   UNL     1      -3.942  12.294  19.727  0.00  0.00    +0.000 A 
ATOM     23  C   UNL     1      -4.714  11.996  18.461  0.00  0.00    +0.000 C 
ATOM     24  N   UNL     1      -4.742  12.429  20.862  0.00  0.00    +0.000 N 
ATOM     25  C   UNL     1      -4.216  12.724  22.064  0.00  0.00    +0.000 A 
ATOM     26  C   UNL     1      -4.750  12.999  23.300  0.00  0.00    +0.000 A 
ATOM     27  C   UNL     1      -3.623  13.231  24.118  0.00  0.00    +0.000 A 
ATOM     28  N   UNL     1      -2.466  13.105  23.461  0.00  0.00    +0.000 NA
ATOM     29  N   UNL     1      -2.847  12.817  22.184  0.00  0.00    +0.000 N 
ATOM     30  C   UNL     1      -1.946  12.649  21.120  0.00  0.00    +0.000 A 
ATOM     31  O   UNL     1      -0.730  12.667  21.280  0.00  0.00    +0.000 OA
ATOM     32  H   UNL     1      -5.747  12.369  20.722  0.00  0.00    +0.000 HD
ENDBRANCH  20  21
ENDBRANCH   2  20
TORSDOF 5
ENDMDL
MODEL 4
REMARK VINA RESULT:      -8.6      4.348     10.251
REMARK  Name = 
REMARK  8 active torsions:
REMARK  status: ('A' for Active; 'I' for Inactive)
REMARK    1  A    between atoms: C_1  and  C_2
REMARK    2  A    between atoms: C_5  and  S_6
REMARK    3  A    between atoms: S_6  and  C_7
REMARK    4  A    between atoms: C_10  and  N_11
REMARK    5  A    between atoms: C_12  and  C_14
REMARK    6  A    between atoms: C_14  and  C_15
REMARK    7  A    between atoms: C_16  and  C_17
REMARK    8  A    between atoms: C_28  and  C_29
REMARK                            x       y       z     vdW  Elec       q    Type
REMARK                         _______ _______ _______ _____ _____    ______ ____
ROOT
ATOM      1  N   UNL     1       2.621   6.222  20.534  0.00  0.00    +0.000 N 
ATOM      2  C   UNL     1       2.152   4.935  20.346  0.00  0.00    +0.000 C 
ATOM      3  O   UNL     1       0.969   4.617  20.253  0.00  0.00    +0.000 OA
ATOM      4  H   UNL     1       3.610   6.388  20.370  0.00  0.00    +0.000 HD
ENDROOT
BRANCH   1   8
ATOM      5  C   UNL     1       0.251   9.706  20.385  0.00  0.00    +0.000 A 
ATOM      6  C   UNL     1       0.115   8.793  21.436  0.00  0.00    +0.000 A 
ATOM      7  C   UNL     1       0.876   7.617  21.457  0.00  0.00    +0.000 A 
ATOM      8  C   UNL     1       1.775   7.342  20.425  0.00  0.00    +0.000 A 
ATOM      9  C   UNL     1       1.910   8.240  19.368  0.00  0.00    +0.000 A 
ATOM     10  C   UNL     1       1.131   9.408  19.338  0.00  0.00    +0.000 A 
BRANCH   5  11
ATOM     11  S   UNL     1      -0.754  11.175  20.321  0.00  0.00    +0.000 S 
BRANCH  11  16
ATOM     12  C   UNL     1      -4.170  10.459  15.271  0.00  0.00    +0.000 C 
ATOM     13  C   UNL     1      -3.301  10.677  16.475  0.00  0.00    +0.000 A 
ATOM     14  C   UNL     1      -2.045  10.083  16.581  0.00  0.00    +0.000 A 
ATOM     15  C   UNL     1      -1.267  10.265  17.731  0.00  0.00    +0.000 A 
ATOM     16  C   UNL     1      -1.713  11.057  18.803  0.00  0.00    +0.000 A 
ATOM     17  C   UNL     1      -2.977  11.680  18.691  0.00  0.00    +0.000 A 
ATOM     18  C   UNL     1      -3.597  12.544  19.759  0.00  0.00    +0.000 C 
ATOM     19  C   UNL     1      -3.754  11.473  17.530  0.00  0.00    +0.000 A 
ENDBRANCH  11  16
ENDBRANCH   5  11
ENDBRANCH   1   8
BRANCH   2  20
ATOM     20  C   UNL     1       3.257   3.873  20.277  0.00  0.00    +0.000 C 
BRANCH  20  21
ATOM     21  C   UNL     1       3.889   3.843  18.907  0.00  0.00    +0.000 A 
ATOM     22  C   UNL     1       3.426   3.213  17.806  0.00  0.00    +0.000 A 
ATOM     23  C   UNL     1       2.129   2.434  17.759  0.00  0.00    +0.000 C 
ATOM     24  N   UNL     1       4.128   3.220  16.600  0.00  0.00    +0.000 N 
ATOM     25  C   UNL     1       5.315   3.840  16.480  0.00  0.00    +0.000 A 
ATOM     26  C   UNL     1       6.247   3.934  15.475  0.00  0.00    +0.000 A 
ATOM     27  C   UNL     1       7.267   4.740  16.025  0.00  0.00    +0.000 A 
ATOM     28  N   UNL     1       7.004   5.135  17.274  0.00  0.00    +0.000 NA
ATOM     29  N   UNL     1       5.804   4.550  17.553  0.00  0.00    +0.000 N 
ATOM     30  C   UNL     1       5.156   4.653  18.796  0.00  0.00    +0.000 A 
ATOM     31  O   UNL     1       5.587   5.353  19.706  0.00  0.00    +0.000 OA
ATOM     32  H   UNL     1       3.736   2.668  15.841  0.00  0.00    +0.000 HD
ENDBRANCH  20  21
ENDBRANCH   2  20
TORSDOF 5
ENDMDL
MODEL 5
REMARK VINA RESULT:      -8.6      1.689      2.263
REMARK  Name = 
REMARK  8 active torsions:
REMARK  status: ('A' for Active; 'I' for Inactive)
REMARK    1  A    between atoms: C_1  and  C_2
REMARK    2  A    between atoms: C_5  and  S_6
REMARK    3  A    between atoms: S_6  and  C_7
REMARK    4  A    between atoms: C_10  and  N_11
REMARK    5  A    between atoms: C_12  and  C_14
REMARK    6  A    between atoms: C_14  and  C_15
REMARK    7  A    between atoms: C_16  and  C_17
REMARK    8  A    between atoms: C_28  and  C_29
REMARK                            x       y       z     vdW  Elec       q    Type
REMARK                         _______ _______ _______ _____ _____    ______ ____
ROOT
ATOM      1  N   UNL     1       0.460  10.870  18.943  0.00  0.00    +0.000 N 
ATOM      2  C   UNL     1      -0.906  11.037  18.815  0.00  0.00    +0.000 C 
ATOM      3  O   UNL     1      -1.716  10.135  18.612  0.00  0.00    +0.000 OA
ATOM      4  H   UNL     1       0.991  11.645  19.330  0.00  0.00    +0.000 HD
ENDROOT
BRANCH   1   8
ATOM      5  C   UNL     1       2.450   7.171  19.320  0.00  0.00    +0.000 A 
ATOM      6  C   UNL     1       2.373   7.820  18.083  0.00  0.00    +0.000 A 
ATOM      7  C   UNL     1       1.675   9.028  17.957  0.00  0.00    +0.000 A 
ATOM      8  C   UNL     1       1.042   9.594  19.065  0.00  0.00    +0.000 A 
ATOM      9  C   UNL     1       1.103   8.950  20.300  0.00  0.00    +0.000 A 
ATOM     10  C   UNL     1       1.785   7.729  20.419  0.00  0.00    +0.000 A 
BRANCH   5  11
ATOM     11  S   UNL     1       3.286   5.607  19.476  0.00  0.00    +0.000 S 
BRANCH  11  16
ATOM     12  C   UNL     1       6.867   4.744  14.566  0.00  0.00    +0.000 C 
ATOM     13  C   UNL     1       5.963   5.001  15.735  0.00  0.00    +0.000 A 
ATOM     14  C   UNL     1       6.213   6.038  16.632  0.00  0.00    +0.000 A 
ATOM     15  C   UNL     1       5.381   6.236  17.741  0.00  0.00    +0.000 A 
ATOM     16  C   UNL     1       4.267   5.414  17.980  0.00  0.00    +0.000 A 
ATOM     17  C   UNL     1       3.995   4.375  17.062  0.00  0.00    +0.000 A 
ATOM     18  C   UNL     1       2.849   3.404  17.189  0.00  0.00    +0.000 C 
ATOM     19  C   UNL     1       4.853   4.181  15.956  0.00  0.00    +0.000 A 
ENDBRANCH  11  16
ENDBRANCH   5  11
ENDBRANCH   1   8
BRANCH   2  20
ATOM     20  C   UNL     1      -1.369  12.495  18.928  0.00  0.00    +0.000 C 
BRANCH  20  21
ATOM     21  C   UNL     1      -1.821  12.808  20.333  0.00  0.00    +0.000 A 
ATOM     22  C   UNL     1      -1.062  13.258  21.355  0.00  0.00    +0.000 A 
ATOM     23  C   UNL     1       0.415  13.568  21.240  0.00  0.00    +0.000 C 
ATOM     24  N   UNL     1      -1.589  13.467  22.630  0.00  0.00    +0.000 N 
ATOM     25  C   UNL     1      -2.879  13.211  22.910  0.00  0.00    +0.000 A 
ATOM     26  C   UNL     1      -3.630  13.234  24.060  0.00  0.00    +0.000 A 
ATOM     27  C   UNL     1      -4.920  12.846  23.637  0.00  0.00    +0.000 A 
ATOM     28  N   UNL     1      -4.988  12.604  22.325  0.00  0.00    +0.000 NA
ATOM     29  N   UNL     1      -3.711  12.809  21.890  0.00  0.00    +0.000 N 
ATOM     30  C   UNL     1      -3.299  12.616  20.561  0.00  0.00    +0.000 A 
ATOM     31  O   UNL     1      -4.085  12.327  19.665  0.00  0.00    +0.000 OA
ATOM     32  H   UNL     1      -0.933  13.749  23.355  0.00  0.00    +0.000 HD
ENDBRANCH  20  21
ENDBRANCH   2  20
TORSDOF 5
ENDMDL
MODEL 6
REMARK VINA RESULT:      -8.6      4.018     10.299
REMARK  Name = 
REMARK  8 active torsions:
REMARK  status: ('A' for Active; 'I' for Inactive)
REMARK    1  A    between atoms: C_1  and  C_2
REMARK    2  A    between atoms: C_5  and  S_6
REMARK    3  A    between atoms: S_6  and  C_7
REMARK    4  A    between atoms: C_10  and  N_11
REMARK    5  A    between atoms: C_12  and  C_14
REMARK    6  A    between atoms: C_14  and  C_15
REMARK    7  A    between atoms: C_16  and  C_17
REMARK    8  A    between atoms: C_28  and  C_29
REMARK                            x       y       z     vdW  Elec       q    Type
REMARK                         _______ _______ _______ _____ _____    ______ ____
ROOT
ATOM      1  N   UNL     1       2.533   7.059  20.026  0.00  0.00    +0.000 N 
ATOM      2  C   UNL     1       1.942   5.835  20.275  0.00  0.00    +0.000 C 
ATOM      3  O   UNL     1       0.737   5.645  20.422  0.00  0.00    +0.000 OA
ATOM      4  H   UNL     1       3.496   7.057  19.702  0.00  0.00    +0.000 HD
ENDROOT
BRANCH   1   8
ATOM      5  C   UNL     1       0.445  10.623  19.175  0.00  0.00    +0.000 A 
ATOM      6  C   UNL     1       0.368  10.033  20.441  0.00  0.00    +0.000 A 
ATOM      7  C   UNL     1       1.031   8.828  20.704  0.00  0.00    +0.000 A 
ATOM      8  C   UNL     1       1.771   8.198  19.702  0.00  0.00    +0.000 A 
ATOM      9  C   UNL     1       1.845   8.771  18.434  0.00  0.00    +0.000 A 
ATOM     10  C   UNL     1       1.162   9.969  18.166  0.00  0.00    +0.000 A 
BRANCH   5  11
ATOM     11  S   UNL     1      -0.441  12.125  18.815  0.00  0.00    +0.000 S 
BRANCH  11  16
ATOM     12  C   UNL     1      -6.450  10.899  18.534  0.00  0.00    +0.000 C 
ATOM     13  C   UNL     1      -4.978  11.161  18.652  0.00  0.00    +0.000 A 
ATOM     14  C   UNL     1      -4.474  12.075  19.576  0.00  0.00    +0.000 A 
ATOM     15  C   UNL     1      -3.100  12.336  19.642  0.00  0.00    +0.000 A 
ATOM     16  C   UNL     1      -2.185  11.683  18.799  0.00  0.00    +0.000 A 
ATOM     17  C   UNL     1      -2.688  10.738  17.875  0.00  0.00    +0.000 A 
ATOM     18  C   UNL     1      -1.837   9.968  16.898  0.00  0.00    +0.000 C 
ATOM     19  C   UNL     1      -4.078  10.497  17.812  0.00  0.00    +0.000 A 
ENDBRANCH  11  16
ENDBRANCH   5  11
ENDBRANCH   1   8
BRANCH   2  20
ATOM     20  C   UNL     1       2.938   4.672  20.381  0.00  0.00    +0.000 C 
BRANCH  20  21
ATOM     21  C   UNL     1       3.578   4.390  19.045  0.00  0.00    +0.000 A 
ATOM     22  C   UNL     1       3.032   3.736  17.997  0.00  0.00    +0.000 A 
ATOM     23  C   UNL     1       1.620   3.191  17.982  0.00  0.00    +0.000 C 
ATOM     24  N   UNL     1       3.746   3.494  16.823  0.00  0.00    +0.000 N 
ATOM     25  C   UNL     1       5.025   3.886  16.683  0.00  0.00    +0.000 A 
ATOM     26  C   UNL     1       5.978   3.711  15.708  0.00  0.00    +0.000 A 
ATOM     27  C   UNL     1       7.113   4.383  16.211  0.00  0.00    +0.000 A 
ATOM     28  N   UNL     1       6.900   4.947  17.403  0.00  0.00    +0.000 NA
ATOM     29  N   UNL     1       5.612   4.610  17.697  0.00  0.00    +0.000 N 
ATOM     30  C   UNL     1       4.970   4.953  18.898  0.00  0.00    +0.000 A 
ATOM     31  O   UNL     1       5.500   5.661  19.748  0.00  0.00    +0.000 OA
ATOM     32  H   UNL     1       3.278   2.941  16.109  0.00  0.00    +0.000 HD
ENDBRANCH  20  21
ENDBRANCH   2  20
TORSDOF 5
ENDMDL
MODEL 7
REMARK VINA RESULT:      -8.5      4.055     10.332
REMARK  Name = 
REMARK  8 active torsions:
REMARK  status: ('A' for Active; 'I' for Inactive)
REMARK    1  A    between atoms: C_1  and  C_2
REMARK    2  A    between atoms: C_5  and  S_6
REMARK    3  A    between atoms: S_6  and  C_7
REMARK    4  A    between atoms: C_10  and  N_11
REMARK    5  A    between atoms: C_12  and  C_14
REMARK    6  A    between atoms: C_14  and  C_15
REMARK    7  A    between atoms: C_16  and  C_17
REMARK    8  A    between atoms: C_28  and  C_29
REMARK                            x       y       z     vdW  Elec       q    Type
REMARK                         _______ _______ _______ _____ _____    ______ ____
ROOT
ATOM      1  N   UNL     1       2.615   6.969  20.031  0.00  0.00    +0.000 N 
ATOM      2  C   UNL     1       1.968   5.783  20.320  0.00  0.00    +0.000 C 
ATOM      3  O   UNL     1       0.767   5.669  20.560  0.00  0.00    +0.000 OA
ATOM      4  H   UNL     1       3.548   6.907  19.632  0.00  0.00    +0.000 HD
ENDROOT
BRANCH   1   8
ATOM      5  C   UNL     1       0.703  10.666  19.357  0.00  0.00    +0.000 A 
ATOM      6  C   UNL     1       0.699  10.080  20.627  0.00  0.00    +0.000 A 
ATOM      7  C   UNL     1       1.301   8.832  20.834  0.00  0.00    +0.000 A 
ATOM      8  C   UNL     1       1.905   8.157  19.772  0.00  0.00    +0.000 A 
ATOM      9  C   UNL     1       1.905   8.727  18.501  0.00  0.00    +0.000 A 
ATOM     10  C   UNL     1       1.283   9.968  18.290  0.00  0.00    +0.000 A 
BRANCH   5  11
ATOM     11  S   UNL     1      -0.109  12.225  19.073  0.00  0.00    +0.000 S 
BRANCH  11  16
ATOM     12  C   UNL     1      -5.967  10.609  18.200  0.00  0.00    +0.000 C 
ATOM     13  C   UNL     1      -4.540  11.042  18.364  0.00  0.00    +0.000 A 
ATOM     14  C   UNL     1      -3.522  10.496  17.585  0.00  0.00    +0.000 A 
ATOM     15  C   UNL     1      -2.190  10.883  17.782  0.00  0.00    +0.000 A 
ATOM     16  C   UNL     1      -1.836  11.836  18.751  0.00  0.00    +0.000 A 
ATOM     17  C   UNL     1      -2.868  12.410  19.530  0.00  0.00    +0.000 A 
ATOM     18  C   UNL     1      -2.647  13.432  20.616  0.00  0.00    +0.000 C 
ATOM     19  C   UNL     1      -4.204  11.997  19.328  0.00  0.00    +0.000 A 
ENDBRANCH  11  16
ENDBRANCH   5  11
ENDBRANCH   1   8
BRANCH   2  20
ATOM     20  C   UNL     1       2.891   4.558  20.343  0.00  0.00    +0.000 C 
BRANCH  20  21
ATOM     21  C   UNL     1       3.522   4.335  18.991  0.00  0.00    +0.000 A 
ATOM     22  C   UNL     1       2.953   3.765  17.907  0.00  0.00    +0.000 A 
ATOM     23  C   UNL     1       1.523   3.273  17.862  0.00  0.00    +0.000 C 
ATOM     24  N   UNL     1       3.658   3.570  16.719  0.00  0.00    +0.000 N 
ATOM     25  C   UNL     1       4.950   3.924  16.601  0.00  0.00    +0.000 A 
ATOM     26  C   UNL     1       5.896   3.775  15.615  0.00  0.00    +0.000 A 
ATOM     27  C   UNL     1       7.054   4.374  16.156  0.00  0.00    +0.000 A 
ATOM     28  N   UNL     1       6.861   4.872  17.380  0.00  0.00    +0.000 NA
ATOM     29  N   UNL     1       5.562   4.564  17.655  0.00  0.00    +0.000 N 
ATOM     30  C   UNL     1       4.932   4.856  18.877  0.00  0.00    +0.000 A 
ATOM     31  O   UNL     1       5.488   5.492  19.767  0.00  0.00    +0.000 OA
ATOM     32  H   UNL     1       3.171   3.079  15.974  0.00  0.00    +0.000 HD
ENDBRANCH  20  21
ENDBRANCH   2  20
TORSDOF 5
ENDMDL
MODEL 8
REMARK VINA RESULT:      -8.5      7.778     10.743
REMARK  Name = 
REMARK  8 active torsions:
REMARK  status: ('A' for Active; 'I' for Inactive)
REMARK    1  A    between atoms: C_1  and  C_2
REMARK    2  A    between atoms: C_5  and  S_6
REMARK    3  A    between atoms: S_6  and  C_7
REMARK    4  A    between atoms: C_10  and  N_11
REMARK    5  A    between atoms: C_12  and  C_14
REMARK    6  A    between atoms: C_14  and  C_15
REMARK    7  A    between atoms: C_16  and  C_17
REMARK    8  A    between atoms: C_28  and  C_29
REMARK                            x       y       z     vdW  Elec       q    Type
REMARK                         _______ _______ _______ _____ _____    ______ ____
ROOT
ATOM      1  N   UNL     1       9.002   8.399  19.107  0.00  0.00    +0.000 N 
ATOM      2  C   UNL     1       8.980   9.765  18.901  0.00  0.00    +0.000 C 
ATOM      3  O   UNL     1       8.316  10.344  18.044  0.00  0.00    +0.000 OA
ATOM      4  H   UNL     1       9.405   8.064  19.978  0.00  0.00    +0.000 HD
ENDROOT
BRANCH   1   8
ATOM      5  C   UNL     1       6.079   5.866  17.426  0.00  0.00    +0.000 A 
ATOM      6  C   UNL     1       6.941   5.401  18.425  0.00  0.00    +0.000 A 
ATOM      7  C   UNL     1       7.936   6.236  18.950  0.00  0.00    +0.000 A 
ATOM      8  C   UNL     1       8.083   7.540  18.475  0.00  0.00    +0.000 A 
ATOM      9  C   UNL     1       7.237   8.010  17.472  0.00  0.00    +0.000 A 
ATOM     10  C   UNL     1       6.254   7.165  16.933  0.00  0.00    +0.000 A 
BRANCH   5  11
ATOM     11  S   UNL     1       4.849   4.794  16.714  0.00  0.00    +0.000 S 
BRANCH  11  16
ATOM     12  C   UNL     1       1.659   2.936  21.619  0.00  0.00    +0.000 C 
ATOM     13  C   UNL     1       2.400   3.358  20.384  0.00  0.00    +0.000 A 
ATOM     14  C   UNL     1       3.328   2.517  19.771  0.00  0.00    +0.000 A 
ATOM     15  C   UNL     1       4.039   2.946  18.643  0.00  0.00    +0.000 A 
ATOM     16  C   UNL     1       3.836   4.218  18.085  0.00  0.00    +0.000 A 
ATOM     17  C   UNL     1       2.879   5.067  18.689  0.00  0.00    +0.000 A 
ATOM     18  C   UNL     1       2.560   6.462  18.215  0.00  0.00    +0.000 C 
ATOM     19  C   UNL     1       2.181   4.624  19.834  0.00  0.00    +0.000 A 
ENDBRANCH  11  16
ENDBRANCH   5  11
ENDBRANCH   1   8
BRANCH   2  20
ATOM     20  C   UNL     1       9.899  10.553  19.845  0.00  0.00    +0.000 C 
BRANCH  20  21
ATOM     21  C   UNL     1       9.898  12.020  19.495  0.00  0.00    +0.000 A 
ATOM     22  C   UNL     1       9.211  13.008  20.109  0.00  0.00    +0.000 A 
ATOM     23  C   UNL     1       8.326  12.798  21.318  0.00  0.00    +0.000 C 
ATOM     24  N   UNL     1       9.256  14.328  19.660  0.00  0.00    +0.000 N 
ATOM     25  C   UNL     1       9.973  14.681  18.578  0.00  0.00    +0.000 A 
ATOM     26  C   UNL     1      10.127  15.850  17.872  0.00  0.00    +0.000 A 
ATOM     27  C   UNL     1      11.025  15.511  16.837  0.00  0.00    +0.000 A 
ATOM     28  N   UNL     1      11.418  14.235  16.884  0.00  0.00    +0.000 NA
ATOM     29  N   UNL     1      10.740  13.725  17.950  0.00  0.00    +0.000 N 
ATOM     30  C   UNL     1      10.809  12.379  18.348  0.00  0.00    +0.000 A 
ATOM     31  O   UNL     1      11.559  11.573  17.809  0.00  0.00    +0.000 OA
ATOM     32  H   UNL     1       8.661  14.996  20.145  0.00  0.00    +0.000 HD
ENDBRANCH  20  21
ENDBRANCH   2  20
TORSDOF 5
ENDMDL
MODEL 9
REMARK VINA RESULT:      -8.4      1.744      3.207
REMARK  Name = 
REMARK  8 active torsions:
REMARK  status: ('A' for Active; 'I' for Inactive)
REMARK    1  A    between atoms: C_1  and  C_2
REMARK    2  A    between atoms: C_5  and  S_6
REMARK    3  A    between atoms: S_6  and  C_7
REMARK    4  A    between atoms: C_10  and  N_11
REMARK    5  A    between atoms: C_12  and  C_14
REMARK    6  A    between atoms: C_14  and  C_15
REMARK    7  A    between atoms: C_16  and  C_17
REMARK    8  A    between atoms: C_28  and  C_29
REMARK                            x       y       z     vdW  Elec       q    Type
REMARK                         _______ _______ _______ _____ _____    ______ ____
ROOT
ATOM      1  N   UNL     1       0.487  10.953  18.784  0.00  0.00    +0.000 N 
ATOM      2  C   UNL     1      -0.872  11.140  18.621  0.00  0.00    +0.000 C 
ATOM      3  O   UNL     1      -1.693  10.247  18.422  0.00  0.00    +0.000 OA
ATOM      4  H   UNL     1       1.023  11.728  19.164  0.00  0.00    +0.000 HD
ENDROOT
BRANCH   1   8
ATOM      5  C   UNL     1       2.404   7.231  19.290  0.00  0.00    +0.000 A 
ATOM      6  C   UNL     1       2.345   7.841  18.032  0.00  0.00    +0.000 A 
ATOM      7  C   UNL     1       1.672   9.058  17.864  0.00  0.00    +0.000 A 
ATOM      8  C   UNL     1       1.045   9.670  18.950  0.00  0.00    +0.000 A 
ATOM      9  C   UNL     1       1.087   9.066  20.205  0.00  0.00    +0.000 A 
ATOM     10  C   UNL     1       1.745   7.836  20.367  0.00  0.00    +0.000 A 
BRANCH   5  11
ATOM     11  S   UNL     1       3.209   5.657  19.501  0.00  0.00    +0.000 S 
BRANCH  11  16
ATOM     12  C   UNL     1       6.867   4.611  14.683  0.00  0.00    +0.000 C 
ATOM     13  C   UNL     1       5.945   4.913  15.828  0.00  0.00    +0.000 A 
ATOM     14  C   UNL     1       6.193   5.971  16.700  0.00  0.00    +0.000 A 
ATOM     15  C   UNL     1       5.344   6.210  17.788  0.00  0.00    +0.000 A 
ATOM     16  C   UNL     1       4.214   5.410  18.029  0.00  0.00    +0.000 A 
ATOM     17  C   UNL     1       3.946   4.349  17.135  0.00  0.00    +0.000 A 
ATOM     18  C   UNL     1       2.784   3.397  17.268  0.00  0.00    +0.000 C 
ATOM     19  C   UNL     1       4.821   4.113  16.052  0.00  0.00    +0.000 A 
ENDBRANCH  11  16
ENDBRANCH   5  11
ENDBRANCH   1   8
BRANCH   2  20
ATOM     20  C   UNL     1      -1.313  12.608  18.688  0.00  0.00    +0.000 C 
BRANCH  20  21
ATOM     21  C   UNL     1      -1.856  12.944  20.055  0.00  0.00    +0.000 A 
ATOM     22  C   UNL     1      -3.136  12.844  20.474  0.00  0.00    +0.000 A 
ATOM     23  C   UNL     1      -4.268  12.321  19.617  0.00  0.00    +0.000 C 
ATOM     24  N   UNL     1      -3.526  13.232  21.756  0.00  0.00    +0.000 N 
ATOM     25  C   UNL     1      -2.647  13.747  22.634  0.00  0.00    +0.000 A 
ATOM     26  C   UNL     1      -2.758  14.284  23.895  0.00  0.00    +0.000 A 
ATOM     27  C   UNL     1      -1.434  14.638  24.235  0.00  0.00    +0.000 A 
ATOM     28  N   UNL     1      -0.551  14.343  23.277  0.00  0.00    +0.000 NA
ATOM     29  N   UNL     1      -1.318  13.815  22.280  0.00  0.00    +0.000 N 
ATOM     30  C   UNL     1      -0.808  13.405  21.037  0.00  0.00    +0.000 A 
ATOM     31  O   UNL     1       0.392  13.414  20.784  0.00  0.00    +0.000 OA
ATOM     32  H   UNL     1      -4.520  13.179  21.967  0.00  0.00    +0.000 HD
ENDBRANCH  20  21
ENDBRANCH   2  20
TORSDOF 5
ENDMDL
