MODEL 1
REMARK VINA RESULT:      -9.1      0.000      0.000
REMARK  Name = 
REMARK  4 active torsions:
REMARK  status: ('A' for Active; 'I' for Inactive)
REMARK    1  A    between atoms: C_2  and  C_11
REMARK    2  A    between atoms: N_3  and  C_4
REMARK    3  A    between atoms: C_16  and  C_17
REMARK    4  A    between atoms: C_20  and  C_21
REMARK                            x       y       z     vdW  Elec       q    Type
REMARK                         _______ _______ _______ _____ _____    ______ ____
ROOT
ATOM      1  C   UNL     1       2.439   3.737  19.161  0.00  0.00    +0.000 A 
ATOM      2  C   UNL     1       2.244   2.354  19.337  0.00  0.00    +0.000 A 
ATOM      3  C   UNL     1       1.950   1.834  20.595  0.00  0.00    +0.000 A 
ATOM      4  C   UNL     1       1.875   2.686  21.693  0.00  0.00    +0.000 A 
ATOM      5  C   UNL     1       2.018   4.067  21.521  0.00  0.00    +0.000 A 
ATOM      6  C   UNL     1       2.247   4.619  20.246  0.00  0.00    +0.000 A 
ENDROOT
BRANCH   6   7
ATOM      7  C   UNL     1       2.125   6.060  20.038  0.00  0.00    +0.000 A 
ATOM      8  N   UNL     1       2.579   6.756  19.014  0.00  0.00    +0.000 NA
ATOM      9  C   UNL     1       2.146   8.024  19.252  0.00  0.00    +0.000 A 
ATOM     10  C   UNL     1       1.430   8.076  20.426  0.00  0.00    +0.000 A 
ATOM     11  O   UNL     1       1.410   6.803  20.950  0.00  0.00    +0.000 OA
BRANCH  10  12
ATOM     12  C   UNL     1       0.731   9.150  21.121  0.00  0.00    +0.000 A 
ATOM     13  C   UNL     1       0.239   8.908  22.419  0.00  0.00    +0.000 A 
ATOM     14  C   UNL     1      -0.434   9.899  23.131  0.00  0.00    +0.000 A 
ATOM     15  C   UNL     1      -0.627  11.140  22.551  0.00  0.00    +0.000 A 
ATOM     16  F   UNL     1      -1.270  12.096  23.233  0.00  0.00    +0.000 F 
ATOM     17  C   UNL     1      -0.157  11.407  21.267  0.00  0.00    +0.000 A 
ATOM     18  C   UNL     1       0.520  10.411  20.553  0.00  0.00    +0.000 A 
ENDBRANCH  10  12
ENDBRANCH   6   7
BRANCH   1  20
ATOM     19  O   UNL     1       2.114   3.984  16.835  0.00  0.00    +0.000 OA
ATOM     20  C   UNL     1       2.865   4.150  17.788  0.00  0.00    +0.000 C 
ATOM     21  N   UNL     1       4.165   4.597  17.646  0.00  0.00    +0.000 N 
ATOM     22  H   UNL     1       4.751   4.669  18.474  0.00  0.00    +0.000 HD
BRANCH  21  23
ATOM     23  C   UNL     1       4.725   4.951  16.346  0.00  0.00    +0.000 C 
ATOM     24  C   UNL     1       5.882   4.013  15.987  0.00  0.00    +0.000 C 
ATOM     25  C   UNL     1       7.075   4.420  16.849  0.00  0.00    +0.000 C 
ATOM     26  S   UNL     1       6.886   6.173  17.147  0.00  0.00    +0.000 S 
ATOM     27  O   UNL     1       6.669   6.370  18.567  0.00  0.00    +0.000 OA
ATOM     28  O   UNL     1       7.897   6.900  16.410  0.00  0.00    +0.000 OA
ATOM     29  C   UNL     1       5.321   6.355  16.325  0.00  0.00    +0.000 C 
ENDBRANCH  21  23
ENDBRANCH   1  20
TORSDOF 4
ENDMDL
MODEL 2
REMARK VINA RESULT:      -9.0      1.416      1.892
REMARK  Name = 
REMARK  4 active torsions:
REMARK  status: ('A' for Active; 'I' for Inactive)
REMARK    1  A    between atoms: C_2  and  C_11
REMARK    2  A    between atoms: N_3  and  C_4
REMARK    3  A    between atoms: C_16  and  C_17
REMARK    4  A    between atoms: C_20  and  C_21
REMARK                            x       y       z     vdW  Elec       q    Type
REMARK                         _______ _______ _______ _____ _____    ______ ____
ROOT
ATOM      1  C   UNL     1       3.346   3.884  19.447  0.00  0.00    +0.000 A 
ATOM      2  C   UNL     1       3.277   2.494  19.242  0.00  0.00    +0.000 A 
ATOM      3  C   UNL     1       2.107   1.792  19.525  0.00  0.00    +0.000 A 
ATOM      4  C   UNL     1       1.006   2.468  20.040  0.00  0.00    +0.000 A 
ATOM      5  C   UNL     1       1.047   3.858  20.201  0.00  0.00    +0.000 A 
ATOM      6  C   UNL     1       2.196   4.593  19.856  0.00  0.00    +0.000 A 
ENDROOT
BRANCH   6   7
ATOM      7  C   UNL     1       2.137   6.051  19.771  0.00  0.00    +0.000 A 
ATOM      8  N   UNL     1       2.672   6.815  18.841  0.00  0.00    +0.000 NA
ATOM      9  C   UNL     1       2.271   8.074  19.167  0.00  0.00    +0.000 A 
ATOM     10  C   UNL     1       1.490   8.051  20.301  0.00  0.00    +0.000 A 
ATOM     11  O   UNL     1       1.396   6.739  20.706  0.00  0.00    +0.000 OA
BRANCH  10  12
ATOM     12  C   UNL     1       0.790   9.087  21.051  0.00  0.00    +0.000 A 
ATOM     13  C   UNL     1       0.401   8.816  22.378  0.00  0.00    +0.000 A 
ATOM     14  C   UNL     1      -0.268   9.770  23.142  0.00  0.00    +0.000 A 
ATOM     15  C   UNL     1      -0.561  11.003  22.585  0.00  0.00    +0.000 A 
ATOM     16  F   UNL     1      -1.200  11.923  23.318  0.00  0.00    +0.000 F 
ATOM     17  C   UNL     1      -0.194  11.298  21.275  0.00  0.00    +0.000 A 
ATOM     18  C   UNL     1       0.480  10.339  20.507  0.00  0.00    +0.000 A 
ENDBRANCH  10  12
ENDBRANCH   6   7
BRANCH   1  20
ATOM     19  O   UNL     1       5.508   4.543  20.129  0.00  0.00    +0.000 OA
ATOM     20  C   UNL     1       4.692   4.495  19.218  0.00  0.00    +0.000 C 
ATOM     21  N   UNL     1       4.903   5.099  17.993  0.00  0.00    +0.000 N 
ATOM     22  H   UNL     1       4.165   5.060  17.295  0.00  0.00    +0.000 HD
BRANCH  21  23
ATOM     23  C   UNL     1       6.143   5.800  17.677  0.00  0.00    +0.000 C 
ATOM     24  C   UNL     1       5.856   7.036  16.818  0.00  0.00    +0.000 C 
ATOM     25  C   UNL     1       5.530   6.541  15.412  0.00  0.00    +0.000 C 
ATOM     26  S   UNL     1       6.444   5.017  15.207  0.00  0.00    +0.000 S 
ATOM     27  O   UNL     1       5.490   3.933  15.067  0.00  0.00    +0.000 OA
ATOM     28  O   UNL     1       7.524   5.224  14.268  0.00  0.00    +0.000 OA
ATOM     29  C   UNL     1       7.107   4.951  16.855  0.00  0.00    +0.000 C 
ENDBRANCH  21  23
ENDBRANCH   1  20
TORSDOF 4
ENDMDL
MODEL 3
REMARK VINA RESULT:      -8.7      4.473      7.356
REMARK  Name = 
REMARK  4 active torsions:
REMARK  status: ('A' for Active; 'I' for Inactive)
REMARK    1  A    between atoms: C_2  and  C_11
REMARK    2  A    between atoms: N_3  and  C_4
REMARK    3  A    between atoms: C_16  and  C_17
REMARK    4  A    between atoms: C_20  and  C_21
REMARK                            x       y       z     vdW  Elec       q    Type
REMARK                         _______ _______ _______ _____ _____    ______ ____
ROOT
ATOM      1  C   UNL     1       5.447   5.229  15.982  0.00  0.00    +0.000 A 
ATOM      2  C   UNL     1       5.037   4.298  15.010  0.00  0.00    +0.000 A 
ATOM      3  C   UNL     1       5.877   3.960  13.952  0.00  0.00    +0.000 A 
ATOM      4  C   UNL     1       7.123   4.568  13.840  0.00  0.00    +0.000 A 
ATOM      5  C   UNL     1       7.562   5.457  14.828  0.00  0.00    +0.000 A 
ATOM      6  C   UNL     1       6.755   5.759  15.941  0.00  0.00    +0.000 A 
ENDROOT
BRANCH   6   7
ATOM      7  C   UNL     1       7.321   6.466  17.088  0.00  0.00    +0.000 A 
ATOM      8  N   UNL     1       7.702   5.942  18.236  0.00  0.00    +0.000 NA
ATOM      9  C   UNL     1       8.224   6.990  18.928  0.00  0.00    +0.000 A 
ATOM     10  C   UNL     1       8.152   8.144  18.181  0.00  0.00    +0.000 A 
ATOM     11  O   UNL     1       7.564   7.817  16.980  0.00  0.00    +0.000 OA
BRANCH  10  12
ATOM     12  C   UNL     1       8.582   9.516  18.420  0.00  0.00    +0.000 A 
ATOM     13  C   UNL     1       8.178  10.520  17.517  0.00  0.00    +0.000 A 
ATOM     14  C   UNL     1       8.558  11.848  17.699  0.00  0.00    +0.000 A 
ATOM     15  C   UNL     1       9.351  12.186  18.782  0.00  0.00    +0.000 A 
ATOM     16  F   UNL     1       9.715  13.461  18.961  0.00  0.00    +0.000 F 
ATOM     17  C   UNL     1       9.770  11.215  19.688  0.00  0.00    +0.000 A 
ATOM     18  C   UNL     1       9.387   9.880  19.506  0.00  0.00    +0.000 A 
ENDBRANCH  10  12
ENDBRANCH   6   7
BRANCH   1  20
ATOM     19  O   UNL     1       4.057   6.758  17.125  0.00  0.00    +0.000 OA
ATOM     20  C   UNL     1       4.409   5.592  16.995  0.00  0.00    +0.000 C 
ATOM     21  N   UNL     1       3.978   4.584  17.837  0.00  0.00    +0.000 N 
ATOM     22  H   UNL     1       4.343   3.645  17.702  0.00  0.00    +0.000 HD
BRANCH  21  23
ATOM     23  C   UNL     1       3.029   4.828  18.917  0.00  0.00    +0.000 C 
ATOM     24  C   UNL     1       3.344   3.932  20.120  0.00  0.00    +0.000 C 
ATOM     25  C   UNL     1       2.891   2.519  19.758  0.00  0.00    +0.000 C 
ATOM     26  S   UNL     1       1.520   2.720  18.628  0.00  0.00    +0.000 S 
ATOM     27  O   UNL     1       1.913   2.185  17.340  0.00  0.00    +0.000 OA
ATOM     28  O   UNL     1       0.292   2.332  19.286  0.00  0.00    +0.000 OA
ATOM     29  C   UNL     1       1.593   4.493  18.528  0.00  0.00    +0.000 C 
ENDBRANCH  21  23
ENDBRANCH   1  20
TORSDOF 4
ENDMDL
MODEL 4
REMARK VINA RESULT:      -8.6      4.506      7.265
REMARK  Name = 
REMARK  4 active torsions:
REMARK  status: ('A' for Active; 'I' for Inactive)
REMARK    1  A    between atoms: C_2  and  C_11
REMARK    2  A    between atoms: N_3  and  C_4
REMARK    3  A    between atoms: C_16  and  C_17
REMARK    4  A    between atoms: C_20  and  C_21
REMARK                            x       y       z     vdW  Elec       q    Type
REMARK                         _______ _______ _______ _____ _____    ______ ____
ROOT
ATOM      1  C   UNL     1       5.556   4.946  16.062  0.00  0.00    +0.000 A 
ATOM      2  C   UNL     1       5.199   4.014  15.071  0.00  0.00    +0.000 A 
ATOM      3  C   UNL     1       5.955   3.892  13.907  0.00  0.00    +0.000 A 
ATOM      4  C   UNL     1       7.057   4.718  13.710  0.00  0.00    +0.000 A 
ATOM      5  C   UNL     1       7.450   5.614  14.711  0.00  0.00    +0.000 A 
ATOM      6  C   UNL     1       6.739   5.703  15.924  0.00  0.00    +0.000 A 
ENDROOT
BRANCH   6   7
ATOM      7  C   UNL     1       7.307   6.433  17.055  0.00  0.00    +0.000 A 
ATOM      8  N   UNL     1       7.709   5.930  18.205  0.00  0.00    +0.000 NA
ATOM      9  C   UNL     1       8.222   6.995  18.877  0.00  0.00    +0.000 A 
ATOM     10  C   UNL     1       8.123   8.138  18.117  0.00  0.00    +0.000 A 
ATOM     11  O   UNL     1       7.527   7.787  16.927  0.00  0.00    +0.000 OA
BRANCH  10  12
ATOM     12  C   UNL     1       8.535   9.519  18.334  0.00  0.00    +0.000 A 
ATOM     13  C   UNL     1       9.340   9.819  19.451  0.00  0.00    +0.000 A 
ATOM     14  C   UNL     1       9.764  11.122  19.705  0.00  0.00    +0.000 A 
ATOM     15  C   UNL     1       9.383  12.140  18.849  0.00  0.00    +0.000 A 
ATOM     16  F   UNL     1       9.792  13.392  19.088  0.00  0.00    +0.000 F 
ATOM     17  C   UNL     1       8.583  11.875  17.740  0.00  0.00    +0.000 A 
ATOM     18  C   UNL     1       8.158  10.566  17.484  0.00  0.00    +0.000 A 
ENDBRANCH  10  12
ENDBRANCH   6   7
BRANCH   1  20
ATOM     19  O   UNL     1       3.855   6.030  17.290  0.00  0.00    +0.000 OA
ATOM     20  C   UNL     1       4.597   5.060  17.205  0.00  0.00    +0.000 C 
ATOM     21  N   UNL     1       4.687   4.098  18.194  0.00  0.00    +0.000 N 
ATOM     22  H   UNL     1       5.357   3.342  18.080  0.00  0.00    +0.000 HD
BRANCH  21  23
ATOM     23  C   UNL     1       3.864   4.144  19.397  0.00  0.00    +0.000 C 
ATOM     24  C   UNL     1       3.888   2.791  20.115  0.00  0.00    +0.000 C 
ATOM     25  C   UNL     1       3.020   1.835  19.302  0.00  0.00    +0.000 C 
ATOM     26  S   UNL     1       1.775   2.852  18.518  0.00  0.00    +0.000 S 
ATOM     27  O   UNL     1       1.980   2.793  17.084  0.00  0.00    +0.000 OA
ATOM     28  O   UNL     1       0.489   2.597  19.128  0.00  0.00    +0.000 OA
ATOM     29  C   UNL     1       2.394   4.415  19.095  0.00  0.00    +0.000 C 
ENDBRANCH  21  23
ENDBRANCH   1  20
TORSDOF 4
ENDMDL
MODEL 5
REMARK VINA RESULT:      -8.3      1.758      2.548
REMARK  Name = 
REMARK  4 active torsions:
REMARK  status: ('A' for Active; 'I' for Inactive)
REMARK    1  A    between atoms: C_2  and  C_11
REMARK    2  A    between atoms: N_3  and  C_4
REMARK    3  A    between atoms: C_16  and  C_17
REMARK    4  A    between atoms: C_20  and  C_21
REMARK                            x       y       z     vdW  Elec       q    Type
REMARK                         _______ _______ _______ _____ _____    ______ ____
ROOT
ATOM      1  C   UNL     1       3.636   4.062  19.544  0.00  0.00    +0.000 A 
ATOM      2  C   UNL     1       3.525   2.676  19.765  0.00  0.00    +0.000 A 
ATOM      3  C   UNL     1       2.319   2.119  20.181  0.00  0.00    +0.000 A 
ATOM      4  C   UNL     1       1.220   2.942  20.408  0.00  0.00    +0.000 A 
ATOM      5  C   UNL     1       1.305   4.314  20.144  0.00  0.00    +0.000 A 
ATOM      6  C   UNL     1       2.496   4.886  19.656  0.00  0.00    +0.000 A 
ENDROOT
BRANCH   6   7
ATOM      7  C   UNL     1       2.493   6.250  19.133  0.00  0.00    +0.000 A 
ATOM      8  N   UNL     1       3.039   6.671  18.009  0.00  0.00    +0.000 NA
ATOM      9  C   UNL     1       2.696   7.985  17.940  0.00  0.00    +0.000 A 
ATOM     10  C   UNL     1       1.941   8.344  19.034  0.00  0.00    +0.000 A 
ATOM     11  O   UNL     1       1.802   7.222  19.820  0.00  0.00    +0.000 OA
BRANCH  10  12
ATOM     12  C   UNL     1       1.301   9.589  19.439  0.00  0.00    +0.000 A 
ATOM     13  C   UNL     1       1.397  10.708  18.589  0.00  0.00    +0.000 A 
ATOM     14  C   UNL     1       0.803  11.923  18.926  0.00  0.00    +0.000 A 
ATOM     15  C   UNL     1       0.110  12.033  20.119  0.00  0.00    +0.000 A 
ATOM     16  F   UNL     1      -0.465  13.197  20.443  0.00  0.00    +0.000 F 
ATOM     17  C   UNL     1       0.002  10.945  20.982  0.00  0.00    +0.000 A 
ATOM     18  C   UNL     1       0.599   9.725  20.643  0.00  0.00    +0.000 A 
ENDBRANCH  10  12
ENDBRANCH   6   7
BRANCH   1  20
ATOM     19  O   UNL     1       5.745   4.964  20.103  0.00  0.00    +0.000 OA
ATOM     20  C   UNL     1       5.012   4.546  19.215  0.00  0.00    +0.000 C 
ATOM     21  N   UNL     1       5.348   4.611  17.876  0.00  0.00    +0.000 N 
ATOM     22  H   UNL     1       4.674   4.288  17.187  0.00  0.00    +0.000 HD
BRANCH  21  23
ATOM     23  C   UNL     1       6.628   5.142  17.423  0.00  0.00    +0.000 C 
ATOM     24  C   UNL     1       6.466   6.583  16.927  0.00  0.00    +0.000 C 
ATOM     25  C   UNL     1       5.773   6.516  15.569  0.00  0.00    +0.000 C 
ATOM     26  S   UNL     1       6.265   4.957  14.846  0.00  0.00    +0.000 S 
ATOM     27  O   UNL     1       5.084   4.124  14.720  0.00  0.00    +0.000 OA
ATOM     28  O   UNL     1       7.163   5.199  13.738  0.00  0.00    +0.000 OA
ATOM     29  C   UNL     1       7.201   4.370  16.238  0.00  0.00    +0.000 C 
ENDBRANCH  21  23
ENDBRANCH   1  20
TORSDOF 4
ENDMDL
MODEL 6
REMARK VINA RESULT:      -8.1      2.442      4.735
REMARK  Name = 
REMARK  4 active torsions:
REMARK  status: ('A' for Active; 'I' for Inactive)
REMARK    1  A    between atoms: C_2  and  C_11
REMARK    2  A    between atoms: N_3  and  C_4
REMARK    3  A    between atoms: C_16  and  C_17
REMARK    4  A    between atoms: C_20  and  C_21
REMARK                            x       y       z     vdW  Elec       q    Type
REMARK                         _______ _______ _______ _____ _____    ______ ____
ROOT
ATOM      1  C   UNL     1       4.307   4.462  16.938  0.00  0.00    +0.000 A 
ATOM      2  C   UNL     1       5.354   3.876  16.202  0.00  0.00    +0.000 A 
ATOM      3  C   UNL     1       6.450   4.635  15.800  0.00  0.00    +0.000 A 
ATOM      4  C   UNL     1       6.497   5.992  16.103  0.00  0.00    +0.000 A 
ATOM      5  C   UNL     1       5.486   6.574  16.876  0.00  0.00    +0.000 A 
ATOM      6  C   UNL     1       4.405   5.808  17.351  0.00  0.00    +0.000 A 
ENDROOT
BRANCH   6   7
ATOM      7  C   UNL     1       3.510   6.354  18.369  0.00  0.00    +0.000 A 
ATOM      8  N   UNL     1       3.374   5.938  19.613  0.00  0.00    +0.000 NA
ATOM      9  C   UNL     1       2.489   6.812  20.164  0.00  0.00    +0.000 A 
ATOM     10  C   UNL     1       2.099   7.752  19.237  0.00  0.00    +0.000 A 
ATOM     11  O   UNL     1       2.756   7.464  18.062  0.00  0.00    +0.000 OA
BRANCH  10  12
ATOM     12  C   UNL     1       1.214   8.908  19.300  0.00  0.00    +0.000 A 
ATOM     13  C   UNL     1       0.671   9.278  20.547  0.00  0.00    +0.000 A 
ATOM     14  C   UNL     1      -0.179  10.376  20.666  0.00  0.00    +0.000 A 
ATOM     15  C   UNL     1      -0.501  11.112  19.538  0.00  0.00    +0.000 A 
ATOM     16  F   UNL     1      -1.314  12.169  19.650  0.00  0.00    +0.000 F 
ATOM     17  C   UNL     1       0.016  10.767  18.292  0.00  0.00    +0.000 A 
ATOM     18  C   UNL     1       0.871   9.664  18.173  0.00  0.00    +0.000 A 
ENDBRANCH  10  12
ENDBRANCH   6   7
BRANCH   1  20
ATOM     19  O   UNL     1       2.245   3.459  16.373  0.00  0.00    +0.000 OA
ATOM     20  C   UNL     1       3.138   3.568  17.204  0.00  0.00    +0.000 C 
ATOM     21  N   UNL     1       3.065   2.992  18.459  0.00  0.00    +0.000 N 
ATOM     22  H   UNL     1       3.821   3.160  19.118  0.00  0.00    +0.000 HD
BRANCH  21  23
ATOM     23  C   UNL     1       1.935   2.167  18.869  0.00  0.00    +0.000 C 
ATOM     24  C   UNL     1       0.680   3.029  19.049  0.00  0.00    +0.000 C 
ATOM     25  C   UNL     1       0.854   3.810  20.349  0.00  0.00    +0.000 C 
ATOM     26  S   UNL     1       1.871   2.783  21.403  0.00  0.00    +0.000 S 
ATOM     27  O   UNL     1       3.128   3.470  21.626  0.00  0.00    +0.000 OA
ATOM     28  O   UNL     1       1.070   2.263  22.489  0.00  0.00    +0.000 OA
ATOM     29  C   UNL     1       2.157   1.490  20.218  0.00  0.00    +0.000 C 
ENDBRANCH  21  23
ENDBRANCH   1  20
TORSDOF 4
ENDMDL
MODEL 7
REMARK VINA RESULT:      -8.0      2.423      2.880
REMARK  Name = 
REMARK  4 active torsions:
REMARK  status: ('A' for Active; 'I' for Inactive)
REMARK    1  A    between atoms: C_2  and  C_11
REMARK    2  A    between atoms: N_3  and  C_4
REMARK    3  A    between atoms: C_16  and  C_17
REMARK    4  A    between atoms: C_20  and  C_21
REMARK                            x       y       z     vdW  Elec       q    Type
REMARK                         _______ _______ _______ _____ _____    ______ ____
ROOT
ATOM      1  C   UNL     1       3.673   4.225  19.522  0.00  0.00    +0.000 A 
ATOM      2  C   UNL     1       3.443   2.890  19.901  0.00  0.00    +0.000 A 
ATOM      3  C   UNL     1       2.186   2.486  20.346  0.00  0.00    +0.000 A 
ATOM      4  C   UNL     1       1.157   3.417  20.444  0.00  0.00    +0.000 A 
ATOM      5  C   UNL     1       1.362   4.736  20.024  0.00  0.00    +0.000 A 
ATOM      6  C   UNL     1       2.605   5.147  19.505  0.00  0.00    +0.000 A 
ENDROOT
BRANCH   6   7
ATOM      7  C   UNL     1       2.726   6.434  18.825  0.00  0.00    +0.000 A 
ATOM      8  N   UNL     1       3.507   6.723  17.803  0.00  0.00    +0.000 NA
ATOM      9  C   UNL     1       3.197   8.011  17.495  0.00  0.00    +0.000 A 
ATOM     10  C   UNL     1       2.224   8.488  18.344  0.00  0.00    +0.000 A 
ATOM     11  O   UNL     1       1.909   7.471  19.217  0.00  0.00    +0.000 OA
BRANCH  10  12
ATOM     12  C   UNL     1       1.520   9.760  18.440  0.00  0.00    +0.000 A 
ATOM     13  C   UNL     1       0.114   9.751  18.537  0.00  0.00    +0.000 A 
ATOM     14  C   UNL     1      -0.610  10.938  18.634  0.00  0.00    +0.000 A 
ATOM     15  C   UNL     1       0.063  12.147  18.628  0.00  0.00    +0.000 A 
ATOM     16  F   UNL     1      -0.629  13.288  18.725  0.00  0.00    +0.000 F 
ATOM     17  C   UNL     1       1.452  12.188  18.528  0.00  0.00    +0.000 A 
ATOM     18  C   UNL     1       2.179  10.995  18.432  0.00  0.00    +0.000 A 
ENDBRANCH  10  12
ENDBRANCH   6   7
BRANCH   1  20
ATOM     19  O   UNL     1       5.818   5.088  20.004  0.00  0.00    +0.000 OA
ATOM     20  C   UNL     1       5.091   4.553  19.176  0.00  0.00    +0.000 C 
ATOM     21  N   UNL     1       5.480   4.340  17.867  0.00  0.00    +0.000 N 
ATOM     22  H   UNL     1       4.811   3.933  17.218  0.00  0.00    +0.000 HD
BRANCH  21  23
ATOM     23  C   UNL     1       6.810   4.696  17.386  0.00  0.00    +0.000 C 
ATOM     24  C   UNL     1       6.894   6.200  17.103  0.00  0.00    +0.000 C 
ATOM     25  C   UNL     1       6.126   6.458  15.809  0.00  0.00    +0.000 C 
ATOM     26  S   UNL     1       6.275   4.959  14.846  0.00  0.00    +0.000 S 
ATOM     27  O   UNL     1       4.954   4.377  14.707  0.00  0.00    +0.000 OA
ATOM     28  O   UNL     1       7.140   5.198  13.711  0.00  0.00    +0.000 OA
ATOM     29  C   UNL     1       7.161   4.017  16.066  0.00  0.00    +0.000 C 
ENDBRANCH  21  23
ENDBRANCH   1  20
TORSDOF 4
ENDMDL
MODEL 8
REMARK VINA RESULT:      -7.8      4.872      8.326
REMARK  Name = 
REMARK  4 active torsions:
REMARK  status: ('A' for Active; 'I' for Inactive)
REMARK    1  A    between atoms: C_2  and  C_11
REMARK    2  A    between atoms: N_3  and  C_4
REMARK    3  A    between atoms: C_16  and  C_17
REMARK    4  A    between atoms: C_20  and  C_21
REMARK                            x       y       z     vdW  Elec       q    Type
REMARK                         _______ _______ _______ _____ _____    ______ ____
ROOT
ATOM      1  C   UNL     1      -0.131  11.153  20.900  0.00  0.00    +0.000 A 
ATOM      2  C   UNL     1      -0.615  11.557  22.158  0.00  0.00    +0.000 A 
ATOM      3  C   UNL     1      -0.808  10.625  23.175  0.00  0.00    +0.000 A 
ATOM      4  C   UNL     1      -0.547   9.280  22.937  0.00  0.00    +0.000 A 
ATOM      5  C   UNL     1      -0.019   8.875  21.706  0.00  0.00    +0.000 A 
ATOM      6  C   UNL     1       0.249   9.811  20.689  0.00  0.00    +0.000 A 
ENDROOT
BRANCH   6   7
ATOM      7  C   UNL     1       1.042   9.422  19.525  0.00  0.00    +0.000 A 
ATOM      8  N   UNL     1       1.409  10.193  18.521  0.00  0.00    +0.000 NA
ATOM      9  C   UNL     1       2.188   9.389  17.747  0.00  0.00    +0.000 A 
ATOM     10  C   UNL     1       2.282   8.132  18.301  0.00  0.00    +0.000 A 
ATOM     11  O   UNL     1       1.539   8.139  19.460  0.00  0.00    +0.000 OA
BRANCH  10  12
ATOM     12  C   UNL     1       2.996   6.922  17.914  0.00  0.00    +0.000 A 
ATOM     13  C   UNL     1       2.383   5.673  18.136  0.00  0.00    +0.000 A 
ATOM     14  C   UNL     1       3.019   4.484  17.783  0.00  0.00    +0.000 A 
ATOM     15  C   UNL     1       4.277   4.532  17.209  0.00  0.00    +0.000 A 
ATOM     16  F   UNL     1       4.889   3.392  16.866  0.00  0.00    +0.000 F 
ATOM     17  C   UNL     1       4.911   5.751  16.982  0.00  0.00    +0.000 A 
ATOM     18  C   UNL     1       4.271   6.945  17.336  0.00  0.00    +0.000 A 
ENDBRANCH  10  12
ENDBRANCH   6   7
BRANCH   1  20
ATOM     19  O   UNL     1      -1.039  12.414  19.121  0.00  0.00    +0.000 OA
ATOM     20  C   UNL     1      -0.081  12.229  19.862  0.00  0.00    +0.000 C 
ATOM     21  N   UNL     1       1.121  12.895  19.710  0.00  0.00    +0.000 N 
ATOM     22  H   UNL     1       1.891  12.661  20.331  0.00  0.00    +0.000 HD
BRANCH  21  23
ATOM     23  C   UNL     1       1.321  13.907  18.679  0.00  0.00    +0.000 C 
ATOM     24  C   UNL     1       2.777  13.902  18.198  0.00  0.00    +0.000 C 
ATOM     25  C   UNL     1       3.615  14.550  19.297  0.00  0.00    +0.000 C 
ATOM     26  S   UNL     1       2.534  15.720  20.110  0.00  0.00    +0.000 S 
ATOM     27  O   UNL     1       2.334  15.277  21.476  0.00  0.00    +0.000 OA
ATOM     28  O   UNL     1       2.949  17.067  19.786  0.00  0.00    +0.000 OA
ATOM     29  C   UNL     1       1.069  15.323  19.186  0.00  0.00    +0.000 C 
ENDBRANCH  21  23
ENDBRANCH   1  20
TORSDOF 4
ENDMDL
MODEL 9
REMARK VINA RESULT:      -7.7      1.620      1.978
REMARK  Name = 
REMARK  4 active torsions:
REMARK  status: ('A' for Active; 'I' for Inactive)
REMARK    1  A    between atoms: C_2  and  C_11
REMARK    2  A    between atoms: N_3  and  C_4
REMARK    3  A    between atoms: C_16  and  C_17
REMARK    4  A    between atoms: C_20  and  C_21
REMARK                            x       y       z     vdW  Elec       q    Type
REMARK                         _______ _______ _______ _____ _____    ______ ____
ROOT
ATOM      1  C   UNL     1       3.049   3.917  18.948  0.00  0.00    +0.000 A 
ATOM      2  C   UNL     1       2.745   2.616  19.391  0.00  0.00    +0.000 A 
ATOM      3  C   UNL     1       1.879   2.416  20.463  0.00  0.00    +0.000 A 
ATOM      4  C   UNL     1       1.331   3.513  21.120  0.00  0.00    +0.000 A 
ATOM      5  C   UNL     1       1.587   4.809  20.657  0.00  0.00    +0.000 A 
ATOM      6  C   UNL     1       2.404   5.028  19.532  0.00  0.00    +0.000 A 
ENDROOT
BRANCH   6   7
ATOM      7  C   UNL     1       2.445   6.345  18.901  0.00  0.00    +0.000 A 
ATOM      8  N   UNL     1       2.973   6.650  17.732  0.00  0.00    +0.000 NA
ATOM      9  C   UNL     1       2.686   7.970  17.568  0.00  0.00    +0.000 A 
ATOM     10  C   UNL     1       1.982   8.448  18.649  0.00  0.00    +0.000 A 
ATOM     11  O   UNL     1       1.820   7.400  19.527  0.00  0.00    +0.000 OA
BRANCH  10  12
ATOM     12  C   UNL     1       1.411   9.749  18.971  0.00  0.00    +0.000 A 
ATOM     13  C   UNL     1       0.298   9.806  19.833  0.00  0.00    +0.000 A 
ATOM     14  C   UNL     1      -0.287  11.023  20.177  0.00  0.00    +0.000 A 
ATOM     15  C   UNL     1       0.231  12.197  19.657  0.00  0.00    +0.000 A 
ATOM     16  F   UNL     1      -0.327  13.368  19.988  0.00  0.00    +0.000 F 
ATOM     17  C   UNL     1       1.326  12.172  18.798  0.00  0.00    +0.000 A 
ATOM     18  C   UNL     1       1.915  10.949  18.454  0.00  0.00    +0.000 A 
ENDBRANCH  10  12
ENDBRANCH   6   7
BRANCH   1  20
ATOM     19  O   UNL     1       3.842   3.548  16.755  0.00  0.00    +0.000 OA
ATOM     20  C   UNL     1       4.081   3.997  17.868  0.00  0.00    +0.000 C 
ATOM     21  N   UNL     1       5.326   4.477  18.229  0.00  0.00    +0.000 N 
ATOM     22  H   UNL     1       5.470   4.794  19.185  0.00  0.00    +0.000 HD
BRANCH  21  23
ATOM     23  C   UNL     1       6.440   4.529  17.289  0.00  0.00    +0.000 C 
ATOM     24  C   UNL     1       7.774   4.577  18.041  0.00  0.00    +0.000 C 
ATOM     25  C   UNL     1       7.917   5.985  18.613  0.00  0.00    +0.000 C 
ATOM     26  S   UNL     1       7.034   7.061  17.490  0.00  0.00    +0.000 S 
ATOM     27  O   UNL     1       5.905   7.628  18.201  0.00  0.00    +0.000 OA
ATOM     28  O   UNL     1       7.980   7.877  16.760  0.00  0.00    +0.000 OA
ATOM     29  C   UNL     1       6.420   5.782  16.420  0.00  0.00    +0.000 C 
ENDBRANCH  21  23
ENDBRANCH   1  20
TORSDOF 4
ENDMDL
