MODEL 1
REMARK VINA RESULT:      -8.4      0.000      0.000
REMARK  Name = 
REMARK  4 active torsions:
REMARK  status: ('A' for Active; 'I' for Inactive)
REMARK    1  A    between atoms: C_4  and  C_5
REMARK    2  A    between atoms: N_7  and  C_8
REMARK    3  A    between atoms: C_8  and  C_9
REMARK    4  A    between atoms: C_12  and  C_13
REMARK                            x       y       z     vdW  Elec       q    Type
REMARK                         _______ _______ _______ _____ _____    ______ ____
ROOT
ATOM      1  C   UNL     1       2.581   5.469  18.741  0.00  0.00    +0.000 C 
ATOM      2  O   UNL     1       1.629   4.830  19.176  0.00  0.00    +0.000 OA
ATOM      3  N   UNL     1       2.870   6.738  19.191  0.00  0.00    +0.000 N 
ATOM      4  H   UNL     1       3.658   7.249  18.820  0.00  0.00    +0.000 HD
ENDROOT
BRANCH   1   8
ATOM      5  O   UNL     1       4.086   1.893  19.475  0.00  0.00    +0.000 OA
ATOM      6  C   UNL     1       4.335   2.940  18.882  0.00  0.00    +0.000 C 
ATOM      7  C   UNL     1       3.543   3.410  17.680  0.00  0.00    +0.000 C 
ATOM      8  C   UNL     1       3.488   4.938  17.621  0.00  0.00    +0.000 C 
ATOM      9  C   UNL     1       4.892   5.494  17.706  0.00  0.00    +0.000 A 
ATOM     10  C   UNL     1       5.275   6.656  17.024  0.00  0.00    +0.000 A 
ATOM     11  C   UNL     1       6.552   7.186  17.213  0.00  0.00    +0.000 A 
ATOM     12  C   UNL     1       7.450   6.561  18.078  0.00  0.00    +0.000 A 
ATOM     13  C   UNL     1       7.081   5.397  18.751  0.00  0.00    +0.000 A 
ATOM     14  C   UNL     1       5.812   4.860  18.550  0.00  0.00    +0.000 A 
ATOM     15  N   UNL     1       5.450   3.676  19.196  0.00  0.00    +0.000 N 
ATOM     16  H   UNL     1       6.045   3.278  19.911  0.00  0.00    +0.000 HD
ENDBRANCH   1   8
BRANCH   3  17
ATOM     17  C   UNL     1       2.115   7.343  20.266  0.00  0.00    +0.000 C 
BRANCH  17  18
ATOM     18  C   UNL     1       1.328   8.544  19.804  0.00  0.00    +0.000 A 
ATOM     19  C   UNL     1       1.395   8.961  18.467  0.00  0.00    +0.000 A 
ATOM     20  C   UNL     1       0.616  10.029  18.014  0.00  0.00    +0.000 A 
ATOM     21  C   UNL     1      -0.247  10.704  18.887  0.00  0.00    +0.000 A 
ATOM     22  C   UNL     1      -0.317  10.286  20.225  0.00  0.00    +0.000 A 
ATOM     23  C   UNL     1       0.464   9.218  20.678  0.00  0.00    +0.000 A 
BRANCH  21  24
ATOM     24  C   UNL     1      -1.093  11.859  18.408  0.00  0.00    +0.000 C 
ATOM     25  F   UNL     1      -2.041  12.249  19.306  0.00  0.00    +0.000 F 
ATOM     26  F   UNL     1      -0.356  12.972  18.138  0.00  0.00    +0.000 F 
ATOM     27  F   UNL     1      -1.768  11.569  17.260  0.00  0.00    +0.000 F 
ENDBRANCH  21  24
ENDBRANCH  17  18
ENDBRANCH   3  17
TORSDOF 4
ENDMDL
MODEL 2
REMARK VINA RESULT:      -8.3      2.395      3.939
REMARK  Name = 
REMARK  4 active torsions:
REMARK  status: ('A' for Active; 'I' for Inactive)
REMARK    1  A    between atoms: C_4  and  C_5
REMARK    2  A    between atoms: N_7  and  C_8
REMARK    3  A    between atoms: C_8  and  C_9
REMARK    4  A    between atoms: C_12  and  C_13
REMARK                            x       y       z     vdW  Elec       q    Type
REMARK                         _______ _______ _______ _____ _____    ______ ____
ROOT
ATOM      1  C   UNL     1       3.607   6.750  18.357  0.00  0.00    +0.000 C 
ATOM      2  O   UNL     1       4.184   7.273  17.409  0.00  0.00    +0.000 OA
ATOM      3  N   UNL     1       2.508   7.332  18.949  0.00  0.00    +0.000 N 
ATOM      4  H   UNL     1       2.048   6.887  19.728  0.00  0.00    +0.000 HD
ENDROOT
BRANCH   1   8
ATOM      5  O   UNL     1       4.954   4.105  15.753  0.00  0.00    +0.000 OA
ATOM      6  C   UNL     1       4.407   4.184  16.850  0.00  0.00    +0.000 C 
ATOM      7  C   UNL     1       5.098   4.753  18.072  0.00  0.00    +0.000 C 
ATOM      8  C   UNL     1       4.096   5.444  19.000  0.00  0.00    +0.000 C 
ATOM      9  C   UNL     1       2.959   4.493  19.304  0.00  0.00    +0.000 A 
ATOM     10  C   UNL     1       2.310   4.484  20.546  0.00  0.00    +0.000 A 
ATOM     11  C   UNL     1       1.202   3.660  20.747  0.00  0.00    +0.000 A 
ATOM     12  C   UNL     1       0.738   2.843  19.715  0.00  0.00    +0.000 A 
ATOM     13  C   UNL     1       1.386   2.838  18.480  0.00  0.00    +0.000 A 
ATOM     14  C   UNL     1       2.501   3.649  18.285  0.00  0.00    +0.000 A 
ATOM     15  N   UNL     1       3.173   3.622  17.061  0.00  0.00    +0.000 N 
ATOM     16  H   UNL     1       2.782   3.125  16.271  0.00  0.00    +0.000 HD
ENDBRANCH   1   8
BRANCH   3  17
ATOM     17  C   UNL     1       1.927   8.547  18.421  0.00  0.00    +0.000 C 
BRANCH  17  18
ATOM     18  C   UNL     1       1.071   9.258  19.440  0.00  0.00    +0.000 A 
ATOM     19  C   UNL     1       1.063   8.834  20.776  0.00  0.00    +0.000 A 
ATOM     20  C   UNL     1       0.329   9.529  21.740  0.00  0.00    +0.000 A 
ATOM     21  C   UNL     1      -0.416  10.662  21.389  0.00  0.00    +0.000 A 
ATOM     22  C   UNL     1      -0.408  11.089  20.053  0.00  0.00    +0.000 A 
ATOM     23  C   UNL     1       0.327  10.392  19.088  0.00  0.00    +0.000 A 
BRANCH  21  24
ATOM     24  C   UNL     1      -1.214  11.420  22.422  0.00  0.00    +0.000 C 
ATOM     25  F   UNL     1      -0.549  12.485  22.953  0.00  0.00    +0.000 F 
ATOM     26  F   UNL     1      -2.379  11.921  21.923  0.00  0.00    +0.000 F 
ATOM     27  F   UNL     1      -1.567  10.640  23.482  0.00  0.00    +0.000 F 
ENDBRANCH  21  24
ENDBRANCH  17  18
ENDBRANCH   3  17
TORSDOF 4
ENDMDL
MODEL 3
REMARK VINA RESULT:      -8.3      0.204      1.232
REMARK  Name = 
REMARK  4 active torsions:
REMARK  status: ('A' for Active; 'I' for Inactive)
REMARK    1  A    between atoms: C_4  and  C_5
REMARK    2  A    between atoms: N_7  and  C_8
REMARK    3  A    between atoms: C_8  and  C_9
REMARK    4  A    between atoms: C_12  and  C_13
REMARK                            x       y       z     vdW  Elec       q    Type
REMARK                         _______ _______ _______ _____ _____    ______ ____
ROOT
ATOM      1  C   UNL     1       2.592   5.508  18.800  0.00  0.00    +0.000 C 
ATOM      2  O   UNL     1       1.738   4.822  19.354  0.00  0.00    +0.000 OA
ATOM      3  N   UNL     1       2.788   6.830  19.132  0.00  0.00    +0.000 N 
ATOM      4  H   UNL     1       3.495   7.378  18.665  0.00  0.00    +0.000 HD
ENDROOT
BRANCH   1   8
ATOM      5  O   UNL     1       4.057   1.903  19.471  0.00  0.00    +0.000 OA
ATOM      6  C   UNL     1       4.309   2.951  18.882  0.00  0.00    +0.000 C 
ATOM      7  C   UNL     1       3.497   3.443  17.701  0.00  0.00    +0.000 C 
ATOM      8  C   UNL     1       3.464   4.972  17.656  0.00  0.00    +0.000 C 
ATOM      9  C   UNL     1       4.878   5.506  17.713  0.00  0.00    +0.000 A 
ATOM     10  C   UNL     1       5.264   6.668  17.033  0.00  0.00    +0.000 A 
ATOM     11  C   UNL     1       6.553   7.177  17.196  0.00  0.00    +0.000 A 
ATOM     12  C   UNL     1       7.461   6.530  18.036  0.00  0.00    +0.000 A 
ATOM     13  C   UNL     1       7.089   5.366  18.708  0.00  0.00    +0.000 A 
ATOM     14  C   UNL     1       5.807   4.851  18.532  0.00  0.00    +0.000 A 
ATOM     15  N   UNL     1       5.442   3.667  19.176  0.00  0.00    +0.000 N 
ATOM     16  H   UNL     1       6.046   3.254  19.874  0.00  0.00    +0.000 HD
ENDBRANCH   1   8
BRANCH   3  17
ATOM     17  C   UNL     1       2.056   7.449  20.215  0.00  0.00    +0.000 C 
BRANCH  17  18
ATOM     18  C   UNL     1       1.248   8.636  19.751  0.00  0.00    +0.000 A 
ATOM     19  C   UNL     1       0.387   9.295  20.639  0.00  0.00    +0.000 A 
ATOM     20  C   UNL     1      -0.311  10.437  20.238  0.00  0.00    +0.000 A 
ATOM     21  C   UNL     1      -0.165  10.944  18.940  0.00  0.00    +0.000 A 
ATOM     22  C   UNL     1       0.698  10.286  18.051  0.00  0.00    +0.000 A 
ATOM     23  C   UNL     1       1.396   9.142  18.453  0.00  0.00    +0.000 A 
BRANCH  21  24
ATOM     24  C   UNL     1      -0.915  12.176  18.497  0.00  0.00    +0.000 C 
ATOM     25  F   UNL     1      -1.668  11.983  17.376  0.00  0.00    +0.000 F 
ATOM     26  F   UNL     1      -1.775  12.639  19.446  0.00  0.00    +0.000 F 
ATOM     27  F   UNL     1      -0.083  13.217  18.208  0.00  0.00    +0.000 F 
ENDBRANCH  21  24
ENDBRANCH  17  18
ENDBRANCH   3  17
TORSDOF 4
ENDMDL
MODEL 4
REMARK VINA RESULT:      -8.3      0.909      1.010
REMARK  Name = 
REMARK  4 active torsions:
REMARK  status: ('A' for Active; 'I' for Inactive)
REMARK    1  A    between atoms: C_4  and  C_5
REMARK    2  A    between atoms: N_7  and  C_8
REMARK    3  A    between atoms: C_8  and  C_9
REMARK    4  A    between atoms: C_12  and  C_13
REMARK                            x       y       z     vdW  Elec       q    Type
REMARK                         _______ _______ _______ _____ _____    ______ ____
ROOT
ATOM      1  C   UNL     1       2.433   4.805  18.535  0.00  0.00    +0.000 C 
ATOM      2  O   UNL     1       1.314   4.328  18.701  0.00  0.00    +0.000 OA
ATOM      3  N   UNL     1       2.852   5.925  19.217  0.00  0.00    +0.000 N 
ATOM      4  H   UNL     1       3.776   6.303  19.067  0.00  0.00    +0.000 HD
ENDROOT
BRANCH   1   8
ATOM      5  O   UNL     1       4.400   1.637  19.832  0.00  0.00    +0.000 OA
ATOM      6  C   UNL     1       4.516   2.601  19.080  0.00  0.00    +0.000 C 
ATOM      7  C   UNL     1       3.693   2.758  17.817  0.00  0.00    +0.000 C 
ATOM      8  C   UNL     1       3.429   4.235  17.514  0.00  0.00    +0.000 C 
ATOM      9  C   UNL     1       4.740   4.988  17.510  0.00  0.00    +0.000 A 
ATOM     10  C   UNL     1       4.974   6.070  16.651  0.00  0.00    +0.000 A 
ATOM     11  C   UNL     1       6.161   6.797  16.752  0.00  0.00    +0.000 A 
ATOM     12  C   UNL     1       7.118   6.448  17.706  0.00  0.00    +0.000 A 
ATOM     13  C   UNL     1       6.898   5.365  18.557  0.00  0.00    +0.000 A 
ATOM     14  C   UNL     1       5.720   4.631  18.445  0.00  0.00    +0.000 A 
ATOM     15  N   UNL     1       5.511   3.525  19.272  0.00  0.00    +0.000 N 
ATOM     16  H   UNL     1       6.139   3.333  20.041  0.00  0.00    +0.000 HD
ENDBRANCH   1   8
BRANCH   3  17
ATOM     17  C   UNL     1       2.024   6.541  20.231  0.00  0.00    +0.000 C 
BRANCH  17  18
ATOM     18  C   UNL     1       1.685   7.972  19.896  0.00  0.00    +0.000 A 
ATOM     19  C   UNL     1       1.943   8.479  18.615  0.00  0.00    +0.000 A 
ATOM     20  C   UNL     1       1.569   9.781  18.275  0.00  0.00    +0.000 A 
ATOM     21  C   UNL     1       0.929  10.607  19.210  0.00  0.00    +0.000 A 
ATOM     22  C   UNL     1       0.669  10.100  20.492  0.00  0.00    +0.000 A 
ATOM     23  C   UNL     1       1.045   8.797  20.832  0.00  0.00    +0.000 A 
BRANCH  21  24
ATOM     24  C   UNL     1       0.521  12.016  18.854  0.00  0.00    +0.000 C 
ATOM     25  F   UNL     1       0.280  12.804  19.939  0.00  0.00    +0.000 F 
ATOM     26  F   UNL     1       1.468  12.668  18.124  0.00  0.00    +0.000 F 
ATOM     27  F   UNL     1      -0.619  12.055  18.108  0.00  0.00    +0.000 F 
ENDBRANCH  21  24
ENDBRANCH  17  18
ENDBRANCH   3  17
TORSDOF 4
ENDMDL
MODEL 5
REMARK VINA RESULT:      -8.1      2.614      3.966
REMARK  Name = 
REMARK  4 active torsions:
REMARK  status: ('A' for Active; 'I' for Inactive)
REMARK    1  A    between atoms: C_4  and  C_5
REMARK    2  A    between atoms: N_7  and  C_8
REMARK    3  A    between atoms: C_8  and  C_9
REMARK    4  A    between atoms: C_12  and  C_13
REMARK                            x       y       z     vdW  Elec       q    Type
REMARK                         _______ _______ _______ _____ _____    ______ ____
ROOT
ATOM      1  C   UNL     1       5.414   6.340  17.762  0.00  0.00    +0.000 C 
ATOM      2  O   UNL     1       6.044   7.317  17.370  0.00  0.00    +0.000 OA
ATOM      3  N   UNL     1       4.046   6.373  17.917  0.00  0.00    +0.000 N 
ATOM      4  H   UNL     1       3.545   5.559  18.242  0.00  0.00    +0.000 HD
ENDROOT
BRANCH   1   8
ATOM      5  O   UNL     1       6.725   4.213  14.705  0.00  0.00    +0.000 OA
ATOM      6  C   UNL     1       6.297   4.092  15.850  0.00  0.00    +0.000 C 
ATOM      7  C   UNL     1       7.058   4.578  17.066  0.00  0.00    +0.000 C 
ATOM      8  C   UNL     1       6.099   5.028  18.171  0.00  0.00    +0.000 C 
ATOM      9  C   UNL     1       5.104   3.924  18.450  0.00  0.00    +0.000 A 
ATOM     10  C   UNL     1       4.599   3.684  19.735  0.00  0.00    +0.000 A 
ATOM     11  C   UNL     1       3.608   2.721  19.927  0.00  0.00    +0.000 A 
ATOM     12  C   UNL     1       3.119   1.992  18.842  0.00  0.00    +0.000 A 
ATOM     13  C   UNL     1       3.624   2.216  17.562  0.00  0.00    +0.000 A 
ATOM     14  C   UNL     1       4.624   3.167  17.374  0.00  0.00    +0.000 A 
ATOM     15  N   UNL     1       5.157   3.370  16.099  0.00  0.00    +0.000 N 
ATOM     16  H   UNL     1       4.733   2.935  15.290  0.00  0.00    +0.000 HD
ENDBRANCH   1   8
BRANCH   3  17
ATOM     17  C   UNL     1       3.275   7.537  17.538  0.00  0.00    +0.000 C 
BRANCH  17  18
ATOM     18  C   UNL     1       2.351   7.992  18.640  0.00  0.00    +0.000 A 
ATOM     19  C   UNL     1       2.237   7.245  19.820  0.00  0.00    +0.000 A 
ATOM     20  C   UNL     1       1.437   7.694  20.874  0.00  0.00    +0.000 A 
ATOM     21  C   UNL     1       0.733   8.902  20.771  0.00  0.00    +0.000 A 
ATOM     22  C   UNL     1       0.848   9.651  19.591  0.00  0.00    +0.000 A 
ATOM     23  C   UNL     1       1.648   9.200  18.535  0.00  0.00    +0.000 A 
BRANCH  21  24
ATOM     24  C   UNL     1      -0.134   9.397  21.903  0.00  0.00    +0.000 C 
ATOM     25  F   UNL     1      -1.009   8.461  22.369  0.00  0.00    +0.000 F 
ATOM     26  F   UNL     1       0.591   9.798  22.983  0.00  0.00    +0.000 F 
ATOM     27  F   UNL     1      -0.896  10.468  21.544  0.00  0.00    +0.000 F 
ENDBRANCH  21  24
ENDBRANCH  17  18
ENDBRANCH   3  17
TORSDOF 4
ENDMDL
MODEL 6
REMARK VINA RESULT:      -8.1      2.328      3.809
REMARK  Name = 
REMARK  4 active torsions:
REMARK  status: ('A' for Active; 'I' for Inactive)
REMARK    1  A    between atoms: C_4  and  C_5
REMARK    2  A    between atoms: N_7  and  C_8
REMARK    3  A    between atoms: C_8  and  C_9
REMARK    4  A    between atoms: C_12  and  C_13
REMARK                            x       y       z     vdW  Elec       q    Type
REMARK                         _______ _______ _______ _____ _____    ______ ____
ROOT
ATOM      1  C   UNL     1       3.450   6.568  18.592  0.00  0.00    +0.000 C 
ATOM      2  O   UNL     1       3.915   6.924  17.514  0.00  0.00    +0.000 OA
ATOM      3  N   UNL     1       2.487   7.304  19.246  0.00  0.00    +0.000 N 
ATOM      4  H   UNL     1       2.117   6.995  20.132  0.00  0.00    +0.000 HD
ENDROOT
BRANCH   1   8
ATOM      5  O   UNL     1       5.856   4.300  16.434  0.00  0.00    +0.000 OA
ATOM      6  C   UNL     1       5.025   4.237  17.336  0.00  0.00    +0.000 C 
ATOM      7  C   UNL     1       5.258   4.833  18.709  0.00  0.00    +0.000 C 
ATOM      8  C   UNL     1       3.944   5.315  19.329  0.00  0.00    +0.000 C 
ATOM      9  C   UNL     1       2.932   4.191  19.294  0.00  0.00    +0.000 A 
ATOM     10  C   UNL     1       1.978   4.016  20.305  0.00  0.00    +0.000 A 
ATOM     11  C   UNL     1       1.002   3.028  20.180  0.00  0.00    +0.000 A 
ATOM     12  C   UNL     1       0.973   2.210  19.050  0.00  0.00    +0.000 A 
ATOM     13  C   UNL     1       1.926   2.369  18.044  0.00  0.00    +0.000 A 
ATOM     14  C   UNL     1       2.909   3.346  18.177  0.00  0.00    +0.000 A 
ATOM     15  N   UNL     1       3.886   3.487  17.188  0.00  0.00    +0.000 N 
ATOM     16  H   UNL     1       3.809   2.983  16.315  0.00  0.00    +0.000 HD
ENDBRANCH   1   8
BRANCH   3  17
ATOM     17  C   UNL     1       1.911   8.488  18.646  0.00  0.00    +0.000 C 
BRANCH  17  18
ATOM     18  C   UNL     1       1.118   9.301  19.639  0.00  0.00    +0.000 A 
ATOM     19  C   UNL     1       0.443  10.457  19.226  0.00  0.00    +0.000 A 
ATOM     20  C   UNL     1      -0.351  11.178  20.122  0.00  0.00    +0.000 A 
ATOM     21  C   UNL     1      -0.484  10.758  21.453  0.00  0.00    +0.000 A 
ATOM     22  C   UNL     1       0.190   9.600  21.867  0.00  0.00    +0.000 A 
ATOM     23  C   UNL     1       0.985   8.880  20.969  0.00  0.00    +0.000 A 
BRANCH  21  24
ATOM     24  C   UNL     1      -1.338  11.530  22.430  0.00  0.00    +0.000 C 
ATOM     25  F   UNL     1      -1.733  10.794  23.508  0.00  0.00    +0.000 F 
ATOM     26  F   UNL     1      -0.700  12.620  22.939  0.00  0.00    +0.000 F 
ATOM     27  F   UNL     1      -2.485  11.999  21.862  0.00  0.00    +0.000 F 
ENDBRANCH  21  24
ENDBRANCH  17  18
ENDBRANCH   3  17
TORSDOF 4
ENDMDL
MODEL 7
REMARK VINA RESULT:      -8.0      1.890      2.613
REMARK  Name = 
REMARK  4 active torsions:
REMARK  status: ('A' for Active; 'I' for Inactive)
REMARK    1  A    between atoms: C_4  and  C_5
REMARK    2  A    between atoms: N_7  and  C_8
REMARK    3  A    between atoms: C_8  and  C_9
REMARK    4  A    between atoms: C_12  and  C_13
REMARK                            x       y       z     vdW  Elec       q    Type
REMARK                         _______ _______ _______ _____ _____    ______ ____
ROOT
ATOM      1  C   UNL     1       2.256   7.616  18.737  0.00  0.00    +0.000 C 
ATOM      2  O   UNL     1       2.189   7.521  19.958  0.00  0.00    +0.000 OA
ATOM      3  N   UNL     1       1.868   8.759  18.075  0.00  0.00    +0.000 N 
ATOM      4  H   UNL     1       1.930   8.818  17.070  0.00  0.00    +0.000 HD
ENDROOT
BRANCH   1   8
ATOM      5  O   UNL     1       1.748   4.059  20.374  0.00  0.00    +0.000 OA
ATOM      6  C   UNL     1       2.473   4.662  19.586  0.00  0.00    +0.000 C 
ATOM      7  C   UNL     1       1.983   5.171  18.247  0.00  0.00    +0.000 C 
ATOM      8  C   UNL     1       2.715   6.454  17.844  0.00  0.00    +0.000 C 
ATOM      9  C   UNL     1       4.208   6.224  17.923  0.00  0.00    +0.000 A 
ATOM     10  C   UNL     1       5.103   6.835  17.036  0.00  0.00    +0.000 A 
ATOM     11  C   UNL     1       6.478   6.673  17.210  0.00  0.00    +0.000 A 
ATOM     12  C   UNL     1       6.965   5.902  18.265  0.00  0.00    +0.000 A 
ATOM     13  C   UNL     1       6.081   5.280  19.147  0.00  0.00    +0.000 A 
ATOM     14  C   UNL     1       4.708   5.430  18.963  0.00  0.00    +0.000 A 
ATOM     15  N   UNL     1       3.819   4.782  19.823  0.00  0.00    +0.000 N 
ATOM     16  H   UNL     1       4.156   4.318  20.656  0.00  0.00    +0.000 HD
ENDBRANCH   1   8
BRANCH   3  17
ATOM     17  C   UNL     1       1.447   9.939  18.799  0.00  0.00    +0.000 C 
BRANCH  17  18
ATOM     18  C   UNL     1      -0.010  10.257  18.570  0.00  0.00    +0.000 A 
ATOM     19  C   UNL     1      -0.661  11.205  19.371  0.00  0.00    +0.000 A 
ATOM     20  C   UNL     1      -1.990  11.557  19.122  0.00  0.00    +0.000 A 
ATOM     21  C   UNL     1      -2.698  10.968  18.066  0.00  0.00    +0.000 A 
ATOM     22  C   UNL     1      -2.047  10.021  17.262  0.00  0.00    +0.000 A 
ATOM     23  C   UNL     1      -0.717   9.668  17.513  0.00  0.00    +0.000 A 
BRANCH  21  24
ATOM     24  C   UNL     1      -4.134  11.341  17.788  0.00  0.00    +0.000 C 
ATOM     25  F   UNL     1      -4.608  12.328  18.600  0.00  0.00    +0.000 F 
ATOM     26  F   UNL     1      -4.326  11.784  16.514  0.00  0.00    +0.000 F 
ATOM     27  F   UNL     1      -4.985  10.289  17.950  0.00  0.00    +0.000 F 
ENDBRANCH  21  24
ENDBRANCH  17  18
ENDBRANCH   3  17
TORSDOF 4
ENDMDL
MODEL 8
REMARK VINA RESULT:      -8.0      2.001      3.531
REMARK  Name = 
REMARK  4 active torsions:
REMARK  status: ('A' for Active; 'I' for Inactive)
REMARK    1  A    between atoms: C_4  and  C_5
REMARK    2  A    between atoms: N_7  and  C_8
REMARK    3  A    between atoms: C_8  and  C_9
REMARK    4  A    between atoms: C_12  and  C_13
REMARK                            x       y       z     vdW  Elec       q    Type
REMARK                         _______ _______ _______ _____ _____    ______ ____
ROOT
ATOM      1  C   UNL     1       3.341   6.684  18.342  0.00  0.00    +0.000 C 
ATOM      2  O   UNL     1       3.864   6.685  17.232  0.00  0.00    +0.000 OA
ATOM      3  N   UNL     1       2.467   7.674  18.733  0.00  0.00    +0.000 N 
ATOM      4  H   UNL     1       2.048   7.657  19.650  0.00  0.00    +0.000 HD
ENDROOT
BRANCH   1   8
ATOM      5  O   UNL     1       6.492   4.470  17.471  0.00  0.00    +0.000 OA
ATOM      6  C   UNL     1       5.419   4.426  18.067  0.00  0.00    +0.000 C 
ATOM      7  C   UNL     1       5.142   5.235  19.317  0.00  0.00    +0.000 C 
ATOM      8  C   UNL     1       3.664   5.623  19.404  0.00  0.00    +0.000 C 
ATOM      9  C   UNL     1       2.811   4.383  19.254  0.00  0.00    +0.000 A 
ATOM     10  C   UNL     1       1.595   4.229  19.933  0.00  0.00    +0.000 A 
ATOM     11  C   UNL     1       0.795   3.113  19.686  0.00  0.00    +0.000 A 
ATOM     12  C   UNL     1       1.202   2.148  18.765  0.00  0.00    +0.000 A 
ATOM     13  C   UNL     1       2.416   2.287  18.093  0.00  0.00    +0.000 A 
ATOM     14  C   UNL     1       3.221   3.394  18.352  0.00  0.00    +0.000 A 
ATOM     15  N   UNL     1       4.454   3.520  17.706  0.00  0.00    +0.000 N 
ATOM     16  H   UNL     1       4.707   2.892  16.955  0.00  0.00    +0.000 HD
ENDBRANCH   1   8
BRANCH   3  17
ATOM     17  C   UNL     1       2.053   8.715  17.817  0.00  0.00    +0.000 C 
BRANCH  17  18
ATOM     18  C   UNL     1       0.953   9.573  18.390  0.00  0.00    +0.000 A 
ATOM     19  C   UNL     1       1.171  10.314  19.560  0.00  0.00    +0.000 A 
ATOM     20  C   UNL     1       0.182  11.165  20.059  0.00  0.00    +0.000 A 
ATOM     21  C   UNL     1      -1.048  11.293  19.401  0.00  0.00    +0.000 A 
ATOM     22  C   UNL     1      -1.267  10.553  18.229  0.00  0.00    +0.000 A 
ATOM     23  C   UNL     1      -0.277   9.700  17.730  0.00  0.00    +0.000 A 
BRANCH  21  24
ATOM     24  C   UNL     1      -2.124  12.209  19.932  0.00  0.00    +0.000 C 
ATOM     25  F   UNL     1      -1.830  13.533  19.794  0.00  0.00    +0.000 F 
ATOM     26  F   UNL     1      -3.323  12.028  19.310  0.00  0.00    +0.000 F 
ATOM     27  F   UNL     1      -2.360  12.019  21.261  0.00  0.00    +0.000 F 
ENDBRANCH  21  24
ENDBRANCH  17  18
ENDBRANCH   3  17
TORSDOF 4
ENDMDL
MODEL 9
REMARK VINA RESULT:      -7.9      4.856      8.667
REMARK  Name = 
REMARK  4 active torsions:
REMARK  status: ('A' for Active; 'I' for Inactive)
REMARK    1  A    between atoms: C_4  and  C_5
REMARK    2  A    between atoms: N_7  and  C_8
REMARK    3  A    between atoms: C_8  and  C_9
REMARK    4  A    between atoms: C_12  and  C_13
REMARK                            x       y       z     vdW  Elec       q    Type
REMARK                         _______ _______ _______ _____ _____    ______ ____
ROOT
ATOM      1  C   UNL     1       0.298   9.628  19.705  0.00  0.00    +0.000 C 
ATOM      2  O   UNL     1      -0.456   9.567  20.671  0.00  0.00    +0.000 OA
ATOM      3  N   UNL     1       1.414   8.827  19.604  0.00  0.00    +0.000 N 
ATOM      4  H   UNL     1       2.023   8.892  18.802  0.00  0.00    +0.000 HD
ENDROOT
BRANCH   1   8
ATOM      5  O   UNL     1      -0.015  13.367  20.936  0.00  0.00    +0.000 OA
ATOM      6  C   UNL     1      -0.386  12.614  20.039  0.00  0.00    +0.000 C 
ATOM      7  C   UNL     1       0.565  12.026  19.017  0.00  0.00    +0.000 C 
ATOM      8  C   UNL     1       0.099  10.639  18.567  0.00  0.00    +0.000 C 
ATOM      9  C   UNL     1      -1.342  10.718  18.115  0.00  0.00    +0.000 A 
ATOM     10  C   UNL     1      -1.838   9.929  17.068  0.00  0.00    +0.000 A 
ATOM     11  C   UNL     1      -3.197   9.963  16.753  0.00  0.00    +0.000 A 
ATOM     12  C   UNL     1      -4.065  10.782  17.476  0.00  0.00    +0.000 A 
ATOM     13  C   UNL     1      -3.578  11.579  18.511  0.00  0.00    +0.000 A 
ATOM     14  C   UNL     1      -2.218  11.556  18.815  0.00  0.00    +0.000 A 
ATOM     15  N   UNL     1      -1.721  12.378  19.829  0.00  0.00    +0.000 N 
ATOM     16  H   UNL     1      -2.352  12.886  20.434  0.00  0.00    +0.000 HD
ENDBRANCH   1   8
BRANCH   3  17
ATOM     17  C   UNL     1       1.700   7.810  20.592  0.00  0.00    +0.000 C 
BRANCH  17  18
ATOM     18  C   UNL     1       2.152   6.516  19.962  0.00  0.00    +0.000 A 
ATOM     19  C   UNL     1       1.764   5.288  20.516  0.00  0.00    +0.000 A 
ATOM     20  C   UNL     1       2.120   4.085  19.900  0.00  0.00    +0.000 A 
ATOM     21  C   UNL     1       2.872   4.084  18.718  0.00  0.00    +0.000 A 
ATOM     22  C   UNL     1       3.259   5.312  18.162  0.00  0.00    +0.000 A 
ATOM     23  C   UNL     1       2.904   6.516  18.780  0.00  0.00    +0.000 A 
BRANCH  21  24
ATOM     24  C   UNL     1       3.263   2.790  18.045  0.00  0.00    +0.000 C 
ATOM     25  F   UNL     1       2.228   2.175  17.405  0.00  0.00    +0.000 F 
ATOM     26  F   UNL     1       4.233   2.959  17.104  0.00  0.00    +0.000 F 
ATOM     27  F   UNL     1       3.751   1.872  18.925  0.00  0.00    +0.000 F 
ENDBRANCH  21  24
ENDBRANCH  17  18
ENDBRANCH   3  17
TORSDOF 4
ENDMDL
