MODEL 1
REMARK VINA RESULT:      -8.7      0.000      0.000
REMARK  Name = 
REMARK  7 active torsions:
REMARK  status: ('A' for Active; 'I' for Inactive)
REMARK    1  A    between atoms: C_1  and  C_2
REMARK    2  A    between atoms: C_5  and  C_6
REMARK    3  A    between atoms: C_7  and  C_8
REMARK    4  A    between atoms: N_10  and  C_11
REMARK    5  A    between atoms: C_11  and  C_12
REMARK    6  A    between atoms: N_14  and  C_15
REMARK    7  A    between atoms: C_22  and  C_23
REMARK                            x       y       z     vdW  Elec       q    Type
REMARK                         _______ _______ _______ _____ _____    ______ ____
ROOT
ATOM      1  C   UNL     1       2.699   7.777  18.190  0.00  0.00    +0.000 A 
ATOM      2  C   UNL     1       2.085   8.871  18.784  0.00  0.00    +0.000 A 
ATOM      3  N   UNL     1       1.506   8.442  19.959  0.00  0.00    +0.000 N 
ATOM      4  N   UNL     1       1.706   7.123  20.139  0.00  0.00    +0.000 NA
ATOM      5  C   UNL     1       2.413   6.698  19.086  0.00  0.00    +0.000 A 
ENDROOT
BRANCH   3   6
ATOM      6  C   UNL     1       0.760   9.183  20.922  0.00  0.00    +0.000 A 
ATOM      7  C   UNL     1       0.339   8.608  22.126  0.00  0.00    +0.000 A 
ATOM      8  C   UNL     1      -0.341   9.388  23.071  0.00  0.00    +0.000 A 
ATOM      9  C   UNL     1      -0.614  10.733  22.819  0.00  0.00    +0.000 A 
ATOM     10  C   UNL     1      -0.221  11.304  21.613  0.00  0.00    +0.000 A 
ATOM     11  C   UNL     1       0.462  10.534  20.667  0.00  0.00    +0.000 A 
ENDBRANCH   3   6
BRANCH   5  12
ATOM     12  C   UNL     1       2.782   5.281  19.017  0.00  0.00    +0.000 A 
ATOM     13  C   UNL     1       3.904   4.785  19.686  0.00  0.00    +0.000 A 
ATOM     14  C   UNL     1       4.266   3.441  19.564  0.00  0.00    +0.000 A 
ATOM     15  C   UNL     1       3.512   2.583  18.763  0.00  0.00    +0.000 A 
ATOM     16  C   UNL     1       2.399   3.064  18.082  0.00  0.00    +0.000 A 
ATOM     17  C   UNL     1       2.037   4.406  18.207  0.00  0.00    +0.000 A 
ENDBRANCH   5  12
BRANCH   1  18
ATOM     18  C   UNL     1       3.566   7.785  16.974  0.00  0.00    +0.000 C 
BRANCH  18  21
ATOM     19  C   UNL     1       5.854   6.913  16.996  0.00  0.00    +0.000 C 
ATOM     20  O   UNL     1       6.285   8.065  17.028  0.00  0.00    +0.000 OA
ATOM     21  N   UNL     1       4.490   6.668  16.955  0.00  0.00    +0.000 N 
ATOM     22  H   UNL     1       4.124   5.739  16.834  0.00  0.00    +0.000 HD
BRANCH  19  29
ATOM     23  C   UNL     1       7.547   5.738  19.518  0.00  0.00    +0.000 C 
ATOM     24  C   UNL     1       7.503   5.258  18.113  0.00  0.00    +0.000 A 
ATOM     25  N   UNL     1       8.232   4.190  17.779  0.00  0.00    +0.000 NA
ATOM     26  O   UNL     1       7.989   3.975  16.446  0.00  0.00    +0.000 OA
ATOM     27  C   UNL     1       7.117   4.905  15.975  0.00  0.00    +0.000 A 
ATOM     28  C   UNL     1       6.781   4.745  14.549  0.00  0.00    +0.000 C 
ATOM     29  C   UNL     1       6.762   5.772  16.993  0.00  0.00    +0.000 A 
ENDBRANCH  19  29
ENDBRANCH  18  21
ENDBRANCH   1  18
TORSDOF 5
ENDMDL
MODEL 2
REMARK VINA RESULT:      -8.5      0.748      1.140
REMARK  Name = 
REMARK  7 active torsions:
REMARK  status: ('A' for Active; 'I' for Inactive)
REMARK    1  A    between atoms: C_1  and  C_2
REMARK    2  A    between atoms: C_5  and  C_6
REMARK    3  A    between atoms: C_7  and  C_8
REMARK    4  A    between atoms: N_10  and  C_11
REMARK    5  A    between atoms: C_11  and  C_12
REMARK    6  A    between atoms: N_14  and  C_15
REMARK    7  A    between atoms: C_22  and  C_23
REMARK                            x       y       z     vdW  Elec       q    Type
REMARK                         _______ _______ _______ _____ _____    ______ ____
ROOT
ATOM      1  C   UNL     1       2.461   7.723  18.389  0.00  0.00    +0.000 A 
ATOM      2  C   UNL     1       1.871   8.845  18.954  0.00  0.00    +0.000 A 
ATOM      3  N   UNL     1       1.316   8.468  20.158  0.00  0.00    +0.000 N 
ATOM      4  N   UNL     1       1.509   7.156  20.385  0.00  0.00    +0.000 NA
ATOM      5  C   UNL     1       2.187   6.682  19.333  0.00  0.00    +0.000 A 
ENDROOT
BRANCH   3   6
ATOM      6  C   UNL     1       0.600   9.254  21.109  0.00  0.00    +0.000 A 
ATOM      7  C   UNL     1      -0.199  10.333  20.717  0.00  0.00    +0.000 A 
ATOM      8  C   UNL     1      -0.932  11.043  21.677  0.00  0.00    +0.000 A 
ATOM      9  C   UNL     1      -0.864  10.692  23.025  0.00  0.00    +0.000 A 
ATOM     10  C   UNL     1      -0.051   9.636  23.425  0.00  0.00    +0.000 A 
ATOM     11  C   UNL     1       0.679   8.920  22.473  0.00  0.00    +0.000 A 
ENDBRANCH   3   6
BRANCH   5  12
ATOM     12  C   UNL     1       2.541   5.260  19.311  0.00  0.00    +0.000 A 
ATOM     13  C   UNL     1       3.775   4.808  19.788  0.00  0.00    +0.000 A 
ATOM     14  C   UNL     1       4.112   3.454  19.709  0.00  0.00    +0.000 A 
ATOM     15  C   UNL     1       3.220   2.543  19.144  0.00  0.00    +0.000 A 
ATOM     16  C   UNL     1       1.994   2.979  18.655  0.00  0.00    +0.000 A 
ATOM     17  C   UNL     1       1.657   4.331  18.737  0.00  0.00    +0.000 A 
ENDBRANCH   5  12
BRANCH   1  18
ATOM     18  C   UNL     1       3.298   7.675  17.153  0.00  0.00    +0.000 C 
BRANCH  18  21
ATOM     19  C   UNL     1       5.222   6.513  16.181  0.00  0.00    +0.000 C 
ATOM     20  O   UNL     1       5.077   7.157  15.142  0.00  0.00    +0.000 OA
ATOM     21  N   UNL     1       4.364   6.696  17.254  0.00  0.00    +0.000 N 
ATOM     22  H   UNL     1       4.410   6.114  18.072  0.00  0.00    +0.000 HD
BRANCH  19  29
ATOM     23  C   UNL     1       7.353   6.247  18.630  0.00  0.00    +0.000 C 
ATOM     24  C   UNL     1       7.230   5.423  17.401  0.00  0.00    +0.000 A 
ATOM     25  N   UNL     1       8.080   4.408  17.224  0.00  0.00    +0.000 NA
ATOM     26  O   UNL     1       7.727   3.831  16.030  0.00  0.00    +0.000 OA
ATOM     27  C   UNL     1       6.669   4.490  15.487  0.00  0.00    +0.000 A 
ATOM     28  C   UNL     1       6.207   3.929  14.205  0.00  0.00    +0.000 C 
ATOM     29  C   UNL     1       6.296   5.535  16.313  0.00  0.00    +0.000 A 
ENDBRANCH  19  29
ENDBRANCH  18  21
ENDBRANCH   1  18
TORSDOF 5
ENDMDL
MODEL 3
REMARK VINA RESULT:      -8.5      0.431      1.784
REMARK  Name = 
REMARK  7 active torsions:
REMARK  status: ('A' for Active; 'I' for Inactive)
REMARK    1  A    between atoms: C_1  and  C_2
REMARK    2  A    between atoms: C_5  and  C_6
REMARK    3  A    between atoms: C_7  and  C_8
REMARK    4  A    between atoms: N_10  and  C_11
REMARK    5  A    between atoms: C_11  and  C_12
REMARK    6  A    between atoms: N_14  and  C_15
REMARK    7  A    between atoms: C_22  and  C_23
REMARK                            x       y       z     vdW  Elec       q    Type
REMARK                         _______ _______ _______ _____ _____    ______ ____
ROOT
ATOM      1  C   UNL     1       2.635   7.804  18.260  0.00  0.00    +0.000 A 
ATOM      2  C   UNL     1       2.030   8.914  18.833  0.00  0.00    +0.000 A 
ATOM      3  N   UNL     1       1.471   8.519  20.030  0.00  0.00    +0.000 N 
ATOM      4  N   UNL     1       1.676   7.206  20.244  0.00  0.00    +0.000 NA
ATOM      5  C   UNL     1       2.366   6.750  19.192  0.00  0.00    +0.000 A 
ENDROOT
BRANCH   3   6
ATOM      6  C   UNL     1       0.741   9.288  20.983  0.00  0.00    +0.000 A 
ATOM      7  C   UNL     1       0.082  10.468  20.626  0.00  0.00    +0.000 A 
ATOM      8  C   UNL     1      -0.673  11.162  21.581  0.00  0.00    +0.000 A 
ATOM      9  C   UNL     1      -0.764  10.694  22.891  0.00  0.00    +0.000 A 
ATOM     10  C   UNL     1      -0.089   9.535  23.260  0.00  0.00    +0.000 A 
ATOM     11  C   UNL     1       0.661   8.834  22.313  0.00  0.00    +0.000 A 
ENDBRANCH   3   6
BRANCH   5  12
ATOM     12  C   UNL     1       2.734   5.333  19.157  0.00  0.00    +0.000 A 
ATOM     13  C   UNL     1       3.938   4.878  19.704  0.00  0.00    +0.000 A 
ATOM     14  C   UNL     1       4.292   3.529  19.613  0.00  0.00    +0.000 A 
ATOM     15  C   UNL     1       3.449   2.626  18.967  0.00  0.00    +0.000 A 
ATOM     16  C   UNL     1       2.253   3.065  18.409  0.00  0.00    +0.000 A 
ATOM     17  C   UNL     1       1.899   4.411  18.502  0.00  0.00    +0.000 A 
ENDBRANCH   5  12
BRANCH   1  18
ATOM     18  C   UNL     1       3.481   7.777  17.030  0.00  0.00    +0.000 C 
BRANCH  18  21
ATOM     19  C   UNL     1       5.775   6.924  17.074  0.00  0.00    +0.000 C 
ATOM     20  O   UNL     1       6.197   8.080  17.088  0.00  0.00    +0.000 OA
ATOM     21  N   UNL     1       4.414   6.667  17.033  0.00  0.00    +0.000 N 
ATOM     22  H   UNL     1       4.056   5.733  16.926  0.00  0.00    +0.000 HD
BRANCH  19  29
ATOM     23  C   UNL     1       6.461   4.902  14.614  0.00  0.00    +0.000 C 
ATOM     24  C   UNL     1       6.992   4.905  16.001  0.00  0.00    +0.000 A 
ATOM     25  N   UNL     1       7.889   3.977  16.345  0.00  0.00    +0.000 NA
ATOM     26  O   UNL     1       8.202   4.228  17.657  0.00  0.00    +0.000 OA
ATOM     27  C   UNL     1       7.501   5.303  18.106  0.00  0.00    +0.000 A 
ATOM     28  C   UNL     1       7.784   5.660  19.507  0.00  0.00    +0.000 C 
ATOM     29  C   UNL     1       6.693   5.791  17.094  0.00  0.00    +0.000 A 
ENDBRANCH  19  29
ENDBRANCH  18  21
ENDBRANCH   1  18
TORSDOF 5
ENDMDL
MODEL 4
REMARK VINA RESULT:      -8.4      0.882      2.106
REMARK  Name = 
REMARK  7 active torsions:
REMARK  status: ('A' for Active; 'I' for Inactive)
REMARK    1  A    between atoms: C_1  and  C_2
REMARK    2  A    between atoms: C_5  and  C_6
REMARK    3  A    between atoms: C_7  and  C_8
REMARK    4  A    between atoms: N_10  and  C_11
REMARK    5  A    between atoms: C_11  and  C_12
REMARK    6  A    between atoms: N_14  and  C_15
REMARK    7  A    between atoms: C_22  and  C_23
REMARK                            x       y       z     vdW  Elec       q    Type
REMARK                         _______ _______ _______ _____ _____    ______ ____
ROOT
ATOM      1  C   UNL     1       2.422   7.883  18.415  0.00  0.00    +0.000 A 
ATOM      2  C   UNL     1       1.902   9.028  19.001  0.00  0.00    +0.000 A 
ATOM      3  N   UNL     1       1.276   8.655  20.171  0.00  0.00    +0.000 N 
ATOM      4  N   UNL     1       1.359   7.324  20.355  0.00  0.00    +0.000 NA
ATOM      5  C   UNL     1       2.036   6.835  19.310  0.00  0.00    +0.000 A 
ENDROOT
BRANCH   3   6
ATOM      6  C   UNL     1       0.590   9.461  21.126  0.00  0.00    +0.000 A 
ATOM      7  C   UNL     1       0.172  10.761  20.825  0.00  0.00    +0.000 A 
ATOM      8  C   UNL     1      -0.552  11.499  21.772  0.00  0.00    +0.000 A 
ATOM      9  C   UNL     1      -0.850  10.953  23.020  0.00  0.00    +0.000 A 
ATOM     10  C   UNL     1      -0.415   9.670  23.336  0.00  0.00    +0.000 A 
ATOM     11  C   UNL     1       0.302   8.926  22.395  0.00  0.00    +0.000 A 
ENDBRANCH   3   6
BRANCH   5  12
ATOM     12  C   UNL     1       2.280   5.392  19.247  0.00  0.00    +0.000 A 
ATOM     13  C   UNL     1       1.876   4.630  18.146  0.00  0.00    +0.000 A 
ATOM     14  C   UNL     1       2.072   3.247  18.132  0.00  0.00    +0.000 A 
ATOM     15  C   UNL     1       2.666   2.612  19.222  0.00  0.00    +0.000 A 
ATOM     16  C   UNL     1       3.064   3.355  20.329  0.00  0.00    +0.000 A 
ATOM     17  C   UNL     1       2.870   4.737  20.342  0.00  0.00    +0.000 A 
ENDBRANCH   5  12
BRANCH   1  18
ATOM     18  C   UNL     1       3.298   7.812  17.206  0.00  0.00    +0.000 C 
BRANCH  18  21
ATOM     19  C   UNL     1       5.210   6.582  16.298  0.00  0.00    +0.000 C 
ATOM     20  O   UNL     1       5.017   7.105  15.201  0.00  0.00    +0.000 OA
ATOM     21  N   UNL     1       4.385   6.867  17.374  0.00  0.00    +0.000 N 
ATOM     22  H   UNL     1       4.470   6.379  18.250  0.00  0.00    +0.000 HD
BRANCH  19  29
ATOM     23  C   UNL     1       6.010   4.058  14.401  0.00  0.00    +0.000 C 
ATOM     24  C   UNL     1       6.654   4.531  15.652  0.00  0.00    +0.000 A 
ATOM     25  N   UNL     1       7.724   3.875  16.108  0.00  0.00    +0.000 NA
ATOM     26  O   UNL     1       8.106   4.532  17.251  0.00  0.00    +0.000 OA
ATOM     27  C   UNL     1       7.273   5.581  17.485  0.00  0.00    +0.000 A 
ATOM     28  C   UNL     1       7.615   6.360  18.688  0.00  0.00    +0.000 C 
ATOM     29  C   UNL     1       6.306   5.641  16.497  0.00  0.00    +0.000 A 
ENDBRANCH  19  29
ENDBRANCH  18  21
ENDBRANCH   1  18
TORSDOF 5
ENDMDL
MODEL 5
REMARK VINA RESULT:      -8.4      0.781      1.495
REMARK  Name = 
REMARK  7 active torsions:
REMARK  status: ('A' for Active; 'I' for Inactive)
REMARK    1  A    between atoms: C_1  and  C_2
REMARK    2  A    between atoms: C_5  and  C_6
REMARK    3  A    between atoms: C_7  and  C_8
REMARK    4  A    between atoms: N_10  and  C_11
REMARK    5  A    between atoms: C_11  and  C_12
REMARK    6  A    between atoms: N_14  and  C_15
REMARK    7  A    between atoms: C_22  and  C_23
REMARK                            x       y       z     vdW  Elec       q    Type
REMARK                         _______ _______ _______ _____ _____    ______ ____
ROOT
ATOM      1  C   UNL     1       2.339   7.685  18.467  0.00  0.00    +0.000 A 
ATOM      2  C   UNL     1       1.836   8.859  19.009  0.00  0.00    +0.000 A 
ATOM      3  N   UNL     1       1.239   8.547  20.212  0.00  0.00    +0.000 N 
ATOM      4  N   UNL     1       1.323   7.226  20.459  0.00  0.00    +0.000 NA
ATOM      5  C   UNL     1       1.972   6.684  19.423  0.00  0.00    +0.000 A 
ENDROOT
BRANCH   3   6
ATOM      6  C   UNL     1       0.579   9.402  21.143  0.00  0.00    +0.000 A 
ATOM      7  C   UNL     1       0.189  10.700  20.799  0.00  0.00    +0.000 A 
ATOM      8  C   UNL     1      -0.510  11.487  21.724  0.00  0.00    +0.000 A 
ATOM      9  C   UNL     1      -0.811  10.992  22.993  0.00  0.00    +0.000 A 
ATOM     10  C   UNL     1      -0.403   9.711  23.351  0.00  0.00    +0.000 A 
ATOM     11  C   UNL     1       0.289   8.918  22.432  0.00  0.00    +0.000 A 
ENDBRANCH   3   6
BRANCH   5  12
ATOM     12  C   UNL     1       2.210   5.238  19.425  0.00  0.00    +0.000 A 
ATOM     13  C   UNL     1       1.617   4.399  18.478  0.00  0.00    +0.000 A 
ATOM     14  C   UNL     1       1.817   3.017  18.532  0.00  0.00    +0.000 A 
ATOM     15  C   UNL     1       2.605   2.462  19.539  0.00  0.00    +0.000 A 
ATOM     16  C   UNL     1       3.193   3.283  20.496  0.00  0.00    +0.000 A 
ATOM     17  C   UNL     1       2.996   4.663  20.440  0.00  0.00    +0.000 A 
ENDBRANCH   5  12
BRANCH   1  18
ATOM     18  C   UNL     1       3.183   7.551  17.242  0.00  0.00    +0.000 C 
BRANCH  18  21
ATOM     19  C   UNL     1       5.217   6.462  16.423  0.00  0.00    +0.000 C 
ATOM     20  O   UNL     1       5.081   7.036  15.344  0.00  0.00    +0.000 OA
ATOM     21  N   UNL     1       4.300   6.649  17.445  0.00  0.00    +0.000 N 
ATOM     22  H   UNL     1       4.344   6.117  18.298  0.00  0.00    +0.000 HD
BRANCH  19  29
ATOM     23  C   UNL     1       6.543   5.676  19.292  0.00  0.00    +0.000 C 
ATOM     24  C   UNL     1       6.918   5.219  17.930  0.00  0.00    +0.000 A 
ATOM     25  N   UNL     1       7.928   4.355  17.801  0.00  0.00    +0.000 NA
ATOM     26  O   UNL     1       8.038   4.108  16.455  0.00  0.00    +0.000 OA
ATOM     27  C   UNL     1       7.099   4.817  15.774  0.00  0.00    +0.000 A 
ATOM     28  C   UNL     1       7.128   4.603  14.315  0.00  0.00    +0.000 C 
ATOM     29  C   UNL     1       6.341   5.563  16.658  0.00  0.00    +0.000 A 
ENDBRANCH  19  29
ENDBRANCH  18  21
ENDBRANCH   1  18
TORSDOF 5
ENDMDL
MODEL 6
REMARK VINA RESULT:      -8.2      3.945      8.688
REMARK  Name = 
REMARK  7 active torsions:
REMARK  status: ('A' for Active; 'I' for Inactive)
REMARK    1  A    between atoms: C_1  and  C_2
REMARK    2  A    between atoms: C_5  and  C_6
REMARK    3  A    between atoms: C_7  and  C_8
REMARK    4  A    between atoms: N_10  and  C_11
REMARK    5  A    between atoms: C_11  and  C_12
REMARK    6  A    between atoms: N_14  and  C_15
REMARK    7  A    between atoms: C_22  and  C_23
REMARK                            x       y       z     vdW  Elec       q    Type
REMARK                         _______ _______ _______ _____ _____    ______ ____
ROOT
ATOM      1  C   UNL     1       1.371   9.234  18.874  0.00  0.00    +0.000 A 
ATOM      2  C   UNL     1       2.058   8.093  18.486  0.00  0.00    +0.000 A 
ATOM      3  N   UNL     1       2.148   7.261  19.582  0.00  0.00    +0.000 N 
ATOM      4  N   UNL     1       1.565   7.822  20.657  0.00  0.00    +0.000 NA
ATOM      5  C   UNL     1       1.097   9.012  20.261  0.00  0.00    +0.000 A 
ENDROOT
BRANCH   3   6
ATOM      6  C   UNL     1       2.761   5.979  19.696  0.00  0.00    +0.000 A 
ATOM      7  C   UNL     1       2.187   4.956  20.459  0.00  0.00    +0.000 A 
ATOM      8  C   UNL     1       2.790   3.692  20.497  0.00  0.00    +0.000 A 
ATOM      9  C   UNL     1       3.967   3.445  19.790  0.00  0.00    +0.000 A 
ATOM     10  C   UNL     1       4.557   4.465  19.050  0.00  0.00    +0.000 A 
ATOM     11  C   UNL     1       3.959   5.726  19.003  0.00  0.00    +0.000 A 
ENDBRANCH   3   6
BRANCH   5  12
ATOM     12  C   UNL     1       0.403   9.852  21.241  0.00  0.00    +0.000 A 
ATOM     13  C   UNL     1      -0.291   9.294  22.319  0.00  0.00    +0.000 A 
ATOM     14  C   UNL     1      -0.990  10.113  23.211  0.00  0.00    +0.000 A 
ATOM     15  C   UNL     1      -1.006  11.495  23.026  0.00  0.00    +0.000 A 
ATOM     16  C   UNL     1      -0.329  12.064  21.953  0.00  0.00    +0.000 A 
ATOM     17  C   UNL     1       0.370  11.246  21.064  0.00  0.00    +0.000 A 
ENDBRANCH   5  12
BRANCH   1  18
ATOM     18  C   UNL     1       0.916  10.351  17.993  0.00  0.00    +0.000 C 
BRANCH  18  21
ATOM     19  C   UNL     1      -1.249  11.483  17.822  0.00  0.00    +0.000 C 
ATOM     20  O   UNL     1      -0.705  12.550  18.103  0.00  0.00    +0.000 OA
ATOM     21  N   UNL     1      -0.513  10.310  17.753  0.00  0.00    +0.000 N 
ATOM     22  H   UNL     1      -0.956   9.416  17.618  0.00  0.00    +0.000 HD
BRANCH  19  29
ATOM     23  C   UNL     1      -3.660  12.346  19.834  0.00  0.00    +0.000 C 
ATOM     24  C   UNL     1      -3.740  11.804  18.454  0.00  0.00    +0.000 A 
ATOM     25  N   UNL     1      -4.944  11.634  17.902  0.00  0.00    +0.000 NA
ATOM     26  O   UNL     1      -4.711  11.140  16.643  0.00  0.00    +0.000 OA
ATOM     27  C   UNL     1      -3.374  11.013  16.432  0.00  0.00    +0.000 A 
ATOM     28  C   UNL     1      -3.024  10.502  15.095  0.00  0.00    +0.000 C 
ATOM     29  C   UNL     1      -2.682  11.417  17.560  0.00  0.00    +0.000 A 
ENDBRANCH  19  29
ENDBRANCH  18  21
ENDBRANCH   1  18
TORSDOF 5
ENDMDL
MODEL 7
REMARK VINA RESULT:      -8.1      1.257      2.017
REMARK  Name = 
REMARK  7 active torsions:
REMARK  status: ('A' for Active; 'I' for Inactive)
REMARK    1  A    between atoms: C_1  and  C_2
REMARK    2  A    between atoms: C_5  and  C_6
REMARK    3  A    between atoms: C_7  and  C_8
REMARK    4  A    between atoms: N_10  and  C_11
REMARK    5  A    between atoms: C_11  and  C_12
REMARK    6  A    between atoms: N_14  and  C_15
REMARK    7  A    between atoms: C_22  and  C_23
REMARK                            x       y       z     vdW  Elec       q    Type
REMARK                         _______ _______ _______ _____ _____    ______ ____
ROOT
ATOM      1  C   UNL     1       2.173   7.970  18.640  0.00  0.00    +0.000 A 
ATOM      2  C   UNL     1       1.610   9.172  19.042  0.00  0.00    +0.000 A 
ATOM      3  N   UNL     1       1.132   9.006  20.324  0.00  0.00    +0.000 N 
ATOM      4  N   UNL     1       1.350   7.750  20.757  0.00  0.00    +0.000 NA
ATOM      5  C   UNL     1       1.967   7.105  19.761  0.00  0.00    +0.000 A 
ENDROOT
BRANCH   3   6
ATOM      6  C   UNL     1       0.468   9.942  21.170  0.00  0.00    +0.000 A 
ATOM      7  C   UNL     1       0.430  11.308  20.868  0.00  0.00    +0.000 A 
ATOM      8  C   UNL     1      -0.283  12.186  21.695  0.00  0.00    +0.000 A 
ATOM      9  C   UNL     1      -0.947  11.714  22.827  0.00  0.00    +0.000 A 
ATOM     10  C   UNL     1      -0.892  10.361  23.148  0.00  0.00    +0.000 A 
ATOM     11  C   UNL     1      -0.187   9.478  22.326  0.00  0.00    +0.000 A 
ENDBRANCH   3   6
BRANCH   5  12
ATOM     12  C   UNL     1       2.332   5.699  19.959  0.00  0.00    +0.000 A 
ATOM     13  C   UNL     1       3.624   5.237  19.695  0.00  0.00    +0.000 A 
ATOM     14  C   UNL     1       3.935   3.882  19.840  0.00  0.00    +0.000 A 
ATOM     15  C   UNL     1       2.953   2.977  20.242  0.00  0.00    +0.000 A 
ATOM     16  C   UNL     1       1.660   3.420  20.498  0.00  0.00    +0.000 A 
ATOM     17  C   UNL     1       1.350   4.774  20.355  0.00  0.00    +0.000 A 
ENDBRANCH   5  12
BRANCH   1  18
ATOM     18  C   UNL     1       2.935   7.712  17.381  0.00  0.00    +0.000 C 
BRANCH  18  21
ATOM     19  C   UNL     1       5.030   6.733  16.577  0.00  0.00    +0.000 C 
ATOM     20  O   UNL     1       4.788   7.159  15.449  0.00  0.00    +0.000 OA
ATOM     21  N   UNL     1       4.146   6.952  17.622  0.00  0.00    +0.000 N 
ATOM     22  H   UNL     1       4.282   6.532  18.526  0.00  0.00    +0.000 HD
BRANCH  19  29
ATOM     23  C   UNL     1       5.715   3.689  15.641  0.00  0.00    +0.000 C 
ATOM     24  C   UNL     1       6.544   4.637  16.428  0.00  0.00    +0.000 A 
ATOM     25  N   UNL     1       7.757   4.245  16.829  0.00  0.00    +0.000 NA
ATOM     26  O   UNL     1       8.286   5.311  17.513  0.00  0.00    +0.000 OA
ATOM     27  C   UNL     1       7.401   6.343  17.525  0.00  0.00    +0.000 A 
ATOM     28  C   UNL     1       7.890   7.544  18.226  0.00  0.00    +0.000 C 
ATOM     29  C   UNL     1       6.249   5.980  16.849  0.00  0.00    +0.000 A 
ENDBRANCH  19  29
ENDBRANCH  18  21
ENDBRANCH   1  18
TORSDOF 5
ENDMDL
MODEL 8
REMARK VINA RESULT:      -8.1      3.939      8.691
REMARK  Name = 
REMARK  7 active torsions:
REMARK  status: ('A' for Active; 'I' for Inactive)
REMARK    1  A    between atoms: C_1  and  C_2
REMARK    2  A    between atoms: C_5  and  C_6
REMARK    3  A    between atoms: C_7  and  C_8
REMARK    4  A    between atoms: N_10  and  C_11
REMARK    5  A    between atoms: C_11  and  C_12
REMARK    6  A    between atoms: N_14  and  C_15
REMARK    7  A    between atoms: C_22  and  C_23
REMARK                            x       y       z     vdW  Elec       q    Type
REMARK                         _______ _______ _______ _____ _____    ______ ____
ROOT
ATOM      1  C   UNL     1       1.455   9.273  18.662  0.00  0.00    +0.000 A 
ATOM      2  C   UNL     1       2.213   8.210  18.193  0.00  0.00    +0.000 A 
ATOM      3  N   UNL     1       2.345   7.300  19.220  0.00  0.00    +0.000 N 
ATOM      4  N   UNL     1       1.720   7.737  20.329  0.00  0.00    +0.000 NA
ATOM      5  C   UNL     1       1.184   8.924  20.023  0.00  0.00    +0.000 A 
ENDROOT
BRANCH   3   6
ATOM      6  C   UNL     1       3.033   6.051  19.240  0.00  0.00    +0.000 A 
ATOM      7  C   UNL     1       4.237   5.866  18.553  0.00  0.00    +0.000 A 
ATOM      8  C   UNL     1       4.911   4.640  18.645  0.00  0.00    +0.000 A 
ATOM      9  C   UNL     1       4.386   3.597  19.408  0.00  0.00    +0.000 A 
ATOM     10  C   UNL     1       3.176   3.766  20.072  0.00  0.00    +0.000 A 
ATOM     11  C   UNL     1       2.500   4.987  19.989  0.00  0.00    +0.000 A 
ENDBRANCH   3   6
BRANCH   5  12
ATOM     12  C   UNL     1       0.432   9.640  21.057  0.00  0.00    +0.000 A 
ATOM     13  C   UNL     1       0.307  11.032  21.037  0.00  0.00    +0.000 A 
ATOM     14  C   UNL     1      -0.371  11.697  22.063  0.00  0.00    +0.000 A 
ATOM     15  C   UNL     1      -0.921  10.976  23.121  0.00  0.00    +0.000 A 
ATOM     16  C   UNL     1      -0.796   9.591  23.161  0.00  0.00    +0.000 A 
ATOM     17  C   UNL     1      -0.122   8.927  22.135  0.00  0.00    +0.000 A 
ENDBRANCH   5  12
BRANCH   1  18
ATOM     18  C   UNL     1       0.940  10.428  17.867  0.00  0.00    +0.000 C 
BRANCH  18  21
ATOM     19  C   UNL     1      -1.253  11.514  17.791  0.00  0.00    +0.000 C 
ATOM     20  O   UNL     1      -0.724  12.587  18.079  0.00  0.00    +0.000 OA
ATOM     21  N   UNL     1      -0.495  10.360  17.671  0.00  0.00    +0.000 N 
ATOM     22  H   UNL     1      -0.922   9.460  17.530  0.00  0.00    +0.000 HD
BRANCH  19  29
ATOM     23  C   UNL     1      -3.617  12.329  19.878  0.00  0.00    +0.000 C 
ATOM     24  C   UNL     1      -3.729  11.788  18.500  0.00  0.00    +0.000 A 
ATOM     25  N   UNL     1      -4.946  11.597  17.985  0.00  0.00    +0.000 NA
ATOM     26  O   UNL     1      -4.743  11.109  16.719  0.00  0.00    +0.000 OA
ATOM     27  C   UNL     1      -3.411  11.007  16.467  0.00  0.00    +0.000 A 
ATOM     28  C   UNL     1      -3.093  10.505  15.118  0.00  0.00    +0.000 C 
ATOM     29  C   UNL     1      -2.692  11.422  17.573  0.00  0.00    +0.000 A 
ENDBRANCH  19  29
ENDBRANCH  18  21
ENDBRANCH   1  18
TORSDOF 5
ENDMDL
MODEL 9
REMARK VINA RESULT:      -8.0      3.945      8.827
REMARK  Name = 
REMARK  7 active torsions:
REMARK  status: ('A' for Active; 'I' for Inactive)
REMARK    1  A    between atoms: C_1  and  C_2
REMARK    2  A    between atoms: C_5  and  C_6
REMARK    3  A    between atoms: C_7  and  C_8
REMARK    4  A    between atoms: N_10  and  C_11
REMARK    5  A    between atoms: C_11  and  C_12
REMARK    6  A    between atoms: N_14  and  C_15
REMARK    7  A    between atoms: C_22  and  C_23
REMARK                            x       y       z     vdW  Elec       q    Type
REMARK                         _______ _______ _______ _____ _____    ______ ____
ROOT
ATOM      1  C   UNL     1       1.483   9.275  18.512  0.00  0.00    +0.000 A 
ATOM      2  C   UNL     1       2.194   8.252  17.902  0.00  0.00    +0.000 A 
ATOM      3  N   UNL     1       2.375   7.250  18.832  0.00  0.00    +0.000 N 
ATOM      4  N   UNL     1       1.826   7.589  20.013  0.00  0.00    +0.000 NA
ATOM      5  C   UNL     1       1.290   8.805  19.850  0.00  0.00    +0.000 A 
ENDROOT
BRANCH   3   6
ATOM      6  C   UNL     1       3.042   5.998  18.694  0.00  0.00    +0.000 A 
ATOM      7  C   UNL     1       4.256   5.738  19.339  0.00  0.00    +0.000 A 
ATOM      8  C   UNL     1       4.850   4.474  19.225  0.00  0.00    +0.000 A 
ATOM      9  C   UNL     1       4.249   3.473  18.462  0.00  0.00    +0.000 A 
ATOM     10  C   UNL     1       3.055   3.733  17.796  0.00  0.00    +0.000 A 
ATOM     11  C   UNL     1       2.454   4.989  17.910  0.00  0.00    +0.000 A 
ENDBRANCH   3   6
BRANCH   5  12
ATOM     12  C   UNL     1       0.615   9.430  20.991  0.00  0.00    +0.000 A 
ATOM     13  C   UNL     1       0.023   8.663  21.998  0.00  0.00    +0.000 A 
ATOM     14  C   UNL     1      -0.661   9.280  23.049  0.00  0.00    +0.000 A 
ATOM     15  C   UNL     1      -0.766  10.670  23.095  0.00  0.00    +0.000 A 
ATOM     16  C   UNL     1      -0.192  11.446  22.094  0.00  0.00    +0.000 A 
ATOM     17  C   UNL     1       0.494  10.829  21.047  0.00  0.00    +0.000 A 
ENDBRANCH   5  12
BRANCH   1  18
ATOM     18  C   UNL     1       0.939  10.503  17.860  0.00  0.00    +0.000 C 
BRANCH  18  21
ATOM     19  C   UNL     1      -1.227  11.645  17.913  0.00  0.00    +0.000 C 
ATOM     20  O   UNL     1      -0.654  12.705  18.161  0.00  0.00    +0.000 OA
ATOM     21  N   UNL     1      -0.507  10.471  17.755  0.00  0.00    +0.000 N 
ATOM     22  H   UNL     1      -0.964   9.581  17.646  0.00  0.00    +0.000 HD
BRANCH  19  29
ATOM     23  C   UNL     1      -2.940  10.648  15.329  0.00  0.00    +0.000 C 
ATOM     24  C   UNL     1      -3.426  11.143  16.641  0.00  0.00    +0.000 A 
ATOM     25  N   UNL     1      -4.743  11.201  16.855  0.00  0.00    +0.000 NA
ATOM     26  O   UNL     1      -4.894  11.677  18.133  0.00  0.00    +0.000 OA
ATOM     27  C   UNL     1      -3.675  11.904  18.691  0.00  0.00    +0.000 A 
ATOM     28  C   UNL     1      -3.735  12.405  20.077  0.00  0.00    +0.000 C 
ATOM     29  C   UNL     1      -2.678  11.588  17.786  0.00  0.00    +0.000 A 
ENDBRANCH  19  29
ENDBRANCH  18  21
ENDBRANCH   1  18
TORSDOF 5
ENDMDL
