MODEL 1
REMARK VINA RESULT:      -8.2      0.000      0.000
REMARK  Name = 
REMARK  2 active torsions:
REMARK  status: ('A' for Active; 'I' for Inactive)
REMARK    1  A    between atoms: C_5  and  C_6
REMARK    2  A    between atoms: C_9  and  C_10
REMARK                            x       y       z     vdW  Elec       q    Type
REMARK                         _______ _______ _______ _____ _____    ______ ____
ROOT
ATOM      1  C   UNL     1       6.763   4.494  17.326  0.00  0.00    +0.000 C 
ATOM      2  C   UNL     1       7.777   5.390  18.017  0.00  0.00    +0.000 C 
ATOM      3  C   UNL     1       6.320   5.721  18.128  0.00  0.00    +0.000 C 
ATOM      4  C   UNL     1       5.653   5.489  19.482  0.00  0.00    +0.000 C 
ATOM      5  C   UNL     1       4.121   5.549  19.373  0.00  0.00    +0.000 C 
ATOM      6  N   UNL     1       3.741   6.771  18.681  0.00  0.00    +0.000 N 
ATOM      7  C   UNL     1       2.719   7.524  19.125  0.00  0.00    +0.000 A 
ATOM      8  N   UNL     1       1.994   7.387  20.216  0.00  0.00    +0.000 NA
ATOM      9  C   UNL     1       1.106   8.432  20.154  0.00  0.00    +0.000 A 
ATOM     10  C   UNL     1       0.072   8.828  21.009  0.00  0.00    +0.000 A 
ATOM     11  C   UNL     1      -0.681   9.958  20.652  0.00  0.00    +0.000 A 
ATOM     12  C   UNL     1      -0.415  10.671  19.475  0.00  0.00    +0.000 A 
ATOM     13  C   UNL     1       0.622  10.293  18.615  0.00  0.00    +0.000 A 
ATOM     14  C   UNL     1       1.341   9.174  19.012  0.00  0.00    +0.000 A 
ATOM     15  O   UNL     1       2.383   8.607  18.357  0.00  0.00    +0.000 OA
ATOM     16  C   UNL     1       4.278   6.940  17.336  0.00  0.00    +0.000 C 
ATOM     17  C   UNL     1       5.804   6.976  17.435  0.00  0.00    +0.000 C 
ENDROOT
BRANCH   1  21
ATOM     18  C   UNL     1       6.338   4.014  13.795  0.00  0.00    +0.000 A 
ATOM     19  N   UNL     1       7.272   4.976  13.714  0.00  0.00    +0.000 NA
ATOM     20  O   UNL     1       7.528   5.297  15.045  0.00  0.00    +0.000 OA
ATOM     21  C   UNL     1       6.738   4.486  15.806  0.00  0.00    +0.000 A 
ATOM     22  N   UNL     1       5.974   3.704  15.080  0.00  0.00    +0.000 NA
BRANCH  18  27
ATOM     23  C   UNL     1       4.007   3.121  10.990  0.00  0.00    +0.000 A 
ATOM     24  C   UNL     1       4.712   2.052  10.462  0.00  0.00    +0.000 A 
ATOM     25  N   UNL     1       5.878   1.599  10.968  0.00  0.00    +0.000 NA
ATOM     26  C   UNL     1       6.369   2.253  12.050  0.00  0.00    +0.000 A 
ATOM     27  C   UNL     1       5.750   3.343  12.651  0.00  0.00    +0.000 A 
ATOM     28  C   UNL     1       4.536   3.773  12.103  0.00  0.00    +0.000 A 
ENDBRANCH  18  27
ENDBRANCH   1  21
TORSDOF 2
ENDMDL
MODEL 2
REMARK VINA RESULT:      -8.1      4.342     10.435
REMARK  Name = 
REMARK  2 active torsions:
REMARK  status: ('A' for Active; 'I' for Inactive)
REMARK    1  A    between atoms: C_5  and  C_6
REMARK    2  A    between atoms: C_9  and  C_10
REMARK                            x       y       z     vdW  Elec       q    Type
REMARK                         _______ _______ _______ _____ _____    ______ ____
ROOT
ATOM      1  C   UNL     1      -0.050  11.832  20.888  0.00  0.00    +0.000 C 
ATOM      2  C   UNL     1      -1.351  11.411  20.226  0.00  0.00    +0.000 C 
ATOM      3  C   UNL     1      -0.178  10.480  20.182  0.00  0.00    +0.000 C 
ATOM      4  C   UNL     1      -0.251   9.224  21.047  0.00  0.00    +0.000 C 
ATOM      5  C   UNL     1       1.119   8.540  21.165  0.00  0.00    +0.000 C 
ATOM      6  N   UNL     1       1.678   8.361  19.833  0.00  0.00    +0.000 N 
ATOM      7  C   UNL     1       2.271   7.204  19.486  0.00  0.00    +0.000 A 
ATOM      8  N   UNL     1       2.369   6.080  20.165  0.00  0.00    +0.000 NA
ATOM      9  C   UNL     1       3.070   5.250  19.326  0.00  0.00    +0.000 A 
ATOM     10  C   UNL     1       3.503   3.928  19.471  0.00  0.00    +0.000 A 
ATOM     11  C   UNL     1       4.226   3.351  18.415  0.00  0.00    +0.000 A 
ATOM     12  C   UNL     1       4.514   4.072  17.249  0.00  0.00    +0.000 A 
ATOM     13  C   UNL     1       4.079   5.392  17.084  0.00  0.00    +0.000 A 
ATOM     14  C   UNL     1       3.365   5.917  18.152  0.00  0.00    +0.000 A 
ATOM     15  O   UNL     1       2.842   7.163  18.242  0.00  0.00    +0.000 OA
ATOM     16  C   UNL     1       1.865   9.574  19.047  0.00  0.00    +0.000 C 
ATOM     17  C   UNL     1       0.495  10.221  18.839  0.00  0.00    +0.000 C 
ENDROOT
BRANCH   1  21
ATOM     18  C   UNL     1       1.252  14.753  19.261  0.00  0.00    +0.000 A 
ATOM     19  N   UNL     1       2.436  14.185  19.540  0.00  0.00    +0.000 NA
ATOM     20  O   UNL     1       2.089  13.019  20.217  0.00  0.00    +0.000 OA
ATOM     21  C   UNL     1       0.726  12.983  20.269  0.00  0.00    +0.000 A 
ATOM     22  N   UNL     1       0.175  14.039  19.719  0.00  0.00    +0.000 NA
BRANCH  18  27
ATOM     23  C   UNL     1      -0.298  17.770  17.649  0.00  0.00    +0.000 A 
ATOM     24  C   UNL     1       0.858  18.393  17.211  0.00  0.00    +0.000 A 
ATOM     25  N   UNL     1       2.097  17.888  17.391  0.00  0.00    +0.000 NA
ATOM     26  C   UNL     1       2.184  16.706  18.051  0.00  0.00    +0.000 A 
ATOM     27  C   UNL     1       1.091  16.004  18.543  0.00  0.00    +0.000 A 
ATOM     28  C   UNL     1      -0.176  16.555  18.323  0.00  0.00    +0.000 A 
ENDBRANCH  18  27
ENDBRANCH   1  21
TORSDOF 2
ENDMDL
MODEL 3
REMARK VINA RESULT:      -7.9      4.698      7.201
REMARK  Name = 
REMARK  2 active torsions:
REMARK  status: ('A' for Active; 'I' for Inactive)
REMARK    1  A    between atoms: C_5  and  C_6
REMARK    2  A    between atoms: C_9  and  C_10
REMARK                            x       y       z     vdW  Elec       q    Type
REMARK                         _______ _______ _______ _____ _____    ______ ____
ROOT
ATOM      1  C   UNL     1       2.203   9.160  18.838  0.00  0.00    +0.000 C 
ATOM      2  C   UNL     1       1.332   9.507  17.641  0.00  0.00    +0.000 C 
ATOM      3  C   UNL     1       0.985  10.076  18.983  0.00  0.00    +0.000 C 
ATOM      4  C   UNL     1       1.232  11.568  19.193  0.00  0.00    +0.000 C 
ATOM      5  C   UNL     1       1.150  11.950  20.679  0.00  0.00    +0.000 C 
ATOM      6  N   UNL     1      -0.089  11.428  21.236  0.00  0.00    +0.000 N 
ATOM      7  C   UNL     1      -0.848  12.182  22.052  0.00  0.00    +0.000 A 
ATOM      8  N   UNL     1      -0.700  13.445  22.398  0.00  0.00    +0.000 NA
ATOM      9  C   UNL     1      -1.758  13.680  23.241  0.00  0.00    +0.000 A 
ATOM     10  C   UNL     1      -2.153  14.822  23.945  0.00  0.00    +0.000 A 
ATOM     11  C   UNL     1      -3.298  14.736  24.752  0.00  0.00    +0.000 A 
ATOM     12  C   UNL     1      -4.028  13.545  24.859  0.00  0.00    +0.000 A 
ATOM     13  C   UNL     1      -3.652  12.396  24.152  0.00  0.00    +0.000 A 
ATOM     14  C   UNL     1      -2.517  12.531  23.366  0.00  0.00    +0.000 A 
ATOM     15  O   UNL     1      -1.948  11.574  22.593  0.00  0.00    +0.000 OA
ATOM     16  C   UNL     1      -0.275   9.986  21.148  0.00  0.00    +0.000 C 
ATOM     17  C   UNL     1      -0.289   9.598  19.668  0.00  0.00    +0.000 C 
ENDROOT
BRANCH   1  21
ATOM     18  C   UNL     1       2.340   5.633  19.484  0.00  0.00    +0.000 A 
ATOM     19  N   UNL     1       1.800   5.989  20.660  0.00  0.00    +0.000 NA
ATOM     20  O   UNL     1       1.708   7.376  20.572  0.00  0.00    +0.000 OA
ATOM     21  C   UNL     1       2.184   7.725  19.342  0.00  0.00    +0.000 A 
ATOM     22  N   UNL     1       2.606   6.692  18.654  0.00  0.00    +0.000 NA
BRANCH  18  27
ATOM     23  C   UNL     1       2.444   2.424  17.536  0.00  0.00    +0.000 A 
ATOM     24  C   UNL     1       3.237   1.682  18.394  0.00  0.00    +0.000 A 
ATOM     25  N   UNL     1       3.722   2.151  19.563  0.00  0.00    +0.000 NA
ATOM     26  C   UNL     1       3.404   3.429  19.886  0.00  0.00    +0.000 A 
ATOM     27  C   UNL     1       2.626   4.265  19.093  0.00  0.00    +0.000 A 
ATOM     28  C   UNL     1       2.133   3.735  17.895  0.00  0.00    +0.000 A 
ENDBRANCH  18  27
ENDBRANCH   1  21
TORSDOF 2
ENDMDL
MODEL 4
REMARK VINA RESULT:      -7.8      4.800     10.835
REMARK  Name = 
REMARK  2 active torsions:
REMARK  status: ('A' for Active; 'I' for Inactive)
REMARK    1  A    between atoms: C_5  and  C_6
REMARK    2  A    between atoms: C_9  and  C_10
REMARK                            x       y       z     vdW  Elec       q    Type
REMARK                         _______ _______ _______ _____ _____    ______ ____
ROOT
ATOM      1  C   UNL     1       0.066  12.914  18.827  0.00  0.00    +0.000 C 
ATOM      2  C   UNL     1       1.270  13.444  19.589  0.00  0.00    +0.000 C 
ATOM      3  C   UNL     1       1.170  11.974  19.320  0.00  0.00    +0.000 C 
ATOM      4  C   UNL     1       2.127  11.388  18.284  0.00  0.00    +0.000 C 
ATOM      5  C   UNL     1       1.708   9.969  17.867  0.00  0.00    +0.000 C 
ATOM      6  N   UNL     1       1.498   9.166  19.062  0.00  0.00    +0.000 N 
ATOM      7  C   UNL     1       1.963   7.905  19.134  0.00  0.00    +0.000 A 
ATOM      8  N   UNL     1       2.712   7.243  18.277  0.00  0.00    +0.000 NA
ATOM      9  C   UNL     1       2.876   6.013  18.867  0.00  0.00    +0.000 A 
ATOM     10  C   UNL     1       3.559   4.865  18.453  0.00  0.00    +0.000 A 
ATOM     11  C   UNL     1       3.525   3.740  19.292  0.00  0.00    +0.000 A 
ATOM     12  C   UNL     1       2.827   3.756  20.507  0.00  0.00    +0.000 A 
ATOM     13  C   UNL     1       2.147   4.901  20.940  0.00  0.00    +0.000 A 
ATOM     14  C   UNL     1       2.213   5.987  20.080  0.00  0.00    +0.000 A 
ATOM     15  O   UNL     1       1.641   7.202  20.264  0.00  0.00    +0.000 OA
ATOM     16  C   UNL     1       0.495   9.657  19.998  0.00  0.00    +0.000 C 
ATOM     17  C   UNL     1       0.943  11.033  20.496  0.00  0.00    +0.000 C 
ENDROOT
BRANCH   1  21
ATOM     18  C   UNL     1      -3.317  12.693  20.001  0.00  0.00    +0.000 A 
ATOM     19  N   UNL     1      -2.900  13.609  20.890  0.00  0.00    +0.000 NA
ATOM     20  O   UNL     1      -1.555  13.785  20.572  0.00  0.00    +0.000 OA
ATOM     21  C   UNL     1      -1.291  12.972  19.509  0.00  0.00    +0.000 A 
ATOM     22  N   UNL     1      -2.335  12.266  19.144  0.00  0.00    +0.000 NA
BRANCH  18  27
ATOM     23  C   UNL     1      -6.469  11.113  18.708  0.00  0.00    +0.000 A 
ATOM     24  C   UNL     1      -7.236  11.202  19.857  0.00  0.00    +0.000 A 
ATOM     25  N   UNL     1      -6.801  11.754  21.009  0.00  0.00    +0.000 NA
ATOM     26  C   UNL     1      -5.532  12.232  21.016  0.00  0.00    +0.000 A 
ATOM     27  C   UNL     1      -4.674  12.183  19.924  0.00  0.00    +0.000 A 
ATOM     28  C   UNL     1      -5.168  11.615  18.745  0.00  0.00    +0.000 A 
ENDBRANCH  18  27
ENDBRANCH   1  21
TORSDOF 2
ENDMDL
MODEL 5
REMARK VINA RESULT:      -7.8      4.302     10.277
REMARK  Name = 
REMARK  2 active torsions:
REMARK  status: ('A' for Active; 'I' for Inactive)
REMARK    1  A    between atoms: C_5  and  C_6
REMARK    2  A    between atoms: C_9  and  C_10
REMARK                            x       y       z     vdW  Elec       q    Type
REMARK                         _______ _______ _______ _____ _____    ______ ____
ROOT
ATOM      1  C   UNL     1       0.099  11.658  21.153  0.00  0.00    +0.000 C 
ATOM      2  C   UNL     1      -1.195  11.343  20.419  0.00  0.00    +0.000 C 
ATOM      3  C   UNL     1      -0.069  10.356  20.365  0.00  0.00    +0.000 C 
ATOM      4  C   UNL     1      -0.241   9.059  21.153  0.00  0.00    +0.000 C 
ATOM      5  C   UNL     1       1.088   8.298  21.282  0.00  0.00    +0.000 C 
ATOM      6  N   UNL     1       1.690   8.164  19.964  0.00  0.00    +0.000 N 
ATOM      7  C   UNL     1       2.238   6.999  19.573  0.00  0.00    +0.000 A 
ATOM      8  N   UNL     1       2.251   5.836  20.189  0.00  0.00    +0.000 NA
ATOM      9  C   UNL     1       2.942   5.017  19.330  0.00  0.00    +0.000 A 
ATOM     10  C   UNL     1       3.301   3.668  19.415  0.00  0.00    +0.000 A 
ATOM     11  C   UNL     1       4.036   3.114  18.355  0.00  0.00    +0.000 A 
ATOM     12  C   UNL     1       4.407   3.883  17.244  0.00  0.00    +0.000 A 
ATOM     13  C   UNL     1       4.046   5.231  17.139  0.00  0.00    +0.000 A 
ATOM     14  C   UNL     1       3.318   5.733  18.208  0.00  0.00    +0.000 A 
ATOM     15  O   UNL     1       2.854   6.998  18.351  0.00  0.00    +0.000 OA
ATOM     16  C   UNL     1       1.970   9.408  19.257  0.00  0.00    +0.000 C 
ATOM     17  C   UNL     1       0.643  10.137  19.036  0.00  0.00    +0.000 C 
ENDROOT
BRANCH   1  21
ATOM     18  C   UNL     1       1.644  14.505  19.609  0.00  0.00    +0.000 A 
ATOM     19  N   UNL     1       2.742  14.045  20.228  0.00  0.00    +0.000 NA
ATOM     20  O   UNL     1       2.285  12.922  20.915  0.00  0.00    +0.000 OA
ATOM     21  C   UNL     1       0.956  12.800  20.630  0.00  0.00    +0.000 A 
ATOM     22  N   UNL     1       0.517  13.763  19.855  0.00  0.00    +0.000 NA
BRANCH  18  27
ATOM     23  C   UNL     1       2.679  17.175  17.180  0.00  0.00    +0.000 A 
ATOM     24  C   UNL     1       1.484  17.871  17.110  0.00  0.00    +0.000 A 
ATOM     25  N   UNL     1       0.379  17.538  17.809  0.00  0.00    +0.000 NA
ATOM     26  C   UNL     1       0.471  16.449  18.613  0.00  0.00    +0.000 A 
ATOM     27  C   UNL     1       1.616  15.673  18.748  0.00  0.00    +0.000 A 
ATOM     28  C   UNL     1       2.743  16.061  18.015  0.00  0.00    +0.000 A 
ENDBRANCH  18  27
ENDBRANCH   1  21
TORSDOF 2
ENDMDL
MODEL 6
REMARK VINA RESULT:      -7.7      4.417      9.791
REMARK  Name = 
REMARK  2 active torsions:
REMARK  status: ('A' for Active; 'I' for Inactive)
REMARK    1  A    between atoms: C_5  and  C_6
REMARK    2  A    between atoms: C_9  and  C_10
REMARK                            x       y       z     vdW  Elec       q    Type
REMARK                         _______ _______ _______ _____ _____    ______ ____
ROOT
ATOM      1  C   UNL     1       0.175  11.745  20.673  0.00  0.00    +0.000 C 
ATOM      2  C   UNL     1      -1.170  11.338  20.094  0.00  0.00    +0.000 C 
ATOM      3  C   UNL     1      -0.044  10.351  20.079  0.00  0.00    +0.000 C 
ATOM      4  C   UNL     1      -0.138   9.169  21.041  0.00  0.00    +0.000 C 
ATOM      5  C   UNL     1       1.203   8.430  21.161  0.00  0.00    +0.000 C 
ATOM      6  N   UNL     1       1.698   8.124  19.827  0.00  0.00    +0.000 N 
ATOM      7  C   UNL     1       2.224   6.917  19.548  0.00  0.00    +0.000 A 
ATOM      8  N   UNL     1       2.297   5.844  20.309  0.00  0.00    +0.000 NA
ATOM      9  C   UNL     1       2.925   4.919  19.511  0.00  0.00    +0.000 A 
ATOM     10  C   UNL     1       3.303   3.592  19.742  0.00  0.00    +0.000 A 
ATOM     11  C   UNL     1       3.955   2.903  18.707  0.00  0.00    +0.000 A 
ATOM     12  C   UNL     1       4.228   3.519  17.479  0.00  0.00    +0.000 A 
ATOM     13  C   UNL     1       3.847   4.842  17.228  0.00  0.00    +0.000 A 
ATOM     14  C   UNL     1       3.202   5.480  18.278  0.00  0.00    +0.000 A 
ATOM     15  O   UNL     1       2.740   6.754  18.291  0.00  0.00    +0.000 OA
ATOM     16  C   UNL     1       1.908   9.263  18.943  0.00  0.00    +0.000 C 
ATOM     17  C   UNL     1       0.561   9.958  18.737  0.00  0.00    +0.000 C 
ENDROOT
BRANCH   1  21
ATOM     18  C   UNL     1       2.519  14.072  19.271  0.00  0.00    +0.000 A 
ATOM     19  N   UNL     1       1.434  14.534  18.630  0.00  0.00    +0.000 NA
ATOM     20  O   UNL     1       0.413  13.688  19.061  0.00  0.00    +0.000 OA
ATOM     21  C   UNL     1       0.976  12.807  19.937  0.00  0.00    +0.000 A 
ATOM     22  N   UNL     1       2.268  12.989  20.075  0.00  0.00    +0.000 NA
BRANCH  18  27
ATOM     23  C   UNL     1       5.870  15.058  17.893  0.00  0.00    +0.000 A 
ATOM     24  C   UNL     1       6.339  15.783  18.975  0.00  0.00    +0.000 A 
ATOM     25  N   UNL     1       5.645  15.954  20.120  0.00  0.00    +0.000 NA
ATOM     26  C   UNL     1       4.418  15.380  20.183  0.00  0.00    +0.000 A 
ATOM     27  C   UNL     1       3.848  14.643  19.151  0.00  0.00    +0.000 A 
ATOM     28  C   UNL     1       4.605  14.478  17.987  0.00  0.00    +0.000 A 
ENDBRANCH  18  27
ENDBRANCH   1  21
TORSDOF 2
ENDMDL
MODEL 7
REMARK VINA RESULT:      -7.7      4.536      9.975
REMARK  Name = 
REMARK  2 active torsions:
REMARK  status: ('A' for Active; 'I' for Inactive)
REMARK    1  A    between atoms: C_5  and  C_6
REMARK    2  A    between atoms: C_9  and  C_10
REMARK                            x       y       z     vdW  Elec       q    Type
REMARK                         _______ _______ _______ _____ _____    ______ ____
ROOT
ATOM      1  C   UNL     1       0.525  11.516  20.725  0.00  0.00    +0.000 C 
ATOM      2  C   UNL     1      -0.875  11.167  20.247  0.00  0.00    +0.000 C 
ATOM      3  C   UNL     1       0.193  10.117  20.198  0.00  0.00    +0.000 C 
ATOM      4  C   UNL     1       0.095   8.976  21.208  0.00  0.00    +0.000 C 
ATOM      5  C   UNL     1       1.400   8.166  21.272  0.00  0.00    +0.000 C 
ATOM      6  N   UNL     1       1.790   7.786  19.923  0.00  0.00    +0.000 N 
ATOM      7  C   UNL     1       2.230   6.542  19.658  0.00  0.00    +0.000 A 
ATOM      8  N   UNL     1       2.293   5.494  20.452  0.00  0.00    +0.000 NA
ATOM      9  C   UNL     1       2.817   4.508  19.652  0.00  0.00    +0.000 A 
ATOM     10  C   UNL     1       3.135   3.170  19.910  0.00  0.00    +0.000 A 
ATOM     11  C   UNL     1       3.681   2.410  18.863  0.00  0.00    +0.000 A 
ATOM     12  C   UNL     1       3.907   2.967  17.597  0.00  0.00    +0.000 A 
ATOM     13  C   UNL     1       3.584   4.301  17.321  0.00  0.00    +0.000 A 
ATOM     14  C   UNL     1       3.044   5.010  18.384  0.00  0.00    +0.000 A 
ATOM     15  O   UNL     1       2.654   6.308  18.378  0.00  0.00    +0.000 OA
ATOM     16  C   UNL     1       2.005   8.881  18.985  0.00  0.00    +0.000 C 
ATOM     17  C   UNL     1       0.688   9.645  18.837  0.00  0.00    +0.000 C 
ENDROOT
BRANCH   1  21
ATOM     18  C   UNL     1       2.679  14.004  19.295  0.00  0.00    +0.000 A 
ATOM     19  N   UNL     1       2.006  13.712  18.171  0.00  0.00    +0.000 NA
ATOM     20  O   UNL     1       1.124  12.709  18.569  0.00  0.00    +0.000 OA
ATOM     21  C   UNL     1       1.335  12.504  19.901  0.00  0.00    +0.000 A 
ATOM     22  N   UNL     1       2.296  13.257  20.380  0.00  0.00    +0.000 NA
BRANCH  18  27
ATOM     23  C   UNL     1       5.762  15.865  20.363  0.00  0.00    +0.000 A 
ATOM     24  C   UNL     1       5.672  16.938  19.493  0.00  0.00    +0.000 A 
ATOM     25  N   UNL     1       4.672  17.101  18.602  0.00  0.00    +0.000 NA
ATOM     26  C   UNL     1       3.718  16.137  18.572  0.00  0.00    +0.000 A 
ATOM     27  C   UNL     1       3.718  15.013  19.391  0.00  0.00    +0.000 A 
ATOM     28  C   UNL     1       4.766  14.890  20.309  0.00  0.00    +0.000 A 
ENDBRANCH  18  27
ENDBRANCH   1  21
TORSDOF 2
ENDMDL
MODEL 8
REMARK VINA RESULT:      -7.6      4.493     11.373
REMARK  Name = 
REMARK  2 active torsions:
REMARK  status: ('A' for Active; 'I' for Inactive)
REMARK    1  A    between atoms: C_5  and  C_6
REMARK    2  A    between atoms: C_9  and  C_10
REMARK                            x       y       z     vdW  Elec       q    Type
REMARK                         _______ _______ _______ _____ _____    ______ ____
ROOT
ATOM      1  C   UNL     1      -0.099  12.734  18.761  0.00  0.00    +0.000 C 
ATOM      2  C   UNL     1       0.976  13.308  19.670  0.00  0.00    +0.000 C 
ATOM      3  C   UNL     1       1.049  11.863  19.279  0.00  0.00    +0.000 C 
ATOM      4  C   UNL     1       2.144  11.461  18.294  0.00  0.00    +0.000 C 
ATOM      5  C   UNL     1       1.907  10.051  17.732  0.00  0.00    +0.000 C 
ATOM      6  N   UNL     1       1.679   9.131  18.837  0.00  0.00    +0.000 N 
ATOM      7  C   UNL     1       2.261   7.918  18.854  0.00  0.00    +0.000 A 
ATOM      8  N   UNL     1       3.143   7.405  18.022  0.00  0.00    +0.000 NA
ATOM      9  C   UNL     1       3.379   6.150  18.527  0.00  0.00    +0.000 A 
ATOM     10  C   UNL     1       4.207   5.111  18.091  0.00  0.00    +0.000 A 
ATOM     11  C   UNL     1       4.216   3.919  18.834  0.00  0.00    +0.000 A 
ATOM     12  C   UNL     1       3.420   3.766  19.976  0.00  0.00    +0.000 A 
ATOM     13  C   UNL     1       2.594   4.800  20.431  0.00  0.00    +0.000 A 
ATOM     14  C   UNL     1       2.622   5.958  19.667  0.00  0.00    +0.000 A 
ATOM     15  O   UNL     1       1.917   7.093  19.891  0.00  0.00    +0.000 OA
ATOM     16  C   UNL     1       0.555   9.444  19.711  0.00  0.00    +0.000 C 
ATOM     17  C   UNL     1       0.819  10.807  20.353  0.00  0.00    +0.000 C 
ENDROOT
BRANCH   1  21
ATOM     18  C   UNL     1      -3.180  12.561  20.591  0.00  0.00    +0.000 A 
ATOM     19  N   UNL     1      -3.671  12.143  19.414  0.00  0.00    +0.000 NA
ATOM     20  O   UNL     1      -2.567  12.184  18.565  0.00  0.00    +0.000 OA
ATOM     21  C   UNL     1      -1.509  12.606  19.315  0.00  0.00    +0.000 A 
ATOM     22  N   UNL     1      -1.845  12.873  20.555  0.00  0.00    +0.000 NA
BRANCH  18  27
ATOM     23  C   UNL     1      -4.129  12.724  24.221  0.00  0.00    +0.000 A 
ATOM     24  C   UNL     1      -5.486  12.953  24.074  0.00  0.00    +0.000 A 
ATOM     25  N   UNL     1      -6.108  13.040  22.880  0.00  0.00    +0.000 NA
ATOM     26  C   UNL     1      -5.332  12.900  21.776  0.00  0.00    +0.000 A 
ATOM     27  C   UNL     1      -3.960  12.680  21.809  0.00  0.00    +0.000 A 
ATOM     28  C   UNL     1      -3.357  12.583  23.068  0.00  0.00    +0.000 A 
ENDBRANCH  18  27
ENDBRANCH   1  21
TORSDOF 2
ENDMDL
MODEL 9
REMARK VINA RESULT:      -7.3      4.731     11.499
REMARK  Name = 
REMARK  2 active torsions:
REMARK  status: ('A' for Active; 'I' for Inactive)
REMARK    1  A    between atoms: C_5  and  C_6
REMARK    2  A    between atoms: C_9  and  C_10
REMARK                            x       y       z     vdW  Elec       q    Type
REMARK                         _______ _______ _______ _____ _____    ______ ____
ROOT
ATOM      1  C   UNL     1       0.108  12.718  18.653  0.00  0.00    +0.000 C 
ATOM      2  C   UNL     1       1.254  13.276  19.481  0.00  0.00    +0.000 C 
ATOM      3  C   UNL     1       1.202  11.803  19.212  0.00  0.00    +0.000 C 
ATOM      4  C   UNL     1       2.229  11.235  18.235  0.00  0.00    +0.000 C 
ATOM      5  C   UNL     1       1.865   9.807  17.801  0.00  0.00    +0.000 C 
ATOM      6  N   UNL     1       1.603   9.002  18.985  0.00  0.00    +0.000 N 
ATOM      7  C   UNL     1       2.090   7.752  19.089  0.00  0.00    +0.000 A 
ATOM      8  N   UNL     1       2.901   7.103  18.279  0.00  0.00    +0.000 NA
ATOM      9  C   UNL     1       3.056   5.879  18.882  0.00  0.00    +0.000 A 
ATOM     10  C   UNL     1       3.786   4.745  18.513  0.00  0.00    +0.000 A 
ATOM     11  C   UNL     1       3.727   3.622  19.353  0.00  0.00    +0.000 A 
ATOM     12  C   UNL     1       2.960   3.626  20.525  0.00  0.00    +0.000 A 
ATOM     13  C   UNL     1       2.232   4.757  20.913  0.00  0.00    +0.000 A 
ATOM     14  C   UNL     1       2.325   5.843  20.054  0.00  0.00    +0.000 A 
ATOM     15  O   UNL     1       1.717   7.045  20.200  0.00  0.00    +0.000 OA
ATOM     16  C   UNL     1       0.537   9.475  19.859  0.00  0.00    +0.000 C 
ATOM     17  C   UNL     1       0.926  10.861  20.377  0.00  0.00    +0.000 C 
ENDROOT
BRANCH   1  21
ATOM     18  C   UNL     1      -2.943  13.121  20.496  0.00  0.00    +0.000 A 
ATOM     19  N   UNL     1      -3.422  12.261  19.583  0.00  0.00    +0.000 NA
ATOM     20  O   UNL     1      -2.329  12.023  18.753  0.00  0.00    +0.000 OA
ATOM     21  C   UNL     1      -1.288  12.749  19.254  0.00  0.00    +0.000 A 
ATOM     22  N   UNL     1      -1.627  13.456  20.305  0.00  0.00    +0.000 NA
BRANCH  18  27
ATOM     23  C   UNL     1      -5.350  13.416  23.364  0.00  0.00    +0.000 A 
ATOM     24  C   UNL     1      -5.121  14.741  23.697  0.00  0.00    +0.000 A 
ATOM     25  N   UNL     1      -4.253  15.540  23.041  0.00  0.00    +0.000 NA
ATOM     26  C   UNL     1      -3.574  14.984  22.007  0.00  0.00    +0.000 A 
ATOM     27  C   UNL     1      -3.717  13.663  21.598  0.00  0.00    +0.000 A 
ATOM     28  C   UNL     1      -4.637  12.873  22.296  0.00  0.00    +0.000 A 
ENDBRANCH  18  27
ENDBRANCH   1  21
TORSDOF 2
ENDMDL
