MODEL 1
REMARK VINA RESULT:      -7.2      0.000      0.000
REMARK  Name = 
REMARK  8 active torsions:
REMARK  status: ('A' for Active; 'I' for Inactive)
REMARK    1  A    between atoms: C_1  and  C_2
REMARK    2  A    between atoms: C_2  and  C_3
REMARK    3  A    between atoms: C_3  and  N_4
REMARK    4  A    between atoms: N_4  and  C_18
REMARK    5  A    between atoms: C_5  and  C_7
REMARK    6  A    between atoms: C_19  and  N_20
REMARK    7  A    between atoms: N_21  and  C_22
REMARK    8  A    between atoms: C_22  and  C_23
REMARK                            x       y       z     vdW  Elec       q    Type
REMARK                         _______ _______ _______ _____ _____    ______ ____
ROOT
ATOM      1  C   UNL     1      -4.591  14.041  22.590  0.00  0.00    +0.000 A 
ATOM      2  C   UNL     1      -3.705  13.998  21.552  0.00  0.00    +0.000 A 
ATOM      3  N   UNL     1      -2.677  13.055  21.554  0.00  0.00    +0.000 N 
ATOM      4  C   UNL     1      -2.531  12.107  22.564  0.00  0.00    +0.000 A 
ATOM      5  O   UNL     1      -1.616  11.293  22.621  0.00  0.00    +0.000 OA
ATOM      6  N   UNL     1      -3.467  12.123  23.551  0.00  0.00    +0.000 N 
ATOM      7  C   UNL     1      -4.487  13.009  23.663  0.00  0.00    +0.000 A 
ATOM      8  O   UNL     1      -5.285  12.945  24.600  0.00  0.00    +0.000 OA
ATOM      9  H   UNL     1      -3.378  11.424  24.271  0.00  0.00    +0.000 HD
ENDROOT
BRANCH   1  10
ATOM     10  N   UNL     1      -5.687  14.917  22.628  0.00  0.00    +0.000 N 
ATOM     11  C   UNL     1      -6.953  14.629  22.073  0.00  0.00    +0.000 C 
ATOM     12  O   UNL     1      -7.885  15.431  22.183  0.00  0.00    +0.000 OA
BRANCH  11  13
ATOM     13  C   UNL     1      -7.183  13.367  21.239  0.00  0.00    +0.000 A 
ATOM     14  C   UNL     1      -7.341  12.190  21.875  0.00  0.00    +0.000 A 
ATOM     15  C   UNL     1      -7.594  10.913  21.186  0.00  0.00    +0.000 A 
ATOM     16  O   UNL     1      -7.915   9.914  21.820  0.00  0.00    +0.000 OA
ATOM     17  N   UNL     1      -7.444  10.910  19.839  0.00  0.00    +0.000 N 
ATOM     18  C   UNL     1      -7.162  12.061  19.100  0.00  0.00    +0.000 A 
ATOM     19  C   UNL     1      -7.013  11.923  17.717  0.00  0.00    +0.000 A 
ATOM     20  C   UNL     1      -6.741  13.041  16.940  0.00  0.00    +0.000 A 
ATOM     21  C   UNL     1      -6.623  14.288  17.553  0.00  0.00    +0.000 A 
ATOM     22  C   UNL     1      -6.775  14.421  18.943  0.00  0.00    +0.000 A 
ATOM     23  C   UNL     1      -7.045  13.309  19.752  0.00  0.00    +0.000 A 
ATOM     24  H   UNL     1      -7.574  10.020  19.378  0.00  0.00    +0.000 HD
ENDBRANCH  11  13
BRANCH  10  25
ATOM     25  C   UNL     1      -5.435  16.281  23.144  0.00  0.00    +0.000 C 
BRANCH  25  27
ATOM     26  C   UNL     1      -3.613  16.571  24.935  0.00  0.00    +0.000 C 
ATOM     27  C   UNL     1      -5.097  16.429  24.635  0.00  0.00    +0.000 C 
ENDBRANCH  25  27
ENDBRANCH  10  25
ENDBRANCH   1  10
BRANCH   2  28
ATOM     28  N   UNL     1      -3.929  14.797  20.429  0.00  0.00    +0.000 N 
ATOM     29  H   UNL     1      -4.830  15.268  20.476  0.00  0.00    +0.000 HD
ATOM     30  H   UNL     1      -3.205  15.498  20.294  0.00  0.00    +0.000 HD
ENDBRANCH   2  28
BRANCH   3  31
ATOM     31  C   UNL     1      -1.623  13.060  20.530  0.00  0.00    +0.000 C 
BRANCH  31  32
ATOM     32  C   UNL     1      -1.752  12.058  19.400  0.00  0.00    +0.000 A 
ATOM     33  C   UNL     1      -2.932  11.836  18.677  0.00  0.00    +0.000 A 
ATOM     34  C   UNL     1      -3.004  10.812  17.725  0.00  0.00    +0.000 A 
ATOM     35  C   UNL     1      -1.893  10.010  17.466  0.00  0.00    +0.000 A 
ATOM     36  C   UNL     1      -0.697  10.254  18.132  0.00  0.00    +0.000 A 
ATOM     37  C   UNL     1      -0.626  11.276  19.083  0.00  0.00    +0.000 A 
ENDBRANCH  31  32
ENDBRANCH   3  31
TORSDOF 7
ENDMDL
MODEL 2
REMARK VINA RESULT:      -7.1      1.071      1.238
REMARK  Name = 
REMARK  8 active torsions:
REMARK  status: ('A' for Active; 'I' for Inactive)
REMARK    1  A    between atoms: C_1  and  C_2
REMARK    2  A    between atoms: C_2  and  C_3
REMARK    3  A    between atoms: C_3  and  N_4
REMARK    4  A    between atoms: N_4  and  C_18
REMARK    5  A    between atoms: C_5  and  C_7
REMARK    6  A    between atoms: C_19  and  N_20
REMARK    7  A    between atoms: N_21  and  C_22
REMARK    8  A    between atoms: C_22  and  C_23
REMARK                            x       y       z     vdW  Elec       q    Type
REMARK                         _______ _______ _______ _____ _____    ______ ____
ROOT
ATOM      1  C   UNL     1      -3.722  14.104  22.778  0.00  0.00    +0.000 A 
ATOM      2  C   UNL     1      -3.161  13.969  21.541  0.00  0.00    +0.000 A 
ATOM      3  N   UNL     1      -2.290  12.910  21.285  0.00  0.00    +0.000 N 
ATOM      4  C   UNL     1      -1.991  11.938  22.237  0.00  0.00    +0.000 A 
ATOM      5  O   UNL     1      -1.198  11.019  22.062  0.00  0.00    +0.000 OA
ATOM      6  N   UNL     1      -2.616  12.053  23.439  0.00  0.00    +0.000 N 
ATOM      7  C   UNL     1      -3.456  13.054  23.804  0.00  0.00    +0.000 A 
ATOM      8  O   UNL     1      -3.973  13.074  24.923  0.00  0.00    +0.000 OA
ATOM      9  H   UNL     1      -2.420  11.339  24.122  0.00  0.00    +0.000 HD
ENDROOT
BRANCH   1  10
ATOM     10  N   UNL     1      -4.655  15.105  23.093  0.00  0.00    +0.000 N 
ATOM     11  C   UNL     1      -6.056  14.930  23.039  0.00  0.00    +0.000 C 
ATOM     12  O   UNL     1      -6.816  15.843  23.373  0.00  0.00    +0.000 OA
BRANCH  11  13
ATOM     13  C   UNL     1      -6.671  13.647  22.477  0.00  0.00    +0.000 A 
ATOM     14  C   UNL     1      -6.925  12.627  23.319  0.00  0.00    +0.000 A 
ATOM     15  C   UNL     1      -7.539  11.354  22.903  0.00  0.00    +0.000 A 
ATOM     16  O   UNL     1      -7.917  10.541  23.739  0.00  0.00    +0.000 OA
ATOM     17  N   UNL     1      -7.648  11.140  21.570  0.00  0.00    +0.000 N 
ATOM     18  C   UNL     1      -7.299  12.095  20.612  0.00  0.00    +0.000 A 
ATOM     19  C   UNL     1      -7.443  11.745  19.266  0.00  0.00    +0.000 A 
ATOM     20  C   UNL     1      -7.117  12.665  18.279  0.00  0.00    +0.000 A 
ATOM     21  C   UNL     1      -6.652  13.928  18.646  0.00  0.00    +0.000 A 
ATOM     22  C   UNL     1      -6.512  14.275  20.001  0.00  0.00    +0.000 A 
ATOM     23  C   UNL     1      -6.829  13.364  21.017  0.00  0.00    +0.000 A 
ATOM     24  H   UNL     1      -8.028  10.245  21.291  0.00  0.00    +0.000 HD
ENDBRANCH  11  13
BRANCH  10  25
ATOM     25  C   UNL     1      -4.121  16.462  23.340  0.00  0.00    +0.000 C 
BRANCH  25  27
ATOM     26  C   UNL     1      -4.720  17.946  25.353  0.00  0.00    +0.000 C 
ATOM     27  C   UNL     1      -3.819  16.857  24.793  0.00  0.00    +0.000 C 
ENDBRANCH  25  27
ENDBRANCH  10  25
ENDBRANCH   1  10
BRANCH   2  28
ATOM     28  N   UNL     1      -3.583  14.803  20.505  0.00  0.00    +0.000 N 
ATOM     29  H   UNL     1      -2.857  14.929  19.803  0.00  0.00    +0.000 HD
ATOM     30  H   UNL     1      -4.423  14.464  20.043  0.00  0.00    +0.000 HD
ENDBRANCH   2  28
BRANCH   3  31
ATOM     31  C   UNL     1      -1.559  12.802  20.015  0.00  0.00    +0.000 C 
BRANCH  31  32
ATOM     32  C   UNL     1      -2.119  11.853  18.973  0.00  0.00    +0.000 A 
ATOM     33  C   UNL     1      -3.481  11.737  18.667  0.00  0.00    +0.000 A 
ATOM     34  C   UNL     1      -3.931  10.757  17.775  0.00  0.00    +0.000 A 
ATOM     35  C   UNL     1      -3.025   9.893  17.161  0.00  0.00    +0.000 A 
ATOM     36  C   UNL     1      -1.664  10.031  17.409  0.00  0.00    +0.000 A 
ATOM     37  C   UNL     1      -1.216  11.009  18.300  0.00  0.00    +0.000 A 
ENDBRANCH  31  32
ENDBRANCH   3  31
TORSDOF 7
ENDMDL
MODEL 3
REMARK VINA RESULT:      -6.8      1.904      4.801
REMARK  Name = 
REMARK  8 active torsions:
REMARK  status: ('A' for Active; 'I' for Inactive)
REMARK    1  A    between atoms: C_1  and  C_2
REMARK    2  A    between atoms: C_2  and  C_3
REMARK    3  A    between atoms: C_3  and  N_4
REMARK    4  A    between atoms: N_4  and  C_18
REMARK    5  A    between atoms: C_5  and  C_7
REMARK    6  A    between atoms: C_19  and  N_20
REMARK    7  A    between atoms: N_21  and  C_22
REMARK    8  A    between atoms: C_22  and  C_23
REMARK                            x       y       z     vdW  Elec       q    Type
REMARK                         _______ _______ _______ _____ _____    ______ ____
ROOT
ATOM      1  C   UNL     1      -4.383  13.625  22.230  0.00  0.00    +0.000 A 
ATOM      2  C   UNL     1      -4.526  13.722  20.876  0.00  0.00    +0.000 A 
ATOM      3  N   UNL     1      -5.453  12.915  20.216  0.00  0.00    +0.000 N 
ATOM      4  C   UNL     1      -6.288  12.026  20.889  0.00  0.00    +0.000 A 
ATOM      5  O   UNL     1      -7.082  11.271  20.338  0.00  0.00    +0.000 OA
ATOM      6  N   UNL     1      -6.178  11.998  22.244  0.00  0.00    +0.000 N 
ATOM      7  C   UNL     1      -5.295  12.715  22.983  0.00  0.00    +0.000 A 
ATOM      8  O   UNL     1      -5.268  12.618  24.212  0.00  0.00    +0.000 OA
ATOM      9  H   UNL     1      -6.796  11.374  22.736  0.00  0.00    +0.000 HD
ENDROOT
BRANCH   1  10
ATOM     10  N   UNL     1      -3.519  14.445  22.972  0.00  0.00    +0.000 N 
ATOM     11  C   UNL     1      -2.121  14.256  23.055  0.00  0.00    +0.000 C 
ATOM     12  O   UNL     1      -1.417  15.045  23.692  0.00  0.00    +0.000 OA
BRANCH  11  13
ATOM     13  C   UNL     1      -1.452  13.025  22.442  0.00  0.00    +0.000 A 
ATOM     14  C   UNL     1      -1.301  11.924  23.203  0.00  0.00    +0.000 A 
ATOM     15  C   UNL     1      -0.696  10.670  22.720  0.00  0.00    +0.000 A 
ATOM     16  O   UNL     1      -0.755   9.648  23.394  0.00  0.00    +0.000 OA
ATOM     17  N   UNL     1      -0.078  10.719  21.515  0.00  0.00    +0.000 N 
ATOM     18  C   UNL     1      -0.080  11.854  20.702  0.00  0.00    +0.000 A 
ATOM     19  C   UNL     1       0.610  11.783  19.488  0.00  0.00    +0.000 A 
ATOM     20  C   UNL     1       0.629  12.884  18.643  0.00  0.00    +0.000 A 
ATOM     21  C   UNL     1      -0.044  14.047  19.018  0.00  0.00    +0.000 A 
ATOM     22  C   UNL     1      -0.737  14.112  20.238  0.00  0.00    +0.000 A 
ATOM     23  C   UNL     1      -0.768  13.017  21.113  0.00  0.00    +0.000 A 
ATOM     24  H   UNL     1       0.374   9.867  21.210  0.00  0.00    +0.000 HD
ENDBRANCH  11  13
BRANCH  10  25
ATOM     25  C   UNL     1      -4.147  15.465  23.840  0.00  0.00    +0.000 C 
BRANCH  25  27
ATOM     26  C   UNL     1      -3.766  17.623  22.494  0.00  0.00    +0.000 C 
ATOM     27  C   UNL     1      -4.768  16.695  23.161  0.00  0.00    +0.000 C 
ENDBRANCH  25  27
ENDBRANCH  10  25
ENDBRANCH   1  10
BRANCH   2  28
ATOM     28  N   UNL     1      -3.852  14.733  20.189  0.00  0.00    +0.000 N 
ATOM     29  H   UNL     1      -2.854  14.546  20.129  0.00  0.00    +0.000 HD
ATOM     30  H   UNL     1      -4.211  14.876  19.248  0.00  0.00    +0.000 HD
ENDBRANCH   2  28
BRANCH   3  31
ATOM     31  C   UNL     1      -5.545  12.887  18.749  0.00  0.00    +0.000 C 
BRANCH  31  32
ATOM     32  C   UNL     1      -4.559  12.001  18.011  0.00  0.00    +0.000 A 
ATOM     33  C   UNL     1      -3.337  11.572  18.545  0.00  0.00    +0.000 A 
ATOM     34  C   UNL     1      -2.430  10.851  17.759  0.00  0.00    +0.000 A 
ATOM     35  C   UNL     1      -2.739  10.531  16.438  0.00  0.00    +0.000 A 
ATOM     36  C   UNL     1      -3.972  10.899  15.911  0.00  0.00    +0.000 A 
ATOM     37  C   UNL     1      -4.877  11.620  16.695  0.00  0.00    +0.000 A 
ENDBRANCH  31  32
ENDBRANCH   3  31
TORSDOF 7
ENDMDL
MODEL 4
REMARK VINA RESULT:      -6.8      2.193      5.373
REMARK  Name = 
REMARK  8 active torsions:
REMARK  status: ('A' for Active; 'I' for Inactive)
REMARK    1  A    between atoms: C_1  and  C_2
REMARK    2  A    between atoms: C_2  and  C_3
REMARK    3  A    between atoms: C_3  and  N_4
REMARK    4  A    between atoms: N_4  and  C_18
REMARK    5  A    between atoms: C_5  and  C_7
REMARK    6  A    between atoms: C_19  and  N_20
REMARK    7  A    between atoms: N_21  and  C_22
REMARK    8  A    between atoms: C_22  and  C_23
REMARK                            x       y       z     vdW  Elec       q    Type
REMARK                         _______ _______ _______ _____ _____    ______ ____
ROOT
ATOM      1  C   UNL     1      -2.960  13.292  21.964  0.00  0.00    +0.000 A 
ATOM      2  C   UNL     1      -3.312  13.292  20.646  0.00  0.00    +0.000 A 
ATOM      3  N   UNL     1      -4.519  12.714  20.249  0.00  0.00    +0.000 N 
ATOM      4  C   UNL     1      -5.421  12.163  21.157  0.00  0.00    +0.000 A 
ATOM      5  O   UNL     1      -6.468  11.609  20.841  0.00  0.00    +0.000 OA
ATOM      6  N   UNL     1      -5.081  12.239  22.471  0.00  0.00    +0.000 N 
ATOM      7  C   UNL     1      -3.925  12.751  22.964  0.00  0.00    +0.000 A 
ATOM      8  O   UNL     1      -3.705  12.771  24.177  0.00  0.00    +0.000 OA
ATOM      9  H   UNL     1      -5.741  11.862  23.132  0.00  0.00    +0.000 HD
ENDROOT
BRANCH   1  10
ATOM     10  N   UNL     1      -1.795  13.909  22.447  0.00  0.00    +0.000 N 
ATOM     11  C   UNL     1      -0.501  13.350  22.348  0.00  0.00    +0.000 C 
ATOM     12  O   UNL     1       0.485  13.970  22.757  0.00  0.00    +0.000 OA
BRANCH  11  13
ATOM     13  C   UNL     1      -0.292  11.928  21.822  0.00  0.00    +0.000 A 
ATOM     14  C   UNL     1      -0.565  10.890  22.635  0.00  0.00    +0.000 A 
ATOM     15  C   UNL     1      -0.429   9.478  22.237  0.00  0.00    +0.000 A 
ATOM     16  O   UNL     1      -0.868   8.583  22.949  0.00  0.00    +0.000 OA
ATOM     17  N   UNL     1       0.205   9.238  21.063  0.00  0.00    +0.000 N 
ATOM     18  C   UNL     1       0.632  10.252  20.204  0.00  0.00    +0.000 A 
ATOM     19  C   UNL     1       1.291   9.873  19.031  0.00  0.00    +0.000 A 
ATOM     20  C   UNL     1       1.726  10.847  18.142  0.00  0.00    +0.000 A 
ATOM     21  C   UNL     1       1.497  12.192  18.434  0.00  0.00    +0.000 A 
ATOM     22  C   UNL     1       0.833  12.567  19.614  0.00  0.00    +0.000 A 
ATOM     23  C   UNL     1       0.387  11.605  20.530  0.00  0.00    +0.000 A 
ATOM     24  H   UNL     1       0.335   8.265  20.818  0.00  0.00    +0.000 HD
ENDBRANCH  11  13
BRANCH  10  25
ATOM     25  C   UNL     1      -1.973  15.141  23.246  0.00  0.00    +0.000 C 
BRANCH  25  27
ATOM     26  C   UNL     1      -4.079  16.614  23.326  0.00  0.00    +0.000 C 
ATOM     27  C   UNL     1      -2.774  16.291  22.617  0.00  0.00    +0.000 C 
ENDBRANCH  25  27
ENDBRANCH  10  25
ENDBRANCH   1  10
BRANCH   2  28
ATOM     28  N   UNL     1      -2.535  14.003  19.730  0.00  0.00    +0.000 N 
ATOM     29  H   UNL     1      -1.940  14.687  20.192  0.00  0.00    +0.000 HD
ATOM     30  H   UNL     1      -1.950  13.400  19.158  0.00  0.00    +0.000 HD
ENDBRANCH   2  28
BRANCH   3  31
ATOM     31  C   UNL     1      -4.876  12.569  18.831  0.00  0.00    +0.000 C 
BRANCH  31  32
ATOM     32  C   UNL     1      -4.059  11.591  18.009  0.00  0.00    +0.000 A 
ATOM     33  C   UNL     1      -2.948  10.891  18.497  0.00  0.00    +0.000 A 
ATOM     34  C   UNL     1      -2.175  10.094  17.643  0.00  0.00    +0.000 A 
ATOM     35  C   UNL     1      -2.515   9.968  16.297  0.00  0.00    +0.000 A 
ATOM     36  C   UNL     1      -3.648  10.609  15.809  0.00  0.00    +0.000 A 
ATOM     37  C   UNL     1      -4.417  11.406  16.661  0.00  0.00    +0.000 A 
ENDBRANCH  31  32
ENDBRANCH   3  31
TORSDOF 7
ENDMDL
MODEL 5
REMARK VINA RESULT:      -6.7      3.341      6.850
REMARK  Name = 
REMARK  8 active torsions:
REMARK  status: ('A' for Active; 'I' for Inactive)
REMARK    1  A    between atoms: C_1  and  C_2
REMARK    2  A    between atoms: C_2  and  C_3
REMARK    3  A    between atoms: C_3  and  N_4
REMARK    4  A    between atoms: N_4  and  C_18
REMARK    5  A    between atoms: C_5  and  C_7
REMARK    6  A    between atoms: C_19  and  N_20
REMARK    7  A    between atoms: N_21  and  C_22
REMARK    8  A    between atoms: C_22  and  C_23
REMARK                            x       y       z     vdW  Elec       q    Type
REMARK                         _______ _______ _______ _____ _____    ______ ____
ROOT
ATOM      1  C   UNL     1      -0.189  11.904  18.789  0.00  0.00    +0.000 A 
ATOM      2  C   UNL     1      -1.470  12.323  18.571  0.00  0.00    +0.000 A 
ATOM      3  N   UNL     1      -2.396  11.453  17.995  0.00  0.00    +0.000 N 
ATOM      4  C   UNL     1      -2.084  10.136  17.664  0.00  0.00    +0.000 A 
ATOM      5  O   UNL     1      -2.859   9.358  17.117  0.00  0.00    +0.000 OA
ATOM      6  N   UNL     1      -0.823   9.720  17.956  0.00  0.00    +0.000 N 
ATOM      7  C   UNL     1       0.163  10.486  18.487  0.00  0.00    +0.000 A 
ATOM      8  O   UNL     1       1.280  10.017  18.712  0.00  0.00    +0.000 OA
ATOM      9  H   UNL     1      -0.601   8.762  17.739  0.00  0.00    +0.000 HD
ENDROOT
BRANCH   1  10
ATOM     10  N   UNL     1       0.781  12.698  19.421  0.00  0.00    +0.000 N 
ATOM     11  C   UNL     1       0.991  12.733  20.818  0.00  0.00    +0.000 C 
ATOM     12  O   UNL     1       1.894  13.424  21.300  0.00  0.00    +0.000 OA
BRANCH  11  13
ATOM     13  C   UNL     1       0.054  11.998  21.778  0.00  0.00    +0.000 A 
ATOM     14  C   UNL     1       0.227  10.675  21.966  0.00  0.00    +0.000 A 
ATOM     15  C   UNL     1      -0.593   9.863  22.882  0.00  0.00    +0.000 A 
ATOM     16  O   UNL     1      -0.272   8.712  23.153  0.00  0.00    +0.000 OA
ATOM     17  N   UNL     1      -1.703  10.454  23.388  0.00  0.00    +0.000 N 
ATOM     18  C   UNL     1      -2.031  11.791  23.153  0.00  0.00    +0.000 A 
ATOM     19  C   UNL     1      -3.214  12.278  23.718  0.00  0.00    +0.000 A 
ATOM     20  C   UNL     1      -3.576  13.603  23.518  0.00  0.00    +0.000 A 
ATOM     21  C   UNL     1      -2.750  14.431  22.758  0.00  0.00    +0.000 A 
ATOM     22  C   UNL     1      -1.562  13.938  22.195  0.00  0.00    +0.000 A 
ATOM     23  C   UNL     1      -1.175  12.603  22.376  0.00  0.00    +0.000 A 
ATOM     24  H   UNL     1      -2.286   9.877  23.980  0.00  0.00    +0.000 HD
ENDBRANCH  11  13
BRANCH  10  25
ATOM     25  C   UNL     1       1.507  13.668  18.572  0.00  0.00    +0.000 C 
BRANCH  25  27
ATOM     26  C   UNL     1       3.937  14.429  18.212  0.00  0.00    +0.000 C 
ATOM     27  C   UNL     1       2.927  13.296  18.119  0.00  0.00    +0.000 C 
ENDBRANCH  25  27
ENDBRANCH  10  25
ENDBRANCH   1  10
BRANCH   2  28
ATOM     28  N   UNL     1      -1.877  13.563  19.065  0.00  0.00    +0.000 N 
ATOM     29  H   UNL     1      -2.428  14.077  18.382  0.00  0.00    +0.000 HD
ATOM     30  H   UNL     1      -2.416  13.488  19.924  0.00  0.00    +0.000 HD
ENDBRANCH   2  28
BRANCH   3  31
ATOM     31  C   UNL     1      -3.744  11.901  17.617  0.00  0.00    +0.000 C 
BRANCH  31  32
ATOM     32  C   UNL     1      -4.836  11.769  18.662  0.00  0.00    +0.000 A 
ATOM     33  C   UNL     1      -4.859  12.482  19.868  0.00  0.00    +0.000 A 
ATOM     34  C   UNL     1      -5.839  12.220  20.832  0.00  0.00    +0.000 A 
ATOM     35  C   UNL     1      -6.822  11.259  20.596  0.00  0.00    +0.000 A 
ATOM     36  C   UNL     1      -6.848  10.584  19.381  0.00  0.00    +0.000 A 
ATOM     37  C   UNL     1      -5.868  10.845  18.419  0.00  0.00    +0.000 A 
ENDBRANCH  31  32
ENDBRANCH   3  31
TORSDOF 7
ENDMDL
MODEL 6
REMARK VINA RESULT:      -6.7      1.908      4.919
REMARK  Name = 
REMARK  8 active torsions:
REMARK  status: ('A' for Active; 'I' for Inactive)
REMARK    1  A    between atoms: C_1  and  C_2
REMARK    2  A    between atoms: C_2  and  C_3
REMARK    3  A    between atoms: C_3  and  N_4
REMARK    4  A    between atoms: N_4  and  C_18
REMARK    5  A    between atoms: C_5  and  C_7
REMARK    6  A    between atoms: C_19  and  N_20
REMARK    7  A    between atoms: N_21  and  C_22
REMARK    8  A    between atoms: C_22  and  C_23
REMARK                            x       y       z     vdW  Elec       q    Type
REMARK                         _______ _______ _______ _____ _____    ______ ____
ROOT
ATOM      1  C   UNL     1      -3.837  13.687  22.488  0.00  0.00    +0.000 A 
ATOM      2  C   UNL     1      -4.115  13.851  21.162  0.00  0.00    +0.000 A 
ATOM      3  N   UNL     1      -5.184  13.164  20.586  0.00  0.00    +0.000 N 
ATOM      4  C   UNL     1      -6.027  12.335  21.323  0.00  0.00    +0.000 A 
ATOM      5  O   UNL     1      -6.948  11.682  20.843  0.00  0.00    +0.000 OA
ATOM      6  N   UNL     1      -5.775  12.243  22.656  0.00  0.00    +0.000 N 
ATOM      7  C   UNL     1      -4.749  12.842  23.313  0.00  0.00    +0.000 A 
ATOM      8  O   UNL     1      -4.600  12.694  24.527  0.00  0.00    +0.000 OA
ATOM      9  H   UNL     1      -6.396  11.663  23.196  0.00  0.00    +0.000 HD
ENDROOT
BRANCH   1  10
ATOM     10  N   UNL     1      -2.820  14.391  23.153  0.00  0.00    +0.000 N 
ATOM     11  C   UNL     1      -1.451  14.047  23.098  0.00  0.00    +0.000 C 
ATOM     12  O   UNL     1      -0.606  14.739  23.674  0.00  0.00    +0.000 OA
BRANCH  11  13
ATOM     13  C   UNL     1      -0.985  12.763  22.409  0.00  0.00    +0.000 A 
ATOM     14  C   UNL     1      -0.990  11.613  23.111  0.00  0.00    +0.000 A 
ATOM     15  C   UNL     1      -0.590  10.310  22.552  0.00  0.00    +0.000 A 
ATOM     16  O   UNL     1      -0.792   9.275  23.176  0.00  0.00    +0.000 OA
ATOM     17  N   UNL     1       0.010  10.329  21.337  0.00  0.00    +0.000 N 
ATOM     18  C   UNL     1       0.168  11.493  20.582  0.00  0.00    +0.000 A 
ATOM     19  C   UNL     1       0.820  11.383  19.350  0.00  0.00    +0.000 A 
ATOM     20  C   UNL     1       0.992  12.513  18.561  0.00  0.00    +0.000 A 
ATOM     21  C   UNL     1       0.508  13.741  19.009  0.00  0.00    +0.000 A 
ATOM     22  C   UNL     1      -0.148  13.846  20.247  0.00  0.00    +0.000 A 
ATOM     23  C   UNL     1      -0.331  12.723  21.066  0.00  0.00    +0.000 A 
ATOM     24  H   UNL     1       0.323   9.437  20.980  0.00  0.00    +0.000 HD
ENDBRANCH  11  13
BRANCH  10  25
ATOM     25  C   UNL     1      -3.245  15.455  24.089  0.00  0.00    +0.000 C 
BRANCH  25  27
ATOM     26  C   UNL     1      -4.861  17.147  23.024  0.00  0.00    +0.000 C 
ATOM     27  C   UNL     1      -3.452  16.866  23.520  0.00  0.00    +0.000 C 
ENDBRANCH  25  27
ENDBRANCH  10  25
ENDBRANCH   1  10
BRANCH   2  28
ATOM     28  N   UNL     1      -3.421  14.817  20.433  0.00  0.00    +0.000 N 
ATOM     29  H   UNL     1      -3.674  15.760  20.721  0.00  0.00    +0.000 HD
ATOM     30  H   UNL     1      -2.412  14.718  20.507  0.00  0.00    +0.000 HD
ENDBRANCH   2  28
BRANCH   3  31
ATOM     31  C   UNL     1      -5.435  13.202  19.139  0.00  0.00    +0.000 C 
BRANCH  31  32
ATOM     32  C   UNL     1      -4.621  12.262  18.270  0.00  0.00    +0.000 A 
ATOM     33  C   UNL     1      -5.017  11.828  16.998  0.00  0.00    +0.000 A 
ATOM     34  C   UNL     1      -4.266  10.869  16.307  0.00  0.00    +0.000 A 
ATOM     35  C   UNL     1      -3.100  10.349  16.866  0.00  0.00    +0.000 A 
ATOM     36  C   UNL     1      -2.662  10.811  18.102  0.00  0.00    +0.000 A 
ATOM     37  C   UNL     1      -3.412  11.767  18.792  0.00  0.00    +0.000 A 
ENDBRANCH  31  32
ENDBRANCH   3  31
TORSDOF 7
ENDMDL
MODEL 7
REMARK VINA RESULT:      -6.6      2.290      5.500
REMARK  Name = 
REMARK  8 active torsions:
REMARK  status: ('A' for Active; 'I' for Inactive)
REMARK    1  A    between atoms: C_1  and  C_2
REMARK    2  A    between atoms: C_2  and  C_3
REMARK    3  A    between atoms: C_3  and  N_4
REMARK    4  A    between atoms: N_4  and  C_18
REMARK    5  A    between atoms: C_5  and  C_7
REMARK    6  A    between atoms: C_19  and  N_20
REMARK    7  A    between atoms: N_21  and  C_22
REMARK    8  A    between atoms: C_22  and  C_23
REMARK                            x       y       z     vdW  Elec       q    Type
REMARK                         _______ _______ _______ _____ _____    ______ ____
ROOT
ATOM      1  C   UNL     1      -2.245  14.158  21.875  0.00  0.00    +0.000 A 
ATOM      2  C   UNL     1      -3.506  14.253  21.364  0.00  0.00    +0.000 A 
ATOM      3  N   UNL     1      -4.574  13.653  22.032  0.00  0.00    +0.000 N 
ATOM      4  C   UNL     1      -4.419  12.984  23.244  0.00  0.00    +0.000 A 
ATOM      5  O   UNL     1      -5.326  12.408  23.836  0.00  0.00    +0.000 OA
ATOM      6  N   UNL     1      -3.166  12.963  23.770  0.00  0.00    +0.000 N 
ATOM      7  C   UNL     1      -2.054  13.486  23.194  0.00  0.00    +0.000 A 
ATOM      8  O   UNL     1      -0.956  13.413  23.749  0.00  0.00    +0.000 OA
ATOM      9  H   UNL     1      -3.054  12.499  24.657  0.00  0.00    +0.000 HD
ENDROOT
BRANCH   1  10
ATOM     10  N   UNL     1      -1.131  14.787  21.295  0.00  0.00    +0.000 N 
ATOM     11  C   UNL     1      -0.146  14.116  20.538  0.00  0.00    +0.000 C 
ATOM     12  O   UNL     1       0.784  14.742  20.021  0.00  0.00    +0.000 OA
BRANCH  11  13
ATOM     13  C   UNL     1      -0.145  12.591  20.415  0.00  0.00    +0.000 A 
ATOM     14  C   UNL     1       0.691  11.878  21.195  0.00  0.00    +0.000 A 
ATOM     15  C   UNL     1       0.766  10.407  21.187  0.00  0.00    +0.000 A 
ATOM     16  O   UNL     1       1.404   9.810  22.046  0.00  0.00    +0.000 OA
ATOM     17  N   UNL     1       0.105   9.771  20.189  0.00  0.00    +0.000 N 
ATOM     18  C   UNL     1      -0.695  10.437  19.258  0.00  0.00    +0.000 A 
ATOM     19  C   UNL     1      -1.310   9.668  18.265  0.00  0.00    +0.000 A 
ATOM     20  C   UNL     1      -2.121  10.286  17.323  0.00  0.00    +0.000 A 
ATOM     21  C   UNL     1      -2.312  11.666  17.383  0.00  0.00    +0.000 A 
ATOM     22  C   UNL     1      -1.694  12.433  18.384  0.00  0.00    +0.000 A 
ATOM     23  C   UNL     1      -0.866  11.837  19.344  0.00  0.00    +0.000 A 
ATOM     24  H   UNL     1       0.198   8.765  20.163  0.00  0.00    +0.000 HD
ENDBRANCH  11  13
BRANCH  10  25
ATOM     25  C   UNL     1      -0.909  16.207  21.644  0.00  0.00    +0.000 C 
BRANCH  25  27
ATOM     26  C   UNL     1       1.344  16.805  22.729  0.00  0.00    +0.000 C 
ATOM     27  C   UNL     1      -0.134  16.513  22.934  0.00  0.00    +0.000 C 
ENDBRANCH  25  27
ENDBRANCH  10  25
ENDBRANCH   1  10
BRANCH   2  28
ATOM     28  N   UNL     1      -3.736  15.077  20.260  0.00  0.00    +0.000 N 
ATOM     29  H   UNL     1      -3.444  16.035  20.439  0.00  0.00    +0.000 HD
ATOM     30  H   UNL     1      -3.270  14.748  19.419  0.00  0.00    +0.000 HD
ENDBRANCH   2  28
BRANCH   3  31
ATOM     31  C   UNL     1      -5.923  13.612  21.451  0.00  0.00    +0.000 C 
BRANCH  31  32
ATOM     32  C   UNL     1      -6.278  12.401  20.611  0.00  0.00    +0.000 A 
ATOM     33  C   UNL     1      -7.222  11.435  20.985  0.00  0.00    +0.000 A 
ATOM     34  C   UNL     1      -7.411  10.285  20.210  0.00  0.00    +0.000 A 
ATOM     35  C   UNL     1      -6.676  10.094  19.040  0.00  0.00    +0.000 A 
ATOM     36  C   UNL     1      -5.777  11.069  18.624  0.00  0.00    +0.000 A 
ATOM     37  C   UNL     1      -5.588  12.217  19.399  0.00  0.00    +0.000 A 
ENDBRANCH  31  32
ENDBRANCH   3  31
TORSDOF 7
ENDMDL
MODEL 8
REMARK VINA RESULT:      -6.6      1.809      4.601
REMARK  Name = 
REMARK  8 active torsions:
REMARK  status: ('A' for Active; 'I' for Inactive)
REMARK    1  A    between atoms: C_1  and  C_2
REMARK    2  A    between atoms: C_2  and  C_3
REMARK    3  A    between atoms: C_3  and  N_4
REMARK    4  A    between atoms: N_4  and  C_18
REMARK    5  A    between atoms: C_5  and  C_7
REMARK    6  A    between atoms: C_19  and  N_20
REMARK    7  A    between atoms: N_21  and  C_22
REMARK    8  A    between atoms: C_22  and  C_23
REMARK                            x       y       z     vdW  Elec       q    Type
REMARK                         _______ _______ _______ _____ _____    ______ ____
ROOT
ATOM      1  C   UNL     1      -5.535  13.498  21.803  0.00  0.00    +0.000 A 
ATOM      2  C   UNL     1      -5.422  13.548  20.444  0.00  0.00    +0.000 A 
ATOM      3  N   UNL     1      -5.965  12.528  19.663  0.00  0.00    +0.000 N 
ATOM      4  C   UNL     1      -6.671  11.459  20.210  0.00  0.00    +0.000 A 
ATOM      5  O   UNL     1      -7.124  10.523  19.559  0.00  0.00    +0.000 OA
ATOM      6  N   UNL     1      -6.833  11.466  21.560  0.00  0.00    +0.000 N 
ATOM      7  C   UNL     1      -6.324  12.389  22.415  0.00  0.00    +0.000 A 
ATOM      8  O   UNL     1      -6.522  12.308  23.629  0.00  0.00    +0.000 OA
ATOM      9  H   UNL     1      -7.362  10.707  21.958  0.00  0.00    +0.000 HD
ENDROOT
BRANCH   1  10
ATOM     10  N   UNL     1      -5.071  14.515  22.651  0.00  0.00    +0.000 N 
ATOM     11  C   UNL     1      -3.710  14.730  22.962  0.00  0.00    +0.000 C 
ATOM     12  O   UNL     1      -3.371  15.674  23.683  0.00  0.00    +0.000 OA
BRANCH  11  13
ATOM     13  C   UNL     1      -2.629  13.751  22.500  0.00  0.00    +0.000 A 
ATOM     14  C   UNL     1      -2.418  12.632  23.219  0.00  0.00    +0.000 A 
ATOM     15  C   UNL     1      -1.426  11.602  22.862  0.00  0.00    +0.000 A 
ATOM     16  O   UNL     1      -1.409  10.524  23.443  0.00  0.00    +0.000 OA
ATOM     17  N   UNL     1      -0.549  11.920  21.878  0.00  0.00    +0.000 N 
ATOM     18  C   UNL     1      -0.615  13.111  21.153  0.00  0.00    +0.000 A 
ATOM     19  C   UNL     1       0.360  13.329  20.175  0.00  0.00    +0.000 A 
ATOM     20  C   UNL     1       0.330  14.495  19.422  0.00  0.00    +0.000 A 
ATOM     21  C   UNL     1      -0.676  15.433  19.652  0.00  0.00    +0.000 A 
ATOM     22  C   UNL     1      -1.655  15.208  20.635  0.00  0.00    +0.000 A 
ATOM     23  C   UNL     1      -1.645  14.042  21.413  0.00  0.00    +0.000 A 
ATOM     24  H   UNL     1       0.157  11.227  21.670  0.00  0.00    +0.000 HD
ENDBRANCH  11  13
BRANCH  10  25
ATOM     25  C   UNL     1      -6.094  15.298  23.378  0.00  0.00    +0.000 C 
BRANCH  25  27
ATOM     26  C   UNL     1      -6.031  17.473  22.007  0.00  0.00    +0.000 C 
ATOM     27  C   UNL     1      -6.881  16.353  22.586  0.00  0.00    +0.000 C 
ENDBRANCH  25  27
ENDBRANCH  10  25
ENDBRANCH   1  10
BRANCH   2  28
ATOM     28  N   UNL     1      -4.897  14.694  19.844  0.00  0.00    +0.000 N 
ATOM     29  H   UNL     1      -5.493  15.032  19.092  0.00  0.00    +0.000 HD
ATOM     30  H   UNL     1      -4.749  15.452  20.505  0.00  0.00    +0.000 HD
ENDBRANCH   2  28
BRANCH   3  31
ATOM     31  C   UNL     1      -5.750  12.470  18.210  0.00  0.00    +0.000 C 
BRANCH  31  32
ATOM     32  C   UNL     1      -4.511  11.742  17.723  0.00  0.00    +0.000 A 
ATOM     33  C   UNL     1      -3.328  11.624  18.464  0.00  0.00    +0.000 A 
ATOM     34  C   UNL     1      -2.189  11.036  17.900  0.00  0.00    +0.000 A 
ATOM     35  C   UNL     1      -2.223  10.540  16.598  0.00  0.00    +0.000 A 
ATOM     36  C   UNL     1      -3.405  10.597  15.869  0.00  0.00    +0.000 A 
ATOM     37  C   UNL     1      -4.541  11.185  16.432  0.00  0.00    +0.000 A 
ENDBRANCH  31  32
ENDBRANCH   3  31
TORSDOF 7
ENDMDL
MODEL 9
REMARK VINA RESULT:      -6.6      2.290      3.510
REMARK  Name = 
REMARK  8 active torsions:
REMARK  status: ('A' for Active; 'I' for Inactive)
REMARK    1  A    between atoms: C_1  and  C_2
REMARK    2  A    between atoms: C_2  and  C_3
REMARK    3  A    between atoms: C_3  and  N_4
REMARK    4  A    between atoms: N_4  and  C_18
REMARK    5  A    between atoms: C_5  and  C_7
REMARK    6  A    between atoms: C_19  and  N_20
REMARK    7  A    between atoms: N_21  and  C_22
REMARK    8  A    between atoms: C_22  and  C_23
REMARK                            x       y       z     vdW  Elec       q    Type
REMARK                         _______ _______ _______ _____ _____    ______ ____
ROOT
ATOM      1  C   UNL     1      -2.906  14.782  21.189  0.00  0.00    +0.000 A 
ATOM      2  C   UNL     1      -2.496  13.496  20.993  0.00  0.00    +0.000 A 
ATOM      3  N   UNL     1      -1.456  13.226  20.103  0.00  0.00    +0.000 N 
ATOM      4  C   UNL     1      -0.773  14.231  19.421  0.00  0.00    +0.000 A 
ATOM      5  O   UNL     1       0.115  14.029  18.599  0.00  0.00    +0.000 OA
ATOM      6  N   UNL     1      -1.152  15.510  19.686  0.00  0.00    +0.000 N 
ATOM      7  C   UNL     1      -2.164  15.883  20.508  0.00  0.00    +0.000 A 
ATOM      8  O   UNL     1      -2.436  17.073  20.682  0.00  0.00    +0.000 OA
ATOM      9  H   UNL     1      -0.644  16.240  19.213  0.00  0.00    +0.000 HD
ENDROOT
BRANCH   1  10
ATOM     10  N   UNL     1      -3.901  15.139  22.114  0.00  0.00    +0.000 N 
ATOM     11  C   UNL     1      -5.280  15.197  21.813  0.00  0.00    +0.000 C 
ATOM     12  O   UNL     1      -6.103  15.477  22.690  0.00  0.00    +0.000 OA
BRANCH  11  13
ATOM     13  C   UNL     1      -5.786  15.012  20.381  0.00  0.00    +0.000 A 
ATOM     14  C   UNL     1      -6.050  16.106  19.641  0.00  0.00    +0.000 A 
ATOM     15  C   UNL     1      -6.516  16.057  18.244  0.00  0.00    +0.000 A 
ATOM     16  O   UNL     1      -6.560  17.076  17.565  0.00  0.00    +0.000 OA
ATOM     17  N   UNL     1      -6.893  14.844  17.772  0.00  0.00    +0.000 N 
ATOM     18  C   UNL     1      -6.767  13.665  18.509  0.00  0.00    +0.000 A 
ATOM     19  C   UNL     1      -7.208  12.479  17.916  0.00  0.00    +0.000 A 
ATOM     20  C   UNL     1      -7.094  11.281  18.608  0.00  0.00    +0.000 A 
ATOM     21  C   UNL     1      -6.538  11.278  19.886  0.00  0.00    +0.000 A 
ATOM     22  C   UNL     1      -6.093  12.473  20.477  0.00  0.00    +0.000 A 
ATOM     23  C   UNL     1      -6.201  13.697  19.804  0.00  0.00    +0.000 A 
ATOM     24  H   UNL     1      -7.255  14.826  16.828  0.00  0.00    +0.000 HD
ENDBRANCH  11  13
BRANCH  10  25
ATOM     25  C   UNL     1      -3.443  15.634  23.431  0.00  0.00    +0.000 C 
BRANCH  25  27
ATOM     26  C   UNL     1      -2.335  15.156  25.701  0.00  0.00    +0.000 C 
ATOM     27  C   UNL     1      -3.065  14.591  24.493  0.00  0.00    +0.000 C 
ENDBRANCH  25  27
ENDBRANCH  10  25
ENDBRANCH   1  10
BRANCH   2  28
ATOM     28  N   UNL     1      -3.018  12.482  21.798  0.00  0.00    +0.000 N 
ATOM     29  H   UNL     1      -3.803  12.810  22.355  0.00  0.00    +0.000 HD
ATOM     30  H   UNL     1      -3.318  11.670  21.264  0.00  0.00    +0.000 HD
ENDBRANCH   2  28
BRANCH   3  31
ATOM     31  C   UNL     1      -1.073  11.850  19.757  0.00  0.00    +0.000 C 
BRANCH  31  32
ATOM     32  C   UNL     1      -1.811  11.195  18.606  0.00  0.00    +0.000 A 
ATOM     33  C   UNL     1      -1.280  10.167  17.816  0.00  0.00    +0.000 A 
ATOM     34  C   UNL     1      -1.978   9.693  16.699  0.00  0.00    +0.000 A 
ATOM     35  C   UNL     1      -3.224  10.223  16.368  0.00  0.00    +0.000 A 
ATOM     36  C   UNL     1      -3.792  11.203  17.174  0.00  0.00    +0.000 A 
ATOM     37  C   UNL     1      -3.094  11.677  18.289  0.00  0.00    +0.000 A 
ENDBRANCH  31  32
ENDBRANCH   3  31
TORSDOF 7
ENDMDL
