MODEL 1
REMARK VINA RESULT:      -8.3      0.000      0.000
REMARK  Name = 
REMARK  8 active torsions:
REMARK  status: ('A' for Active; 'I' for Inactive)
REMARK    1  A    between atoms: C_1  and  S_2
REMARK    2  A    between atoms: S_2  and  C_5
REMARK    3  A    between atoms: C_5  and  C_6
REMARK    4  A    between atoms: N_14  and  C_15
REMARK    5  A    between atoms: C_15  and  C_16
REMARK    6  A    between atoms: N_18  and  C_19
REMARK    7  A    between atoms: C_22  and  S_23
REMARK    8  A    between atoms: S_23  and  C_24
REMARK                            x       y       z     vdW  Elec       q    Type
REMARK                         _______ _______ _______ _____ _____    ______ ____
ROOT
ATOM      1  C   UNL     1       2.634   7.641  18.427  0.00  0.00    +0.000 C 
ATOM      2  O   UNL     1       2.488   7.440  19.634  0.00  0.00    +0.000 OA
ATOM      3  N   UNL     1       2.228   8.778  17.740  0.00  0.00    +0.000 N 
ATOM      4  H   UNL     1       1.988   8.634  16.766  0.00  0.00    +0.000 HD
ENDROOT
BRANCH   3   5
ATOM      5  C   UNL     1       1.494   9.794  18.398  0.00  0.00    +0.000 A 
ATOM      6  C   UNL     1       0.241   9.548  18.965  0.00  0.00    +0.000 A 
ATOM      7  C   UNL     1      -0.544  10.607  19.428  0.00  0.00    +0.000 A 
ATOM      8  C   UNL     1      -0.084  11.919  19.319  0.00  0.00    +0.000 A 
ATOM      9  C   UNL     1       1.200  12.158  18.820  0.00  0.00    +0.000 A 
ATOM     10  C   UNL     1       2.005  11.094  18.396  0.00  0.00    +0.000 A 
BRANCH   8  11
ATOM     11  S   UNL     1      -1.195  13.275  19.636  0.00  0.00    +0.000 S 
BRANCH  11  12
ATOM     12  C   UNL     1      -2.424  12.476  20.718  0.00  0.00    +0.000 C 
ATOM     13  C   UNL     1      -3.836  12.774  20.208  0.00  0.00    +0.000 C 
ATOM     14  C   UNL     1      -4.736  12.768  21.440  0.00  0.00    +0.000 C 
ATOM     15  C   UNL     1      -3.820  12.802  22.658  0.00  0.00    +0.000 C 
ATOM     16  C   UNL     1      -2.414  13.046  22.131  0.00  0.00    +0.000 C 
ENDBRANCH  11  12
ENDBRANCH   8  11
ENDBRANCH   3   5
BRANCH   1  17
ATOM     17  C   UNL     1       3.336   6.600  17.589  0.00  0.00    +0.000 C 
BRANCH  17  26
ATOM     18  C   UNL     1       5.055   4.977  18.559  0.00  0.00    +0.000 A 
ATOM     19  N   UNL     1       5.075   3.716  18.939  0.00  0.00    +0.000 NA
ATOM     20  C   UNL     1       3.774   3.292  18.937  0.00  0.00    +0.000 A 
ATOM     21  C   UNL     1       3.256   2.025  19.239  0.00  0.00    +0.000 A 
ATOM     22  C   UNL     1       1.873   1.828  19.159  0.00  0.00    +0.000 A 
ATOM     23  C   UNL     1       1.030   2.872  18.787  0.00  0.00    +0.000 A 
ATOM     24  C   UNL     1       1.533   4.144  18.475  0.00  0.00    +0.000 A 
ATOM     25  C   UNL     1       2.922   4.325  18.558  0.00  0.00    +0.000 A 
ATOM     26  N   UNL     1       3.762   5.391  18.287  0.00  0.00    +0.000 N 
BRANCH  18  27
ATOM     27  C   UNL     1       6.285   5.804  18.448  0.00  0.00    +0.000 C 
BRANCH  27  29
ATOM     28  C   UNL     1       5.949   4.585  15.901  0.00  0.00    +0.000 C 
ATOM     29  S   UNL     1       7.170   5.308  16.973  0.00  0.00    +0.000 S 
ATOM     30  O   UNL     1       8.098   4.239  17.311  0.00  0.00    +0.000 OA
ATOM     31  O   UNL     1       7.645   6.512  16.316  0.00  0.00    +0.000 OA
ENDBRANCH  27  29
ENDBRANCH  18  27
ENDBRANCH  17  26
ENDBRANCH   1  17
TORSDOF 7
ENDMDL
MODEL 2
REMARK VINA RESULT:      -8.3      2.520      4.154
REMARK  Name = 
REMARK  8 active torsions:
REMARK  status: ('A' for Active; 'I' for Inactive)
REMARK    1  A    between atoms: C_1  and  S_2
REMARK    2  A    between atoms: S_2  and  C_5
REMARK    3  A    between atoms: C_5  and  C_6
REMARK    4  A    between atoms: N_14  and  C_15
REMARK    5  A    between atoms: C_15  and  C_16
REMARK    6  A    between atoms: N_18  and  C_19
REMARK    7  A    between atoms: C_22  and  S_23
REMARK    8  A    between atoms: S_23  and  C_24
REMARK                            x       y       z     vdW  Elec       q    Type
REMARK                         _______ _______ _______ _____ _____    ______ ____
ROOT
ATOM      1  C   UNL     1       2.392   5.583  17.743  0.00  0.00    +0.000 C 
ATOM      2  O   UNL     1       1.193   5.422  17.514  0.00  0.00    +0.000 OA
ATOM      3  N   UNL     1       2.956   6.686  18.373  0.00  0.00    +0.000 N 
ATOM      4  H   UNL     1       3.906   6.905  18.098  0.00  0.00    +0.000 HD
ENDROOT
BRANCH   3   5
ATOM      5  C   UNL     1       2.157   7.800  18.727  0.00  0.00    +0.000 A 
ATOM      6  C   UNL     1       1.910   8.842  17.829  0.00  0.00    +0.000 A 
ATOM      7  C   UNL     1       1.290  10.016  18.265  0.00  0.00    +0.000 A 
ATOM      8  C   UNL     1       0.921  10.158  19.603  0.00  0.00    +0.000 A 
ATOM      9  C   UNL     1       1.101   9.086  20.482  0.00  0.00    +0.000 A 
ATOM     10  C   UNL     1       1.683   7.893  20.037  0.00  0.00    +0.000 A 
BRANCH   8  11
ATOM     11  S   UNL     1       0.405  11.749  20.214  0.00  0.00    +0.000 S 
BRANCH  11  12
ATOM     12  C   UNL     1      -1.402  11.531  20.280  0.00  0.00    +0.000 C 
ATOM     13  C   UNL     1      -1.955  11.345  18.865  0.00  0.00    +0.000 C 
ATOM     14  C   UNL     1      -3.374  11.904  18.893  0.00  0.00    +0.000 C 
ATOM     15  C   UNL     1      -3.513  12.695  20.188  0.00  0.00    +0.000 C 
ATOM     16  C   UNL     1      -2.121  12.771  20.797  0.00  0.00    +0.000 C 
ENDBRANCH  11  12
ENDBRANCH   8  11
ENDBRANCH   3   5
BRANCH   1  17
ATOM     17  C   UNL     1       3.368   4.500  17.349  0.00  0.00    +0.000 C 
BRANCH  17  26
ATOM     18  C   UNL     1       4.806   3.660  19.286  0.00  0.00    +0.000 A 
ATOM     19  N   UNL     1       5.910   4.040  19.896  0.00  0.00    +0.000 NA
ATOM     20  C   UNL     1       6.442   5.047  19.138  0.00  0.00    +0.000 A 
ATOM     21  C   UNL     1       7.599   5.806  19.362  0.00  0.00    +0.000 A 
ATOM     22  C   UNL     1       7.942   6.797  18.436  0.00  0.00    +0.000 A 
ATOM     23  C   UNL     1       7.148   7.022  17.314  0.00  0.00    +0.000 A 
ATOM     24  C   UNL     1       5.984   6.276  17.079  0.00  0.00    +0.000 A 
ATOM     25  C   UNL     1       5.653   5.287  18.017  0.00  0.00    +0.000 A 
ATOM     26  N   UNL     1       4.588   4.411  18.144  0.00  0.00    +0.000 N 
BRANCH  18  27
ATOM     27  C   UNL     1       3.939   2.567  19.799  0.00  0.00    +0.000 C 
BRANCH  27  29
ATOM     28  C   UNL     1       1.129   2.932  20.035  0.00  0.00    +0.000 C 
ATOM     29  S   UNL     1       2.673   3.287  20.841  0.00  0.00    +0.000 S 
ATOM     30  O   UNL     1       2.815   4.735  20.829  0.00  0.00    +0.000 OA
ATOM     31  O   UNL     1       2.668   2.560  22.096  0.00  0.00    +0.000 OA
ENDBRANCH  27  29
ENDBRANCH  18  27
ENDBRANCH  17  26
ENDBRANCH   1  17
TORSDOF 7
ENDMDL
MODEL 3
REMARK VINA RESULT:      -8.3      1.133      1.488
REMARK  Name = 
REMARK  8 active torsions:
REMARK  status: ('A' for Active; 'I' for Inactive)
REMARK    1  A    between atoms: C_1  and  S_2
REMARK    2  A    between atoms: S_2  and  C_5
REMARK    3  A    between atoms: C_5  and  C_6
REMARK    4  A    between atoms: N_14  and  C_15
REMARK    5  A    between atoms: C_15  and  C_16
REMARK    6  A    between atoms: N_18  and  C_19
REMARK    7  A    between atoms: C_22  and  S_23
REMARK    8  A    between atoms: S_23  and  C_24
REMARK                            x       y       z     vdW  Elec       q    Type
REMARK                         _______ _______ _______ _____ _____    ______ ____
ROOT
ATOM      1  C   UNL     1       2.454   7.557  18.447  0.00  0.00    +0.000 C 
ATOM      2  O   UNL     1       2.409   7.667  19.673  0.00  0.00    +0.000 OA
ATOM      3  N   UNL     1       2.055   8.523  17.532  0.00  0.00    +0.000 N 
ATOM      4  H   UNL     1       1.718   8.168  16.644  0.00  0.00    +0.000 HD
ENDROOT
BRANCH   3   5
ATOM      5  C   UNL     1       1.450   9.725  17.970  0.00  0.00    +0.000 A 
ATOM      6  C   UNL     1       2.202  10.873  18.235  0.00  0.00    +0.000 A 
ATOM      7  C   UNL     1       1.610  11.977  18.855  0.00  0.00    +0.000 A 
ATOM      8  C   UNL     1       0.265  11.936  19.220  0.00  0.00    +0.000 A 
ATOM      9  C   UNL     1      -0.504  10.816  18.887  0.00  0.00    +0.000 A 
ATOM     10  C   UNL     1       0.078   9.727  18.228  0.00  0.00    +0.000 A 
BRANCH   8  11
ATOM     11  S   UNL     1      -0.408  13.215  20.262  0.00  0.00    +0.000 S 
BRANCH  11  12
ATOM     12  C   UNL     1      -1.673  12.286  21.186  0.00  0.00    +0.000 C 
ATOM     13  C   UNL     1      -3.021  13.004  21.086  0.00  0.00    +0.000 C 
ATOM     14  C   UNL     1      -3.768  12.673  22.375  0.00  0.00    +0.000 C 
ATOM     15  C   UNL     1      -2.751  12.065  23.333  0.00  0.00    +0.000 C 
ATOM     16  C   UNL     1      -1.388  12.243  22.682  0.00  0.00    +0.000 C 
ENDBRANCH  11  12
ENDBRANCH   8  11
ENDBRANCH   3   5
BRANCH   1  17
ATOM     17  C   UNL     1       3.010   6.290  17.843  0.00  0.00    +0.000 C 
BRANCH  17  26
ATOM     18  C   UNL     1       4.859   4.856  18.866  0.00  0.00    +0.000 A 
ATOM     19  N   UNL     1       4.931   3.781  19.625  0.00  0.00    +0.000 NA
ATOM     20  C   UNL     1       3.658   3.533  20.063  0.00  0.00    +0.000 A 
ATOM     21  C   UNL     1       3.190   2.492  20.876  0.00  0.00    +0.000 A 
ATOM     22  C   UNL     1       1.828   2.445  21.188  0.00  0.00    +0.000 A 
ATOM     23  C   UNL     1       0.955   3.414  20.699  0.00  0.00    +0.000 A 
ATOM     24  C   UNL     1       1.407   4.458  19.879  0.00  0.00    +0.000 A 
ATOM     25  C   UNL     1       2.775   4.491  19.574  0.00  0.00    +0.000 A 
ATOM     26  N   UNL     1       3.556   5.314  18.780  0.00  0.00    +0.000 N 
BRANCH  18  27
ATOM     27  C   UNL     1       6.049   5.457  18.208  0.00  0.00    +0.000 C 
BRANCH  27  29
ATOM     28  C   UNL     1       5.803   5.817  15.398  0.00  0.00    +0.000 C 
ATOM     29  S   UNL     1       6.299   4.640  16.635  0.00  0.00    +0.000 S 
ATOM     30  O   UNL     1       5.375   3.522  16.526  0.00  0.00    +0.000 OA
ATOM     31  O   UNL     1       7.726   4.432  16.467  0.00  0.00    +0.000 OA
ENDBRANCH  27  29
ENDBRANCH  18  27
ENDBRANCH  17  26
ENDBRANCH   1  17
TORSDOF 7
ENDMDL
MODEL 4
REMARK VINA RESULT:      -8.3      2.693      4.189
REMARK  Name = 
REMARK  8 active torsions:
REMARK  status: ('A' for Active; 'I' for Inactive)
REMARK    1  A    between atoms: C_1  and  S_2
REMARK    2  A    between atoms: S_2  and  C_5
REMARK    3  A    between atoms: C_5  and  C_6
REMARK    4  A    between atoms: N_14  and  C_15
REMARK    5  A    between atoms: C_15  and  C_16
REMARK    6  A    between atoms: N_18  and  C_19
REMARK    7  A    between atoms: C_22  and  S_23
REMARK    8  A    between atoms: S_23  and  C_24
REMARK                            x       y       z     vdW  Elec       q    Type
REMARK                         _______ _______ _______ _____ _____    ______ ____
ROOT
ATOM      1  C   UNL     1       2.398   5.733  17.782  0.00  0.00    +0.000 C 
ATOM      2  O   UNL     1       1.195   5.600  17.552  0.00  0.00    +0.000 OA
ATOM      3  N   UNL     1       2.982   6.803  18.449  0.00  0.00    +0.000 N 
ATOM      4  H   UNL     1       3.934   7.017  18.177  0.00  0.00    +0.000 HD
ENDROOT
BRANCH   3   5
ATOM      5  C   UNL     1       2.202   7.917  18.845  0.00  0.00    +0.000 A 
ATOM      6  C   UNL     1       1.744   8.064  20.156  0.00  0.00    +0.000 A 
ATOM      7  C   UNL     1       0.816   9.061  20.472  0.00  0.00    +0.000 A 
ATOM      8  C   UNL     1       0.335   9.909  19.475  0.00  0.00    +0.000 A 
ATOM      9  C   UNL     1       0.851   9.809  18.179  0.00  0.00    +0.000 A 
ATOM     10  C   UNL     1       1.812   8.839  17.872  0.00  0.00    +0.000 A 
BRANCH   8  11
ATOM     11  S   UNL     1      -1.051  10.976  19.814  0.00  0.00    +0.000 S 
BRANCH  11  12
ATOM     12  C   UNL     1      -0.460  11.860  21.293  0.00  0.00    +0.000 C 
ATOM     13  C   UNL     1      -1.513  11.780  22.401  0.00  0.00    +0.000 C 
ATOM     14  C   UNL     1      -1.348  13.052  23.228  0.00  0.00    +0.000 C 
ATOM     15  C   UNL     1      -0.460  13.992  22.421  0.00  0.00    +0.000 C 
ATOM     16  C   UNL     1      -0.293  13.355  21.050  0.00  0.00    +0.000 C 
ENDBRANCH  11  12
ENDBRANCH   8  11
ENDBRANCH   3   5
BRANCH   1  17
ATOM     17  C   UNL     1       3.354   4.649  17.345  0.00  0.00    +0.000 C 
BRANCH  17  26
ATOM     18  C   UNL     1       4.769   3.724  19.260  0.00  0.00    +0.000 A 
ATOM     19  N   UNL     1       5.884   4.058  19.877  0.00  0.00    +0.000 NA
ATOM     20  C   UNL     1       6.445   5.065  19.140  0.00  0.00    +0.000 A 
ATOM     21  C   UNL     1       7.624   5.785  19.379  0.00  0.00    +0.000 A 
ATOM     22  C   UNL     1       7.994   6.786  18.475  0.00  0.00    +0.000 A 
ATOM     23  C   UNL     1       7.207   7.059  17.360  0.00  0.00    +0.000 A 
ATOM     24  C   UNL     1       6.021   6.353  17.110  0.00  0.00    +0.000 A 
ATOM     25  C   UNL     1       5.662   5.354  18.027  0.00  0.00    +0.000 A 
ATOM     26  N   UNL     1       4.572   4.507  18.136  0.00  0.00    +0.000 N 
BRANCH  18  27
ATOM     27  C   UNL     1       3.870   2.646  19.750  0.00  0.00    +0.000 C 
BRANCH  27  29
ATOM     28  C   UNL     1       1.075   3.062  20.060  0.00  0.00    +0.000 C 
ATOM     29  S   UNL     1       2.645   3.375  20.833  0.00  0.00    +0.000 S 
ATOM     30  O   UNL     1       2.815   4.820  20.838  0.00  0.00    +0.000 OA
ATOM     31  O   UNL     1       2.656   2.630  22.078  0.00  0.00    +0.000 OA
ENDBRANCH  27  29
ENDBRANCH  18  27
ENDBRANCH  17  26
ENDBRANCH   1  17
TORSDOF 7
ENDMDL
MODEL 5
REMARK VINA RESULT:      -8.3      2.861      4.567
REMARK  Name = 
REMARK  8 active torsions:
REMARK  status: ('A' for Active; 'I' for Inactive)
REMARK    1  A    between atoms: C_1  and  S_2
REMARK    2  A    between atoms: S_2  and  C_5
REMARK    3  A    between atoms: C_5  and  C_6
REMARK    4  A    between atoms: N_14  and  C_15
REMARK    5  A    between atoms: C_15  and  C_16
REMARK    6  A    between atoms: N_18  and  C_19
REMARK    7  A    between atoms: C_22  and  S_23
REMARK    8  A    between atoms: S_23  and  C_24
REMARK                            x       y       z     vdW  Elec       q    Type
REMARK                         _______ _______ _______ _____ _____    ______ ____
ROOT
ATOM      1  C   UNL     1       2.463   5.723  17.763  0.00  0.00    +0.000 C 
ATOM      2  O   UNL     1       1.271   5.433  17.644  0.00  0.00    +0.000 OA
ATOM      3  N   UNL     1       2.963   6.851  18.400  0.00  0.00    +0.000 N 
ATOM      4  H   UNL     1       3.848   7.195  18.045  0.00  0.00    +0.000 HD
ENDROOT
BRANCH   3   5
ATOM      5  C   UNL     1       2.086   7.845  18.899  0.00  0.00    +0.000 A 
ATOM      6  C   UNL     1       1.615   8.883  18.091  0.00  0.00    +0.000 A 
ATOM      7  C   UNL     1       0.917   9.955  18.656  0.00  0.00    +0.000 A 
ATOM      8  C   UNL     1       0.695   9.998  20.032  0.00  0.00    +0.000 A 
ATOM      9  C   UNL     1       1.101   8.923  20.827  0.00  0.00    +0.000 A 
ATOM     10  C   UNL     1       1.762   7.829  20.257  0.00  0.00    +0.000 A 
BRANCH   8  11
ATOM     11  S   UNL     1       0.071  11.490  20.780  0.00  0.00    +0.000 S 
BRANCH  11  12
ATOM     12  C   UNL     1       0.455  12.717  19.490  0.00  0.00    +0.000 C 
ATOM     13  C   UNL     1       1.671  13.548  19.908  0.00  0.00    +0.000 C 
ATOM     14  C   UNL     1       1.485  14.917  19.261  0.00  0.00    +0.000 C 
ATOM     15  C   UNL     1       0.044  14.982  18.768  0.00  0.00    +0.000 C 
ATOM     16  C   UNL     1      -0.654  13.747  19.318  0.00  0.00    +0.000 C 
ENDBRANCH  11  12
ENDBRANCH   8  11
ENDBRANCH   3   5
BRANCH   1  17
ATOM     17  C   UNL     1       3.506   4.783  17.208  0.00  0.00    +0.000 C 
BRANCH  17  26
ATOM     18  C   UNL     1       4.890   3.759  19.094  0.00  0.00    +0.000 A 
ATOM     19  N   UNL     1       5.989   4.066  19.754  0.00  0.00    +0.000 NA
ATOM     20  C   UNL     1       6.554   5.121  19.090  0.00  0.00    +0.000 A 
ATOM     21  C   UNL     1       7.719   5.838  19.398  0.00  0.00    +0.000 A 
ATOM     22  C   UNL     1       8.097   6.894  18.563  0.00  0.00    +0.000 A 
ATOM     23  C   UNL     1       7.330   7.226  17.449  0.00  0.00    +0.000 A 
ATOM     24  C   UNL     1       6.158   6.524  17.132  0.00  0.00    +0.000 A 
ATOM     25  C   UNL     1       5.791   5.469  17.980  0.00  0.00    +0.000 A 
ATOM     26  N   UNL     1       4.709   4.606  18.014  0.00  0.00    +0.000 N 
BRANCH  18  27
ATOM     27  C   UNL     1       3.994   2.644  19.499  0.00  0.00    +0.000 C 
BRANCH  27  29
ATOM     28  C   UNL     1       1.210   2.934  19.997  0.00  0.00    +0.000 C 
ATOM     29  S   UNL     1       2.812   3.270  20.690  0.00  0.00    +0.000 S 
ATOM     30  O   UNL     1       2.929   4.718  20.760  0.00  0.00    +0.000 OA
ATOM     31  O   UNL     1       2.927   2.465  21.891  0.00  0.00    +0.000 OA
ENDBRANCH  27  29
ENDBRANCH  18  27
ENDBRANCH  17  26
ENDBRANCH   1  17
TORSDOF 7
ENDMDL
MODEL 6
REMARK VINA RESULT:      -8.2      2.095      2.873
REMARK  Name = 
REMARK  8 active torsions:
REMARK  status: ('A' for Active; 'I' for Inactive)
REMARK    1  A    between atoms: C_1  and  S_2
REMARK    2  A    between atoms: S_2  and  C_5
REMARK    3  A    between atoms: C_5  and  C_6
REMARK    4  A    between atoms: N_14  and  C_15
REMARK    5  A    between atoms: C_15  and  C_16
REMARK    6  A    between atoms: N_18  and  C_19
REMARK    7  A    between atoms: C_22  and  S_23
REMARK    8  A    between atoms: S_23  and  C_24
REMARK                            x       y       z     vdW  Elec       q    Type
REMARK                         _______ _______ _______ _____ _____    ______ ____
ROOT
ATOM      1  C   UNL     1       2.656   7.434  19.022  0.00  0.00    +0.000 C 
ATOM      2  O   UNL     1       2.212   7.563  17.880  0.00  0.00    +0.000 OA
ATOM      3  N   UNL     1       2.192   8.097  20.151  0.00  0.00    +0.000 N 
ATOM      4  H   UNL     1       2.883   8.259  20.874  0.00  0.00    +0.000 HD
ENDROOT
BRANCH   3   5
ATOM      5  C   UNL     1       1.187   9.089  20.043  0.00  0.00    +0.000 A 
ATOM      6  C   UNL     1       0.065   9.092  20.875  0.00  0.00    +0.000 A 
ATOM      7  C   UNL     1      -1.002   9.958  20.616  0.00  0.00    +0.000 A 
ATOM      8  C   UNL     1      -0.956  10.817  19.519  0.00  0.00    +0.000 A 
ATOM      9  C   UNL     1       0.199  10.865  18.732  0.00  0.00    +0.000 A 
ATOM     10  C   UNL     1       1.286  10.029  19.015  0.00  0.00    +0.000 A 
BRANCH   8  11
ATOM     11  S   UNL     1      -2.422  11.700  19.025  0.00  0.00    +0.000 S 
BRANCH  11  12
ATOM     12  C   UNL     1      -2.449  11.363  17.235  0.00  0.00    +0.000 C 
ATOM     13  C   UNL     1      -3.865  11.560  16.691  0.00  0.00    +0.000 C 
ATOM     14  C   UNL     1      -3.995  10.607  15.506  0.00  0.00    +0.000 C 
ATOM     15  C   UNL     1      -2.812   9.649  15.578  0.00  0.00    +0.000 C 
ATOM     16  C   UNL     1      -2.127   9.909  16.911  0.00  0.00    +0.000 C 
ENDBRANCH  11  12
ENDBRANCH   8  11
ENDBRANCH   3   5
BRANCH   1  17
ATOM     17  C   UNL     1       3.783   6.460  19.266  0.00  0.00    +0.000 C 
BRANCH  17  26
ATOM     18  C   UNL     1       4.255   4.682  17.494  0.00  0.00    +0.000 A 
ATOM     19  N   UNL     1       3.685   3.570  17.076  0.00  0.00    +0.000 NA
ATOM     20  C   UNL     1       2.695   3.282  17.975  0.00  0.00    +0.000 A 
ATOM     21  C   UNL     1       1.780   2.220  17.974  0.00  0.00    +0.000 A 
ATOM     22  C   UNL     1       0.844   2.139  19.010  0.00  0.00    +0.000 A 
ATOM     23  C   UNL     1       0.824   3.095  20.023  0.00  0.00    +0.000 A 
ATOM     24  C   UNL     1       1.728   4.167  20.035  0.00  0.00    +0.000 A 
ATOM     25  C   UNL     1       2.659   4.236  18.988  0.00  0.00    +0.000 A 
ATOM     26  N   UNL     1       3.645   5.146  18.647  0.00  0.00    +0.000 N 
BRANCH  18  27
ATOM     27  C   UNL     1       5.395   5.318  16.784  0.00  0.00    +0.000 C 
BRANCH  27  29
ATOM     28  C   UNL     1       7.542   6.508  18.218  0.00  0.00    +0.000 C 
ATOM     29  S   UNL     1       6.901   4.941  17.676  0.00  0.00    +0.000 S 
ATOM     30  O   UNL     1       7.881   4.399  16.748  0.00  0.00    +0.000 OA
ATOM     31  O   UNL     1       6.534   4.203  18.870  0.00  0.00    +0.000 OA
ENDBRANCH  27  29
ENDBRANCH  18  27
ENDBRANCH  17  26
ENDBRANCH   1  17
TORSDOF 7
ENDMDL
MODEL 7
REMARK VINA RESULT:      -8.1      2.177      3.687
REMARK  Name = 
REMARK  8 active torsions:
REMARK  status: ('A' for Active; 'I' for Inactive)
REMARK    1  A    between atoms: C_1  and  S_2
REMARK    2  A    between atoms: S_2  and  C_5
REMARK    3  A    between atoms: C_5  and  C_6
REMARK    4  A    between atoms: N_14  and  C_15
REMARK    5  A    between atoms: C_15  and  C_16
REMARK    6  A    between atoms: N_18  and  C_19
REMARK    7  A    between atoms: C_22  and  S_23
REMARK    8  A    between atoms: S_23  and  C_24
REMARK                            x       y       z     vdW  Elec       q    Type
REMARK                         _______ _______ _______ _____ _____    ______ ____
ROOT
ATOM      1  C   UNL     1       2.248   7.771  18.320  0.00  0.00    +0.000 C 
ATOM      2  O   UNL     1       2.308   7.743  19.550  0.00  0.00    +0.000 OA
ATOM      3  N   UNL     1       1.794   8.839  17.555  0.00  0.00    +0.000 N 
ATOM      4  H   UNL     1       1.376   8.591  16.666  0.00  0.00    +0.000 HD
ENDROOT
BRANCH   3   5
ATOM      5  C   UNL     1       1.254   9.991  18.176  0.00  0.00    +0.000 A 
ATOM      6  C   UNL     1       2.030  11.127  18.421  0.00  0.00    +0.000 A 
ATOM      7  C   UNL     1       1.530  12.167  19.210  0.00  0.00    +0.000 A 
ATOM      8  C   UNL     1       0.253  12.073  19.764  0.00  0.00    +0.000 A 
ATOM      9  C   UNL     1      -0.550  10.970  19.455  0.00  0.00    +0.000 A 
ATOM     10  C   UNL     1      -0.065   9.948  18.631  0.00  0.00    +0.000 A 
BRANCH   8  11
ATOM     11  S   UNL     1      -0.266  13.251  20.994  0.00  0.00    +0.000 S 
BRANCH  11  12
ATOM     12  C   UNL     1      -1.781  12.459  21.623  0.00  0.00    +0.000 C 
ATOM     13  C   UNL     1      -2.975  13.398  21.432  0.00  0.00    +0.000 C 
ATOM     14  C   UNL     1      -3.949  13.070  22.560  0.00  0.00    +0.000 C 
ATOM     15  C   UNL     1      -3.190  12.209  23.564  0.00  0.00    +0.000 C 
ATOM     16  C   UNL     1      -1.734  12.222  23.127  0.00  0.00    +0.000 C 
ENDBRANCH  11  12
ENDBRANCH   8  11
ENDBRANCH   3   5
BRANCH   1  17
ATOM     17  C   UNL     1       2.724   6.574  17.533  0.00  0.00    +0.000 C 
BRANCH  17  26
ATOM     18  C   UNL     1       3.689   4.779  19.073  0.00  0.00    +0.000 A 
ATOM     19  N   UNL     1       4.863   4.500  19.602  0.00  0.00    +0.000 NA
ATOM     20  C   UNL     1       5.767   5.327  18.993  0.00  0.00    +0.000 A 
ATOM     21  C   UNL     1       7.146   5.446  19.213  0.00  0.00    +0.000 A 
ATOM     22  C   UNL     1       7.869   6.378  18.462  0.00  0.00    +0.000 A 
ATOM     23  C   UNL     1       7.228   7.173  17.514  0.00  0.00    +0.000 A 
ATOM     24  C   UNL     1       5.848   7.071  17.287  0.00  0.00    +0.000 A 
ATOM     25  C   UNL     1       5.137   6.132  18.049  0.00  0.00    +0.000 A 
ATOM     26  N   UNL     1       3.798   5.792  18.136  0.00  0.00    +0.000 N 
BRANCH  18  27
ATOM     27  C   UNL     1       2.441   4.076  19.468  0.00  0.00    +0.000 C 
BRANCH  27  29
ATOM     28  C   UNL     1       3.466   1.573  18.590  0.00  0.00    +0.000 C 
ATOM     29  S   UNL     1       2.153   2.739  18.312  0.00  0.00    +0.000 S 
ATOM     30  O   UNL     1       2.330   3.236  16.956  0.00  0.00    +0.000 OA
ATOM     31  O   UNL     1       0.919   2.080  18.697  0.00  0.00    +0.000 OA
ENDBRANCH  27  29
ENDBRANCH  18  27
ENDBRANCH  17  26
ENDBRANCH   1  17
TORSDOF 7
ENDMDL
MODEL 8
REMARK VINA RESULT:      -8.1      1.232      1.849
REMARK  Name = 
REMARK  8 active torsions:
REMARK  status: ('A' for Active; 'I' for Inactive)
REMARK    1  A    between atoms: C_1  and  S_2
REMARK    2  A    between atoms: S_2  and  C_5
REMARK    3  A    between atoms: C_5  and  C_6
REMARK    4  A    between atoms: N_14  and  C_15
REMARK    5  A    between atoms: C_15  and  C_16
REMARK    6  A    between atoms: N_18  and  C_19
REMARK    7  A    between atoms: C_22  and  S_23
REMARK    8  A    between atoms: S_23  and  C_24
REMARK                            x       y       z     vdW  Elec       q    Type
REMARK                         _______ _______ _______ _____ _____    ______ ____
ROOT
ATOM      1  C   UNL     1       2.523   7.689  18.340  0.00  0.00    +0.000 C 
ATOM      2  O   UNL     1       2.355   7.737  19.559  0.00  0.00    +0.000 OA
ATOM      3  N   UNL     1       2.204   8.695  17.437  0.00  0.00    +0.000 N 
ATOM      4  H   UNL     1       1.962   8.381  16.504  0.00  0.00    +0.000 HD
ENDROOT
BRANCH   3   5
ATOM      5  C   UNL     1       1.541   9.868  17.870  0.00  0.00    +0.000 A 
ATOM      6  C   UNL     1       2.243  11.029  18.205  0.00  0.00    +0.000 A 
ATOM      7  C   UNL     1       1.586  12.100  18.817  0.00  0.00    +0.000 A 
ATOM      8  C   UNL     1       0.224  12.012  19.105  0.00  0.00    +0.000 A 
ATOM      9  C   UNL     1      -0.492  10.881  18.702  0.00  0.00    +0.000 A 
ATOM     10  C   UNL     1       0.157   9.825  18.050  0.00  0.00    +0.000 A 
BRANCH   8  11
ATOM     11  S   UNL     1      -0.543  13.244  20.138  0.00  0.00    +0.000 S 
BRANCH  11  12
ATOM     12  C   UNL     1      -0.436  12.448  21.773  0.00  0.00    +0.000 C 
ATOM     13  C   UNL     1       0.243  11.082  21.642  0.00  0.00    +0.000 C 
ATOM     14  C   UNL     1      -0.342  10.216  22.754  0.00  0.00    +0.000 C 
ATOM     15  C   UNL     1      -1.564  10.952  23.292  0.00  0.00    +0.000 C 
ATOM     16  C   UNL     1      -1.807  12.125  22.355  0.00  0.00    +0.000 C 
ENDBRANCH  11  12
ENDBRANCH   8  11
ENDBRANCH   3   5
BRANCH   1  17
ATOM     17  C   UNL     1       3.155   6.458  17.734  0.00  0.00    +0.000 C 
BRANCH  17  26
ATOM     18  C   UNL     1       4.992   5.103  18.880  0.00  0.00    +0.000 A 
ATOM     19  N   UNL     1       5.066   3.992  19.585  0.00  0.00    +0.000 NA
ATOM     20  C   UNL     1       3.778   3.628  19.867  0.00  0.00    +0.000 A 
ATOM     21  C   UNL     1       3.309   2.509  20.570  0.00  0.00    +0.000 A 
ATOM     22  C   UNL     1       1.929   2.346  20.727  0.00  0.00    +0.000 A 
ATOM     23  C   UNL     1       1.040   3.277  20.196  0.00  0.00    +0.000 A 
ATOM     24  C   UNL     1       1.493   4.398  19.485  0.00  0.00    +0.000 A 
ATOM     25  C   UNL     1       2.880   4.547  19.334  0.00  0.00    +0.000 A 
ATOM     26  N   UNL     1       3.673   5.471  18.675  0.00  0.00    +0.000 N 
BRANCH  18  27
ATOM     27  C   UNL     1       6.194   5.825  18.388  0.00  0.00    +0.000 C 
BRANCH  27  29
ATOM     28  C   UNL     1       5.444   3.899  16.435  0.00  0.00    +0.000 C 
ATOM     29  S   UNL     1       6.700   5.093  16.834  0.00  0.00    +0.000 S 
ATOM     30  O   UNL     1       7.927   4.340  17.040  0.00  0.00    +0.000 OA
ATOM     31  O   UNL     1       6.634   6.126  15.817  0.00  0.00    +0.000 OA
ENDBRANCH  27  29
ENDBRANCH  18  27
ENDBRANCH  17  26
ENDBRANCH   1  17
TORSDOF 7
ENDMDL
MODEL 9
REMARK VINA RESULT:      -8.1      4.153      9.501
REMARK  Name = 
REMARK  8 active torsions:
REMARK  status: ('A' for Active; 'I' for Inactive)
REMARK    1  A    between atoms: C_1  and  S_2
REMARK    2  A    between atoms: S_2  and  C_5
REMARK    3  A    between atoms: C_5  and  C_6
REMARK    4  A    between atoms: N_14  and  C_15
REMARK    5  A    between atoms: C_15  and  C_16
REMARK    6  A    between atoms: N_18  and  C_19
REMARK    7  A    between atoms: C_22  and  S_23
REMARK    8  A    between atoms: S_23  and  C_24
REMARK                            x       y       z     vdW  Elec       q    Type
REMARK                         _______ _______ _______ _____ _____    ______ ____
ROOT
ATOM      1  C   UNL     1      -1.223  10.614  17.957  0.00  0.00    +0.000 C 
ATOM      2  O   UNL     1      -1.712   9.486  17.885  0.00  0.00    +0.000 OA
ATOM      3  N   UNL     1       0.103  10.905  18.252  0.00  0.00    +0.000 N 
ATOM      4  H   UNL     1       0.261  11.792  18.716  0.00  0.00    +0.000 HD
ENDROOT
BRANCH   3   5
ATOM      5  C   UNL     1       1.008   9.873  18.600  0.00  0.00    +0.000 A 
ATOM      6  C   UNL     1       1.912   9.345  17.675  0.00  0.00    +0.000 A 
ATOM      7  C   UNL     1       2.649   8.198  17.984  0.00  0.00    +0.000 A 
ATOM      8  C   UNL     1       2.479   7.569  19.217  0.00  0.00    +0.000 A 
ATOM      9  C   UNL     1       1.630   8.141  20.169  0.00  0.00    +0.000 A 
ATOM     10  C   UNL     1       0.923   9.314  19.876  0.00  0.00    +0.000 A 
BRANCH   8  11
ATOM     11  S   UNL     1       3.192   5.960  19.494  0.00  0.00    +0.000 S 
BRANCH  11  12
ATOM     12  C   UNL     1       1.702   4.970  19.837  0.00  0.00    +0.000 C 
ATOM     13  C   UNL     1       1.915   4.132  21.100  0.00  0.00    +0.000 C 
ATOM     14  C   UNL     1       1.066   2.877  20.918  0.00  0.00    +0.000 C 
ATOM     15  C   UNL     1       0.648   2.835  19.452  0.00  0.00    +0.000 C 
ATOM     16  C   UNL     1       1.427   3.937  18.751  0.00  0.00    +0.000 C 
ENDBRANCH  11  12
ENDBRANCH   8  11
ENDBRANCH   3   5
BRANCH   1  17
ATOM     17  C   UNL     1      -2.098  11.813  17.682  0.00  0.00    +0.000 C 
BRANCH  17  26
ATOM     18  C   UNL     1      -2.702  12.794  19.962  0.00  0.00    +0.000 A 
ATOM     19  N   UNL     1      -3.726  12.738  20.789  0.00  0.00    +0.000 NA
ATOM     20  C   UNL     1      -4.738  12.116  20.108  0.00  0.00    +0.000 A 
ATOM     21  C   UNL     1      -6.029  11.790  20.547  0.00  0.00    +0.000 A 
ATOM     22  C   UNL     1      -6.895  11.142  19.660  0.00  0.00    +0.000 A 
ATOM     23  C   UNL     1      -6.481  10.829  18.367  0.00  0.00    +0.000 A 
ATOM     24  C   UNL     1      -5.191  11.143  17.916  0.00  0.00    +0.000 A 
ATOM     25  C   UNL     1      -4.333  11.791  18.818  0.00  0.00    +0.000 A 
ATOM     26  N   UNL     1      -3.013  12.202  18.750  0.00  0.00    +0.000 N 
BRANCH  18  27
ATOM     27  C   UNL     1      -1.403  13.415  20.331  0.00  0.00    +0.000 C 
BRANCH  27  29
ATOM     28  C   UNL     1      -1.226  13.028  23.142  0.00  0.00    +0.000 C 
ATOM     29  S   UNL     1      -0.627  12.404  21.588  0.00  0.00    +0.000 S 
ATOM     30  O   UNL     1       0.807  12.648  21.577  0.00  0.00    +0.000 OA
ATOM     31  O   UNL     1      -1.143  11.055  21.451  0.00  0.00    +0.000 OA
ENDBRANCH  27  29
ENDBRANCH  18  27
ENDBRANCH  17  26
ENDBRANCH   1  17
TORSDOF 7
ENDMDL
