MODEL 1
REMARK VINA RESULT:      -9.4      0.000      0.000
REMARK  Name = 
REMARK  5 active torsions:
REMARK  status: ('A' for Active; 'I' for Inactive)
REMARK    1  A    between atoms: C_1  and  N_2
REMARK    2  A    between atoms: C_6  and  C_7
REMARK    3  A    between atoms: C_7  and  C_8
REMARK    4  A    between atoms: C_8  and  C_9
REMARK    5  A    between atoms: C_22  and  C_23
REMARK                            x       y       z     vdW  Elec       q    Type
REMARK                         _______ _______ _______ _____ _____    ______ ____
ROOT
ATOM      1  C   UNL     1       0.922   9.692  19.055  0.00  0.00    +0.000 A 
ATOM      2  C   UNL     1       1.552   9.789  17.814  0.00  0.00    +0.000 A 
ATOM      3  C   UNL     1       2.518   8.851  17.469  0.00  0.00    +0.000 A 
ATOM      4  C   UNL     1       2.801   7.825  18.365  0.00  0.00    +0.000 A 
ATOM      5  C   UNL     1       2.168   7.793  19.592  0.00  0.00    +0.000 A 
ATOM      6  N   UNL     1       1.264   8.724  19.953  0.00  0.00    +0.000 NA
ATOM      7  N   UNL     1       2.419   6.778  20.520  0.00  0.00    +0.000 N 
ATOM      8  C   UNL     1       1.807   5.520  20.107  0.00  0.00    +0.000 C 
ATOM      9  C   UNL     1       2.433   4.786  18.931  0.00  0.00    +0.000 A 
ATOM     10  C   UNL     1       3.375   5.365  18.045  0.00  0.00    +0.000 A 
ATOM     11  C   UNL     1       3.942   4.606  17.004  0.00  0.00    +0.000 A 
ATOM     12  C   UNL     1       3.563   3.290  16.784  0.00  0.00    +0.000 A 
ATOM     13  C   UNL     1       2.611   2.714  17.610  0.00  0.00    +0.000 A 
ATOM     14  C   UNL     1       2.034   3.435  18.682  0.00  0.00    +0.000 A 
ATOM     15  C   UNL     1       3.778   6.797  18.021  0.00  0.00    +0.000 C 
ATOM     16  O   UNL     1       4.859   7.146  17.567  0.00  0.00    +0.000 OA
ATOM     17  H   UNL     1       1.931   7.104  21.356  0.00  0.00    +0.000 HD
ENDROOT
BRANCH   1  18
ATOM     18  C   UNL     1      -0.257  10.617  19.550  0.00  0.00    +0.000 C 
ATOM     19  C   UNL     1      -0.097  11.322  20.925  0.00  0.00    +0.000 C 
ATOM     20  O   UNL     1      -0.147  12.636  20.329  0.00  0.00    +0.000 OA
ATOM     21  C   UNL     1      -0.215  12.075  19.006  0.00  0.00    +0.000 C 
BRANCH  18  22
ATOM     22  C   UNL     1      -1.619   9.946  19.300  0.00  0.00    +0.000 C 
BRANCH  22  28
ATOM     23  C   UNL     1      -4.069  11.900  18.812  0.00  0.00    +0.000 C 
ATOM     24  N   UNL     1      -3.326  11.164  17.824  0.00  0.00    +0.000 N 
ATOM     25  C   UNL     1      -3.590  11.165  16.488  0.00  0.00    +0.000 A 
ATOM     26  N   UNL     1      -2.717  10.410  15.867  0.00  0.00    +0.000 NA
ATOM     27  N   UNL     1      -1.871   9.891  16.814  0.00  0.00    +0.000 NA
ATOM     28  C   UNL     1      -2.245  10.335  18.000  0.00  0.00    +0.000 A 
ENDBRANCH  22  28
ENDBRANCH  18  22
ENDBRANCH   1  18
BRANCH  14  29
ATOM     29  C   UNL     1       0.988   2.673  19.482  0.00  0.00    +0.000 C 
ATOM     30  F   UNL     1       0.057   3.440  20.106  0.00  0.00    +0.000 F 
ATOM     31  F   UNL     1       0.278   1.813  18.699  0.00  0.00    +0.000 F 
ATOM     32  F   UNL     1       1.549   1.907  20.459  0.00  0.00    +0.000 F 
ENDBRANCH  14  29
TORSDOF 4
ENDMDL
MODEL 2
REMARK VINA RESULT:      -9.2      1.890      2.786
REMARK  Name = 
REMARK  5 active torsions:
REMARK  status: ('A' for Active; 'I' for Inactive)
REMARK    1  A    between atoms: C_1  and  N_2
REMARK    2  A    between atoms: C_6  and  C_7
REMARK    3  A    between atoms: C_7  and  C_8
REMARK    4  A    between atoms: C_8  and  C_9
REMARK    5  A    between atoms: C_22  and  C_23
REMARK                            x       y       z     vdW  Elec       q    Type
REMARK                         _______ _______ _______ _____ _____    ______ ____
ROOT
ATOM      1  C   UNL     1       0.888   9.662  19.023  0.00  0.00    +0.000 A 
ATOM      2  C   UNL     1       1.516   9.741  17.780  0.00  0.00    +0.000 A 
ATOM      3  C   UNL     1       2.486   8.803  17.450  0.00  0.00    +0.000 A 
ATOM      4  C   UNL     1       2.776   7.794  18.363  0.00  0.00    +0.000 A 
ATOM      5  C   UNL     1       2.145   7.779  19.591  0.00  0.00    +0.000 A 
ATOM      6  N   UNL     1       1.237   8.712  19.938  0.00  0.00    +0.000 NA
ATOM      7  N   UNL     1       2.403   6.781  20.535  0.00  0.00    +0.000 N 
ATOM      8  C   UNL     1       1.797   5.513  20.145  0.00  0.00    +0.000 C 
ATOM      9  C   UNL     1       2.425   4.762  18.981  0.00  0.00    +0.000 A 
ATOM     10  C   UNL     1       3.363   5.331  18.084  0.00  0.00    +0.000 A 
ATOM     11  C   UNL     1       3.932   4.557  17.055  0.00  0.00    +0.000 A 
ATOM     12  C   UNL     1       3.561   3.236  16.858  0.00  0.00    +0.000 A 
ATOM     13  C   UNL     1       2.612   2.669  17.695  0.00  0.00    +0.000 A 
ATOM     14  C   UNL     1       2.034   3.405  18.756  0.00  0.00    +0.000 A 
ATOM     15  C   UNL     1       3.758   6.765  18.035  0.00  0.00    +0.000 C 
ATOM     16  O   UNL     1       4.837   7.112  17.572  0.00  0.00    +0.000 OA
ATOM     17  H   UNL     1       1.914   7.119  21.367  0.00  0.00    +0.000 HD
ENDROOT
BRANCH   1  18
ATOM     18  C   UNL     1      -0.295  10.589  19.504  0.00  0.00    +0.000 C 
ATOM     19  C   UNL     1      -0.467  11.965  18.805  0.00  0.00    +0.000 C 
ATOM     20  O   UNL     1      -1.775  11.616  18.300  0.00  0.00    +0.000 OA
ATOM     21  C   UNL     1      -1.670  10.287  18.843  0.00  0.00    +0.000 C 
BRANCH  18  22
ATOM     22  C   UNL     1      -0.384  10.608  21.041  0.00  0.00    +0.000 C 
BRANCH  22  28
ATOM     23  C   UNL     1      -2.574  12.391  22.481  0.00  0.00    +0.000 C 
ATOM     24  N   UNL     1      -1.200  12.730  22.225  0.00  0.00    +0.000 N 
ATOM     25  C   UNL     1      -0.617  13.920  22.540  0.00  0.00    +0.000 A 
ATOM     26  N   UNL     1       0.646  13.896  22.192  0.00  0.00    +0.000 NA
ATOM     27  N   UNL     1       0.896  12.673  21.624  0.00  0.00    +0.000 NA
ATOM     28  C   UNL     1      -0.222  11.970  21.631  0.00  0.00    +0.000 A 
ENDBRANCH  22  28
ENDBRANCH  18  22
ENDBRANCH   1  18
BRANCH  14  29
ATOM     29  C   UNL     1       0.993   2.651  19.571  0.00  0.00    +0.000 C 
ATOM     30  F   UNL     1      -0.036   3.403  20.042  0.00  0.00    +0.000 F 
ATOM     31  F   UNL     1       0.408   1.654  18.849  0.00  0.00    +0.000 F 
ATOM     32  F   UNL     1       1.538   2.047  20.663  0.00  0.00    +0.000 F 
ENDBRANCH  14  29
TORSDOF 4
ENDMDL
MODEL 3
REMARK VINA RESULT:      -9.2      3.405      8.077
REMARK  Name = 
REMARK  5 active torsions:
REMARK  status: ('A' for Active; 'I' for Inactive)
REMARK    1  A    between atoms: C_1  and  N_2
REMARK    2  A    between atoms: C_6  and  C_7
REMARK    3  A    between atoms: C_7  and  C_8
REMARK    4  A    between atoms: C_8  and  C_9
REMARK    5  A    between atoms: C_22  and  C_23
REMARK                            x       y       z     vdW  Elec       q    Type
REMARK                         _______ _______ _______ _____ _____    ______ ____
ROOT
ATOM      1  C   UNL     1       1.963   7.504  19.932  0.00  0.00    +0.000 A 
ATOM      2  C   UNL     1       1.615   7.854  21.237  0.00  0.00    +0.000 A 
ATOM      3  C   UNL     1       1.025   9.089  21.473  0.00  0.00    +0.000 A 
ATOM      4  C   UNL     1       0.771   9.925  20.390  0.00  0.00    +0.000 A 
ATOM      5  C   UNL     1       1.161   9.540  19.122  0.00  0.00    +0.000 A 
ATOM      6  N   UNL     1       1.776   8.365  18.891  0.00  0.00    +0.000 NA
ATOM      7  N   UNL     1       0.921  10.347  18.005  0.00  0.00    +0.000 N 
ATOM      8  C   UNL     1      -0.490  10.334  17.637  0.00  0.00    +0.000 C 
ATOM      9  C   UNL     1      -1.461  11.071  18.546  0.00  0.00    +0.000 A 
ATOM     10  C   UNL     1      -1.141  11.520  19.851  0.00  0.00    +0.000 A 
ATOM     11  C   UNL     1      -2.083  12.233  20.616  0.00  0.00    +0.000 A 
ATOM     12  C   UNL     1      -3.361  12.477  20.139  0.00  0.00    +0.000 A 
ATOM     13  C   UNL     1      -3.713  12.011  18.882  0.00  0.00    +0.000 A 
ATOM     14  C   UNL     1      -2.790  11.310  18.072  0.00  0.00    +0.000 A 
ATOM     15  C   UNL     1       0.113  11.212  20.591  0.00  0.00    +0.000 C 
ATOM     16  O   UNL     1       0.520  11.943  21.484  0.00  0.00    +0.000 OA
ATOM     17  H   UNL     1       1.443   9.875  17.264  0.00  0.00    +0.000 HD
ENDROOT
BRANCH   1  18
ATOM     18  C   UNL     1       2.548   6.106  19.492  0.00  0.00    +0.000 C 
ATOM     19  C   UNL     1       2.404   5.697  18.001  0.00  0.00    +0.000 C 
ATOM     20  O   UNL     1       3.834   5.656  17.808  0.00  0.00    +0.000 OA
ATOM     21  C   UNL     1       4.067   6.113  19.152  0.00  0.00    +0.000 C 
BRANCH  18  22
ATOM     22  C   UNL     1       2.191   5.016  20.519  0.00  0.00    +0.000 C 
BRANCH  22  28
ATOM     23  C   UNL     1       3.983   2.529  19.710  0.00  0.00    +0.000 C 
ATOM     24  N   UNL     1       2.564   2.680  19.532  0.00  0.00    +0.000 N 
ATOM     25  C   UNL     1       1.750   1.764  18.937  0.00  0.00    +0.000 A 
ATOM     26  N   UNL     1       0.513   2.199  18.954  0.00  0.00    +0.000 NA
ATOM     27  N   UNL     1       0.517   3.430  19.558  0.00  0.00    +0.000 NA
ATOM     28  C   UNL     1       1.757   3.730  19.897  0.00  0.00    +0.000 A 
ENDBRANCH  22  28
ENDBRANCH  18  22
ENDBRANCH   1  18
BRANCH  14  29
ATOM     29  C   UNL     1      -3.333  10.844  16.729  0.00  0.00    +0.000 C 
ATOM     30  F   UNL     1      -2.645  11.274  15.639  0.00  0.00    +0.000 F 
ATOM     31  F   UNL     1      -3.345   9.484  16.632  0.00  0.00    +0.000 F 
ATOM     32  F   UNL     1      -4.621  11.241  16.532  0.00  0.00    +0.000 F 
ENDBRANCH  14  29
TORSDOF 4
ENDMDL
MODEL 4
REMARK VINA RESULT:      -9.1      3.514      7.978
REMARK  Name = 
REMARK  5 active torsions:
REMARK  status: ('A' for Active; 'I' for Inactive)
REMARK    1  A    between atoms: C_1  and  N_2
REMARK    2  A    between atoms: C_6  and  C_7
REMARK    3  A    between atoms: C_7  and  C_8
REMARK    4  A    between atoms: C_8  and  C_9
REMARK    5  A    between atoms: C_22  and  C_23
REMARK                            x       y       z     vdW  Elec       q    Type
REMARK                         _______ _______ _______ _____ _____    ______ ____
ROOT
ATOM      1  C   UNL     1       2.060   7.075  19.726  0.00  0.00    +0.000 A 
ATOM      2  C   UNL     1       1.768   7.404  21.050  0.00  0.00    +0.000 A 
ATOM      3  C   UNL     1       1.257   8.663  21.339  0.00  0.00    +0.000 A 
ATOM      4  C   UNL     1       1.023   9.545  20.289  0.00  0.00    +0.000 A 
ATOM      5  C   UNL     1       1.356   9.178  19.000  0.00  0.00    +0.000 A 
ATOM      6  N   UNL     1       1.895   7.977  18.716  0.00  0.00    +0.000 NA
ATOM      7  N   UNL     1       1.133  10.032  17.915  0.00  0.00    +0.000 N 
ATOM      8  C   UNL     1      -0.286  10.112  17.587  0.00  0.00    +0.000 C 
ATOM      9  C   UNL     1      -1.188  10.874  18.546  0.00  0.00    +0.000 A 
ATOM     10  C   UNL     1      -0.806  11.262  19.854  0.00  0.00    +0.000 A 
ATOM     11  C   UNL     1      -1.684  12.005  20.667  0.00  0.00    +0.000 A 
ATOM     12  C   UNL     1      -2.958  12.336  20.234  0.00  0.00    +0.000 A 
ATOM     13  C   UNL     1      -3.371  11.930  18.974  0.00  0.00    +0.000 A 
ATOM     14  C   UNL     1      -2.512  11.204  18.117  0.00  0.00    +0.000 A 
ATOM     15  C   UNL     1       0.447  10.860  20.548  0.00  0.00    +0.000 C 
ATOM     16  O   UNL     1       0.920  11.539  21.449  0.00  0.00    +0.000 OA
ATOM     17  H   UNL     1       1.606   9.554  17.145  0.00  0.00    +0.000 HD
ENDROOT
BRANCH   1  18
ATOM     18  C   UNL     1       2.551   5.660  19.228  0.00  0.00    +0.000 C 
ATOM     19  C   UNL     1       1.897   4.402  19.862  0.00  0.00    +0.000 C 
ATOM     20  O   UNL     1       1.356   3.967  18.595  0.00  0.00    +0.000 OA
ATOM     21  C   UNL     1       1.853   5.145  17.936  0.00  0.00    +0.000 C 
BRANCH  18  22
ATOM     22  C   UNL     1       4.085   5.626  19.109  0.00  0.00    +0.000 C 
BRANCH  22  28
ATOM     23  C   UNL     1       4.842   3.407  16.974  0.00  0.00    +0.000 C 
ATOM     24  N   UNL     1       4.925   4.834  16.819  0.00  0.00    +0.000 N 
ATOM     25  C   UNL     1       5.389   5.474  15.710  0.00  0.00    +0.000 A 
ATOM     26  N   UNL     1       5.313   6.771  15.887  0.00  0.00    +0.000 NA
ATOM     27  N   UNL     1       4.802   6.988  17.141  0.00  0.00    +0.000 NA
ATOM     28  C   UNL     1       4.579   5.819  17.713  0.00  0.00    +0.000 A 
ENDBRANCH  22  28
ENDBRANCH  18  22
ENDBRANCH   1  18
BRANCH  14  29
ATOM     29  C   UNL     1      -3.118  10.811  16.778  0.00  0.00    +0.000 C 
ATOM     30  F   UNL     1      -2.448  11.253  15.682  0.00  0.00    +0.000 F 
ATOM     31  F   UNL     1      -3.192   9.458  16.632  0.00  0.00    +0.000 F 
ATOM     32  F   UNL     1      -4.393  11.269  16.639  0.00  0.00    +0.000 F 
ENDBRANCH  14  29
TORSDOF 4
ENDMDL
MODEL 5
REMARK VINA RESULT:      -9.1      0.728      1.090
REMARK  Name = 
REMARK  5 active torsions:
REMARK  status: ('A' for Active; 'I' for Inactive)
REMARK    1  A    between atoms: C_1  and  N_2
REMARK    2  A    between atoms: C_6  and  C_7
REMARK    3  A    between atoms: C_7  and  C_8
REMARK    4  A    between atoms: C_8  and  C_9
REMARK    5  A    between atoms: C_22  and  C_23
REMARK                            x       y       z     vdW  Elec       q    Type
REMARK                         _______ _______ _______ _____ _____    ______ ____
ROOT
ATOM      1  C   UNL     1       1.162   9.552  19.188  0.00  0.00    +0.000 A 
ATOM      2  C   UNL     1       1.724   9.649  17.915  0.00  0.00    +0.000 A 
ATOM      3  C   UNL     1       2.628   8.681  17.497  0.00  0.00    +0.000 A 
ATOM      4  C   UNL     1       2.919   7.626  18.356  0.00  0.00    +0.000 A 
ATOM      5  C   UNL     1       2.356   7.593  19.616  0.00  0.00    +0.000 A 
ATOM      6  N   UNL     1       1.514   8.551  20.047  0.00  0.00    +0.000 NA
ATOM      7  N   UNL     1       2.617   6.548  20.508  0.00  0.00    +0.000 N 
ATOM      8  C   UNL     1       1.931   5.325  20.107  0.00  0.00    +0.000 C 
ATOM      9  C   UNL     1       2.457   4.592  18.883  0.00  0.00    +0.000 A 
ATOM     10  C   UNL     1       3.371   5.151  17.956  0.00  0.00    +0.000 A 
ATOM     11  C   UNL     1       3.846   4.392  16.869  0.00  0.00    +0.000 A 
ATOM     12  C   UNL     1       3.401   3.099  16.646  0.00  0.00    +0.000 A 
ATOM     13  C   UNL     1       2.474   2.544  17.515  0.00  0.00    +0.000 A 
ATOM     14  C   UNL     1       1.990   3.263  18.632  0.00  0.00    +0.000 A 
ATOM     15  C   UNL     1       3.831   6.566  17.936  0.00  0.00    +0.000 C 
ATOM     16  O   UNL     1       4.898   6.881  17.427  0.00  0.00    +0.000 OA
ATOM     17  H   UNL     1       2.191   6.876  21.377  0.00  0.00    +0.000 HD
ENDROOT
BRANCH   1  18
ATOM     18  C   UNL     1       0.053  10.513  19.768  0.00  0.00    +0.000 C 
ATOM     19  C   UNL     1      -0.981   9.911  20.759  0.00  0.00    +0.000 C 
ATOM     20  O   UNL     1      -0.553  10.778  21.831  0.00  0.00    +0.000 OA
ATOM     21  C   UNL     1       0.490  11.337  21.013  0.00  0.00    +0.000 C 
BRANCH  18  22
ATOM     22  C   UNL     1      -0.529  11.407  18.659  0.00  0.00    +0.000 C 
BRANCH  22  28
ATOM     23  C   UNL     1      -3.506  12.273  19.321  0.00  0.00    +0.000 C 
ATOM     24  N   UNL     1      -3.076  11.256  18.400  0.00  0.00    +0.000 N 
ATOM     25  C   UNL     1      -3.906  10.458  17.672  0.00  0.00    +0.000 A 
ATOM     26  N   UNL     1      -3.195   9.655  16.919  0.00  0.00    +0.000 NA
ATOM     27  N   UNL     1      -1.872   9.919  17.166  0.00  0.00    +0.000 NA
ATOM     28  C   UNL     1      -1.797  10.878  18.071  0.00  0.00    +0.000 A 
ENDBRANCH  22  28
ENDBRANCH  18  22
ENDBRANCH   1  18
BRANCH  14  29
ATOM     29  C   UNL     1       0.960   2.528  19.476  0.00  0.00    +0.000 C 
ATOM     30  F   UNL     1       1.433   1.973  20.623  0.00  0.00    +0.000 F 
ATOM     31  F   UNL     1      -0.055   3.349  19.867  0.00  0.00    +0.000 F 
ATOM     32  F   UNL     1       0.369   1.509  18.791  0.00  0.00    +0.000 F 
ENDBRANCH  14  29
TORSDOF 4
ENDMDL
MODEL 6
REMARK VINA RESULT:      -9.0      3.359      8.219
REMARK  Name = 
REMARK  5 active torsions:
REMARK  status: ('A' for Active; 'I' for Inactive)
REMARK    1  A    between atoms: C_1  and  N_2
REMARK    2  A    between atoms: C_6  and  C_7
REMARK    3  A    between atoms: C_7  and  C_8
REMARK    4  A    between atoms: C_8  and  C_9
REMARK    5  A    between atoms: C_22  and  C_23
REMARK                            x       y       z     vdW  Elec       q    Type
REMARK                         _______ _______ _______ _____ _____    ______ ____
ROOT
ATOM      1  C   UNL     1       2.155   7.326  19.563  0.00  0.00    +0.000 A 
ATOM      2  C   UNL     1       1.823   7.541  20.900  0.00  0.00    +0.000 A 
ATOM      3  C   UNL     1       1.239   8.747  21.268  0.00  0.00    +0.000 A 
ATOM      4  C   UNL     1       0.974   9.689  20.279  0.00  0.00    +0.000 A 
ATOM      5  C   UNL     1       1.349   9.436  18.974  0.00  0.00    +0.000 A 
ATOM      6  N   UNL     1       1.959   8.289  18.617  0.00  0.00    +0.000 NA
ATOM      7  N   UNL     1       1.098  10.353  17.949  0.00  0.00    +0.000 N 
ATOM      8  C   UNL     1      -0.317  10.380  17.598  0.00  0.00    +0.000 C 
ATOM      9  C   UNL     1      -1.276  11.020  18.589  0.00  0.00    +0.000 A 
ATOM     10  C   UNL     1      -0.939  11.332  19.929  0.00  0.00    +0.000 A 
ATOM     11  C   UNL     1      -1.871  11.965  20.775  0.00  0.00    +0.000 A 
ATOM     12  C   UNL     1      -3.154  12.258  20.340  0.00  0.00    +0.000 A 
ATOM     13  C   UNL     1      -3.522  11.923  19.046  0.00  0.00    +0.000 A 
ATOM     14  C   UNL     1      -2.609  11.308  18.157  0.00  0.00    +0.000 A 
ATOM     15  C   UNL     1       0.322  10.949  20.619  0.00  0.00    +0.000 C 
ATOM     16  O   UNL     1       0.741  11.585  21.577  0.00  0.00    +0.000 OA
ATOM     17  H   UNL     1       1.611   9.959  17.157  0.00  0.00    +0.000 HD
ENDROOT
BRANCH   1  18
ATOM     18  C   UNL     1       2.733   5.980  18.975  0.00  0.00    +0.000 C 
ATOM     19  C   UNL     1       3.422   6.034  17.584  0.00  0.00    +0.000 C 
ATOM     20  O   UNL     1       4.693   5.613  18.127  0.00  0.00    +0.000 OA
ATOM     21  C   UNL     1       4.163   5.615  19.465  0.00  0.00    +0.000 C 
BRANCH  18  22
ATOM     22  C   UNL     1       1.738   4.823  19.181  0.00  0.00    +0.000 C 
BRANCH  22  28
ATOM     23  C   UNL     1       3.242   2.057  18.810  0.00  0.00    +0.000 C 
ATOM     24  N   UNL     1       2.789   2.648  20.040  0.00  0.00    +0.000 N 
ATOM     25  C   UNL     1       2.907   2.078  21.271  0.00  0.00    +0.000 A 
ATOM     26  N   UNL     1       2.413   2.884  22.178  0.00  0.00    +0.000 NA
ATOM     27  N   UNL     1       1.948   4.000  21.531  0.00  0.00    +0.000 NA
ATOM     28  C   UNL     1       2.162   3.855  20.236  0.00  0.00    +0.000 A 
ENDBRANCH  22  28
ENDBRANCH  18  22
ENDBRANCH   1  18
BRANCH  14  29
ATOM     29  C   UNL     1      -3.169  10.983  16.780  0.00  0.00    +0.000 C 
ATOM     30  F   UNL     1      -2.436  11.436  15.730  0.00  0.00    +0.000 F 
ATOM     31  F   UNL     1      -3.284   9.639  16.585  0.00  0.00    +0.000 F 
ATOM     32  F   UNL     1      -4.420  11.491  16.603  0.00  0.00    +0.000 F 
ENDBRANCH  14  29
TORSDOF 4
ENDMDL
MODEL 7
REMARK VINA RESULT:      -8.9      0.854      1.415
REMARK  Name = 
REMARK  5 active torsions:
REMARK  status: ('A' for Active; 'I' for Inactive)
REMARK    1  A    between atoms: C_1  and  N_2
REMARK    2  A    between atoms: C_6  and  C_7
REMARK    3  A    between atoms: C_7  and  C_8
REMARK    4  A    between atoms: C_8  and  C_9
REMARK    5  A    between atoms: C_22  and  C_23
REMARK                            x       y       z     vdW  Elec       q    Type
REMARK                         _______ _______ _______ _____ _____    ______ ____
ROOT
ATOM      1  C   UNL     1       1.101   9.588  19.176  0.00  0.00    +0.000 A 
ATOM      2  C   UNL     1       1.663   9.684  17.902  0.00  0.00    +0.000 A 
ATOM      3  C   UNL     1       2.575   8.721  17.490  0.00  0.00    +0.000 A 
ATOM      4  C   UNL     1       2.873   7.671  18.354  0.00  0.00    +0.000 A 
ATOM      5  C   UNL     1       2.309   7.640  19.614  0.00  0.00    +0.000 A 
ATOM      6  N   UNL     1       1.460   8.595  20.040  0.00  0.00    +0.000 NA
ATOM      7  N   UNL     1       2.578   6.602  20.511  0.00  0.00    +0.000 N 
ATOM      8  C   UNL     1       1.901   5.372  20.116  0.00  0.00    +0.000 C 
ATOM      9  C   UNL     1       2.433   4.637  18.896  0.00  0.00    +0.000 A 
ATOM     10  C   UNL     1       3.344   5.198  17.967  0.00  0.00    +0.000 A 
ATOM     11  C   UNL     1       3.825   4.438  16.884  0.00  0.00    +0.000 A 
ATOM     12  C   UNL     1       3.389   3.140  16.667  0.00  0.00    +0.000 A 
ATOM     13  C   UNL     1       2.466   2.582  17.538  0.00  0.00    +0.000 A 
ATOM     14  C   UNL     1       1.976   3.304  18.651  0.00  0.00    +0.000 A 
ATOM     15  C   UNL     1       3.793   6.617  17.940  0.00  0.00    +0.000 C 
ATOM     16  O   UNL     1       4.858   6.936  17.430  0.00  0.00    +0.000 OA
ATOM     17  H   UNL     1       2.149   6.931  21.379  0.00  0.00    +0.000 HD
ENDROOT
BRANCH   1  18
ATOM     18  C   UNL     1      -0.015  10.544  19.750  0.00  0.00    +0.000 C 
ATOM     19  C   UNL     1      -1.055   9.937  20.732  0.00  0.00    +0.000 C 
ATOM     20  O   UNL     1      -0.637  10.802  21.810  0.00  0.00    +0.000 OA
ATOM     21  C   UNL     1       0.410  11.367  21.001  0.00  0.00    +0.000 C 
BRANCH  18  22
ATOM     22  C   UNL     1      -0.593  11.439  18.639  0.00  0.00    +0.000 C 
BRANCH  22  28
ATOM     23  C   UNL     1      -2.577   9.866  16.732  0.00  0.00    +0.000 C 
ATOM     24  N   UNL     1      -2.919  10.807  17.764  0.00  0.00    +0.000 N 
ATOM     25  C   UNL     1      -4.184  11.208  18.069  0.00  0.00    +0.000 A 
ATOM     26  N   UNL     1      -4.148  12.054  19.069  0.00  0.00    +0.000 NA
ATOM     27  N   UNL     1      -2.833  12.224  19.420  0.00  0.00    +0.000 NA
ATOM     28  C   UNL     1      -2.086  11.482  18.624  0.00  0.00    +0.000 A 
ENDBRANCH  22  28
ENDBRANCH  18  22
ENDBRANCH   1  18
BRANCH  14  29
ATOM     29  C   UNL     1       0.951   2.565  19.499  0.00  0.00    +0.000 C 
ATOM     30  F   UNL     1      -0.102   3.310  19.925  0.00  0.00    +0.000 F 
ATOM     31  F   UNL     1       0.399   1.515  18.826  0.00  0.00    +0.000 F 
ATOM     32  F   UNL     1       1.505   2.033  20.624  0.00  0.00    +0.000 F 
ENDBRANCH  14  29
TORSDOF 4
ENDMDL
MODEL 8
REMARK VINA RESULT:      -8.8      3.556      7.991
REMARK  Name = 
REMARK  5 active torsions:
REMARK  status: ('A' for Active; 'I' for Inactive)
REMARK    1  A    between atoms: C_1  and  N_2
REMARK    2  A    between atoms: C_6  and  C_7
REMARK    3  A    between atoms: C_7  and  C_8
REMARK    4  A    between atoms: C_8  and  C_9
REMARK    5  A    between atoms: C_22  and  C_23
REMARK                            x       y       z     vdW  Elec       q    Type
REMARK                         _______ _______ _______ _____ _____    ______ ____
ROOT
ATOM      1  C   UNL     1       1.973   6.908  19.832  0.00  0.00    +0.000 A 
ATOM      2  C   UNL     1       1.703   7.281  21.149  0.00  0.00    +0.000 A 
ATOM      3  C   UNL     1       1.258   8.570  21.410  0.00  0.00    +0.000 A 
ATOM      4  C   UNL     1       1.065   9.439  20.341  0.00  0.00    +0.000 A 
ATOM      5  C   UNL     1       1.375   9.027  19.059  0.00  0.00    +0.000 A 
ATOM      6  N   UNL     1       1.851   7.794  18.802  0.00  0.00    +0.000 NA
ATOM      7  N   UNL     1       1.192   9.867  17.956  0.00  0.00    +0.000 N 
ATOM      8  C   UNL     1      -0.222  10.011  17.630  0.00  0.00    +0.000 C 
ATOM      9  C   UNL     1      -1.081  10.840  18.573  0.00  0.00    +0.000 A 
ATOM     10  C   UNL     1      -0.676  11.238  19.871  0.00  0.00    +0.000 A 
ATOM     11  C   UNL     1      -1.512  12.042  20.669  0.00  0.00    +0.000 A 
ATOM     12  C   UNL     1      -2.770  12.428  20.232  0.00  0.00    +0.000 A 
ATOM     13  C   UNL     1      -3.207  12.015  18.982  0.00  0.00    +0.000 A 
ATOM     14  C   UNL     1      -2.389  11.227  18.140  0.00  0.00    +0.000 A 
ATOM     15  C   UNL     1       0.558  10.788  20.571  0.00  0.00    +0.000 C 
ATOM     16  O   UNL     1       1.068  11.462  21.456  0.00  0.00    +0.000 OA
ATOM     17  H   UNL     1       1.637   9.348  17.196  0.00  0.00    +0.000 HD
ENDROOT
BRANCH   1  18
ATOM     18  C   UNL     1       2.390   5.459  19.365  0.00  0.00    +0.000 C 
ATOM     19  C   UNL     1       3.579   4.777  20.095  0.00  0.00    +0.000 C 
ATOM     20  O   UNL     1       2.746   3.703  20.583  0.00  0.00    +0.000 OA
ATOM     21  C   UNL     1       1.571   4.305  20.010  0.00  0.00    +0.000 C 
BRANCH  18  22
ATOM     22  C   UNL     1       2.409   5.365  17.828  0.00  0.00    +0.000 C 
BRANCH  22  28
ATOM     23  C   UNL     1       5.000   7.078  17.193  0.00  0.00    +0.000 C 
ATOM     24  N   UNL     1       4.812   5.667  16.986  0.00  0.00    +0.000 N 
ATOM     25  C   UNL     1       5.733   4.828  16.435  0.00  0.00    +0.000 A 
ATOM     26  N   UNL     1       5.255   3.608  16.409  0.00  0.00    +0.000 NA
ATOM     27  N   UNL     1       3.991   3.647  16.939  0.00  0.00    +0.000 NA
ATOM     28  C   UNL     1       3.714   4.893  17.277  0.00  0.00    +0.000 A 
ENDBRANCH  22  28
ENDBRANCH  18  22
ENDBRANCH   1  18
BRANCH  14  29
ATOM     29  C   UNL     1      -3.018  10.836  16.811  0.00  0.00    +0.000 C 
ATOM     30  F   UNL     1      -2.356  11.261  15.703  0.00  0.00    +0.000 F 
ATOM     31  F   UNL     1      -3.114   9.483  16.674  0.00  0.00    +0.000 F 
ATOM     32  F   UNL     1      -4.288  11.311  16.687  0.00  0.00    +0.000 F 
ENDBRANCH  14  29
TORSDOF 4
ENDMDL
MODEL 9
REMARK VINA RESULT:      -8.8      3.535      7.999
REMARK  Name = 
REMARK  5 active torsions:
REMARK  status: ('A' for Active; 'I' for Inactive)
REMARK    1  A    between atoms: C_1  and  N_2
REMARK    2  A    between atoms: C_6  and  C_7
REMARK    3  A    between atoms: C_7  and  C_8
REMARK    4  A    between atoms: C_8  and  C_9
REMARK    5  A    between atoms: C_22  and  C_23
REMARK                            x       y       z     vdW  Elec       q    Type
REMARK                         _______ _______ _______ _____ _____    ______ ____
ROOT
ATOM      1  C   UNL     1       2.013   7.030  19.845  0.00  0.00    +0.000 A 
ATOM      2  C   UNL     1       1.725   7.412  21.156  0.00  0.00    +0.000 A 
ATOM      3  C   UNL     1       1.237   8.689  21.398  0.00  0.00    +0.000 A 
ATOM      4  C   UNL     1       1.021   9.537  20.316  0.00  0.00    +0.000 A 
ATOM      5  C   UNL     1       1.349   9.118  19.041  0.00  0.00    +0.000 A 
ATOM      6  N   UNL     1       1.866   7.898  18.802  0.00  0.00    +0.000 NA
ATOM      7  N   UNL     1       1.143   9.936  17.926  0.00  0.00    +0.000 N 
ATOM      8  C   UNL     1      -0.274  10.029  17.592  0.00  0.00    +0.000 C 
ATOM      9  C   UNL     1      -1.163  10.842  18.521  0.00  0.00    +0.000 A 
ATOM     10  C   UNL     1      -0.777  11.270  19.814  0.00  0.00    +0.000 A 
ATOM     11  C   UNL     1      -1.642  12.057  20.598  0.00  0.00    +0.000 A 
ATOM     12  C   UNL     1      -2.910  12.396  20.151  0.00  0.00    +0.000 A 
ATOM     13  C   UNL     1      -3.328  11.952  18.906  0.00  0.00    +0.000 A 
ATOM     14  C   UNL     1      -2.481  11.180  18.078  0.00  0.00    +0.000 A 
ATOM     15  C   UNL     1       0.468  10.871  20.526  0.00  0.00    +0.000 C 
ATOM     16  O   UNL     1       0.952  11.573  21.403  0.00  0.00    +0.000 OA
ATOM     17  H   UNL     1       1.608   9.422  17.175  0.00  0.00    +0.000 HD
ENDROOT
BRANCH   1  18
ATOM     18  C   UNL     1       2.479   5.589  19.399  0.00  0.00    +0.000 C 
ATOM     19  C   UNL     1       1.753   4.367  20.024  0.00  0.00    +0.000 C 
ATOM     20  O   UNL     1       1.259   3.924  18.742  0.00  0.00    +0.000 OA
ATOM     21  C   UNL     1       1.828   5.071  18.085  0.00  0.00    +0.000 C 
BRANCH  18  22
ATOM     22  C   UNL     1       4.015   5.501  19.357  0.00  0.00    +0.000 C 
BRANCH  22  28
ATOM     23  C   UNL     1       4.829   7.126  16.759  0.00  0.00    +0.000 C 
ATOM     24  N   UNL     1       4.865   5.700  16.946  0.00  0.00    +0.000 N 
ATOM     25  C   UNL     1       5.231   4.796  15.996  0.00  0.00    +0.000 A 
ATOM     26  N   UNL     1       5.173   3.586  16.495  0.00  0.00    +0.000 NA
ATOM     27  N   UNL     1       4.746   3.694  17.794  0.00  0.00    +0.000 NA
ATOM     28  C   UNL     1       4.546   4.971  18.066  0.00  0.00    +0.000 A 
ENDBRANCH  22  28
ENDBRANCH  18  22
ENDBRANCH   1  18
BRANCH  14  29
ATOM     29  C   UNL     1      -3.092  10.750  16.752  0.00  0.00    +0.000 C 
ATOM     30  F   UNL     1      -3.143   9.409  16.539  0.00  0.00    +0.000 F 
ATOM     31  F   UNL     1      -4.378  11.183  16.622  0.00  0.00    +0.000 F 
ATOM     32  F   UNL     1      -2.418  11.267  15.687  0.00  0.00    +0.000 F 
ENDBRANCH  14  29
TORSDOF 4
ENDMDL
