MODEL 1
REMARK VINA RESULT:      -7.7      0.000      0.000
REMARK  Name = 
REMARK  5 active torsions:
REMARK  status: ('A' for Active; 'I' for Inactive)
REMARK    1  A    between atoms: C_2  and  C_15
REMARK    2  A    between atoms: N_3  and  C_4
REMARK    3  A    between atoms: C_7  and  C_8
REMARK    4  A    between atoms: N_18  and  C_19
REMARK    5  A    between atoms: C_26  and  C_27
REMARK                            x       y       z     vdW  Elec       q    Type
REMARK                         _______ _______ _______ _____ _____    ______ ____
ROOT
ATOM      1  C   UNL     1       1.211   9.513  19.076  0.00  0.00    +0.000 A 
ATOM      2  C   UNL     1       1.819   9.521  17.814  0.00  0.00    +0.000 A 
ATOM      3  N   UNL     1       2.454   8.388  17.548  0.00  0.00    +0.000 NA
ATOM      4  N   UNL     1       2.284   7.603  18.651  0.00  0.00    +0.000 N 
ATOM      5  C   UNL     1       1.588   8.290  19.636  0.00  0.00    +0.000 A 
ENDROOT
BRANCH   4   6
ATOM      6  C   UNL     1       2.790   6.261  18.579  0.00  0.00    +0.000 A 
ATOM      7  C   UNL     1       4.038   5.874  19.081  0.00  0.00    +0.000 A 
ATOM      8  C   UNL     1       4.455   4.539  19.007  0.00  0.00    +0.000 A 
ATOM      9  C   UNL     1       3.628   3.588  18.430  0.00  0.00    +0.000 A 
ATOM     10  F   UNL     1       4.031   2.311  18.370  0.00  0.00    +0.000 F 
ATOM     11  C   UNL     1       2.394   3.944  17.909  0.00  0.00    +0.000 A 
ATOM     12  C   UNL     1       1.981   5.279  17.973  0.00  0.00    +0.000 A 
ENDBRANCH   4   6
BRANCH   1  14
ATOM     13  O   UNL     1      -0.697  10.836  19.050  0.00  0.00    +0.000 OA
ATOM     14  C   UNL     1       0.311  10.500  19.657  0.00  0.00    +0.000 C 
ATOM     15  N   UNL     1       0.732  11.050  20.857  0.00  0.00    +0.000 N 
ATOM     16  H   UNL     1       1.653  10.817  21.198  0.00  0.00    +0.000 HD
BRANCH  15  17
ATOM     17  C   UNL     1       0.007  12.001  21.611  0.00  0.00    +0.000 A 
ATOM     18  C   UNL     1       0.283  13.366  21.574  0.00  0.00    +0.000 A 
ATOM     19  C   UNL     1      -0.454  14.266  22.347  0.00  0.00    +0.000 A 
ATOM     20  C   UNL     1      -1.488  13.823  23.178  0.00  0.00    +0.000 A 
ATOM     21  C   UNL     1      -1.769  12.450  23.205  0.00  0.00    +0.000 A 
ATOM     22  C   UNL     1      -1.040  11.547  22.418  0.00  0.00    +0.000 A 
BRANCH  20  23
ATOM     23  C   UNL     1      -2.230  14.786  23.973  0.00  0.00    +0.000 A 
ATOM     24  C   UNL     1      -3.546  14.925  24.369  0.00  0.00    +0.000 A 
ATOM     25  N   UNL     1      -3.703  16.053  25.130  0.00  0.00    +0.000 NA
ATOM     26  C   UNL     1      -2.492  16.551  25.173  0.00  0.00    +0.000 A 
ATOM     27  O   UNL     1      -1.542  15.847  24.501  0.00  0.00    +0.000 OA
ENDBRANCH  20  23
ENDBRANCH  15  17
ENDBRANCH   1  14
BRANCH   5  28
ATOM     28  C   UNL     1       1.276   7.707  20.955  0.00  0.00    +0.000 C 
ATOM     29  F   UNL     1       1.541   6.388  21.082  0.00  0.00    +0.000 F 
ATOM     30  F   UNL     1       1.946   8.327  21.958  0.00  0.00    +0.000 F 
ATOM     31  F   UNL     1      -0.052   7.814  21.227  0.00  0.00    +0.000 F 
ENDBRANCH   5  28
TORSDOF 5
ENDMDL
MODEL 2
REMARK VINA RESULT:      -7.6      7.907      9.185
REMARK  Name = 
REMARK  5 active torsions:
REMARK  status: ('A' for Active; 'I' for Inactive)
REMARK    1  A    between atoms: C_2  and  C_15
REMARK    2  A    between atoms: N_3  and  C_4
REMARK    3  A    between atoms: C_7  and  C_8
REMARK    4  A    between atoms: N_18  and  C_19
REMARK    5  A    between atoms: C_26  and  C_27
REMARK                            x       y       z     vdW  Elec       q    Type
REMARK                         _______ _______ _______ _____ _____    ______ ____
ROOT
ATOM      1  C   UNL     1       7.008   6.642  18.292  0.00  0.00    +0.000 A 
ATOM      2  C   UNL     1       7.476   5.573  19.067  0.00  0.00    +0.000 A 
ATOM      3  N   UNL     1       6.564   4.626  19.232  0.00  0.00    +0.000 NA
ATOM      4  N   UNL     1       5.455   5.064  18.569  0.00  0.00    +0.000 N 
ATOM      5  C   UNL     1       5.669   6.330  18.042  0.00  0.00    +0.000 A 
ENDROOT
BRANCH   4   6
ATOM      6  C   UNL     1       4.339   4.162  18.500  0.00  0.00    +0.000 A 
ATOM      7  C   UNL     1       4.042   3.379  17.378  0.00  0.00    +0.000 A 
ATOM      8  C   UNL     1       2.956   2.496  17.391  0.00  0.00    +0.000 A 
ATOM      9  C   UNL     1       2.162   2.393  18.523  0.00  0.00    +0.000 A 
ATOM     10  F   UNL     1       1.129   1.540  18.530  0.00  0.00    +0.000 F 
ATOM     11  C   UNL     1       2.421   3.168  19.642  0.00  0.00    +0.000 A 
ATOM     12  C   UNL     1       3.499   4.059  19.627  0.00  0.00    +0.000 A 
ENDBRANCH   4   6
BRANCH   1  14
ATOM     13  O   UNL     1       8.180   7.760  16.629  0.00  0.00    +0.000 OA
ATOM     14  C   UNL     1       7.751   7.783  17.775  0.00  0.00    +0.000 C 
ATOM     15  N   UNL     1       7.982   8.800  18.685  0.00  0.00    +0.000 N 
ATOM     16  H   UNL     1       7.720   8.655  19.649  0.00  0.00    +0.000 HD
BRANCH  15  17
ATOM     17  C   UNL     1       8.655  10.009  18.396  0.00  0.00    +0.000 A 
ATOM     18  C   UNL     1       9.977  10.248  18.764  0.00  0.00    +0.000 A 
ATOM     19  C   UNL     1      10.595  11.464  18.465  0.00  0.00    +0.000 A 
ATOM     20  C   UNL     1       9.905  12.476  17.790  0.00  0.00    +0.000 A 
ATOM     21  C   UNL     1       8.577  12.229  17.412  0.00  0.00    +0.000 A 
ATOM     22  C   UNL     1       7.961  11.003  17.698  0.00  0.00    +0.000 A 
BRANCH  20  23
ATOM     23  C   UNL     1      10.576  13.731  17.501  0.00  0.00    +0.000 A 
ATOM     24  C   UNL     1      11.838  14.093  17.072  0.00  0.00    +0.000 A 
ATOM     25  N   UNL     1      11.938  15.456  16.966  0.00  0.00    +0.000 NA
ATOM     26  C   UNL     1      10.748  15.868  17.327  0.00  0.00    +0.000 A 
ATOM     27  O   UNL     1       9.863  14.891  17.665  0.00  0.00    +0.000 OA
ENDBRANCH  20  23
ENDBRANCH  15  17
ENDBRANCH   1  14
BRANCH   5  28
ATOM     28  C   UNL     1       4.639   7.075  17.293  0.00  0.00    +0.000 C 
ATOM     29  F   UNL     1       3.362   6.724  17.561  0.00  0.00    +0.000 F 
ATOM     30  F   UNL     1       4.719   8.411  17.508  0.00  0.00    +0.000 F 
ATOM     31  F   UNL     1       4.773   6.869  15.955  0.00  0.00    +0.000 F 
ENDBRANCH   5  28
TORSDOF 5
ENDMDL
MODEL 3
REMARK VINA RESULT:      -7.6      0.539      1.275
REMARK  Name = 
REMARK  5 active torsions:
REMARK  status: ('A' for Active; 'I' for Inactive)
REMARK    1  A    between atoms: C_2  and  C_15
REMARK    2  A    between atoms: N_3  and  C_4
REMARK    3  A    between atoms: C_7  and  C_8
REMARK    4  A    between atoms: N_18  and  C_19
REMARK    5  A    between atoms: C_26  and  C_27
REMARK                            x       y       z     vdW  Elec       q    Type
REMARK                         _______ _______ _______ _____ _____    ______ ____
ROOT
ATOM      1  C   UNL     1       1.203   9.516  19.107  0.00  0.00    +0.000 A 
ATOM      2  C   UNL     1       1.835   9.568  17.857  0.00  0.00    +0.000 A 
ATOM      3  N   UNL     1       2.482   8.449  17.567  0.00  0.00    +0.000 NA
ATOM      4  N   UNL     1       2.296   7.627  18.640  0.00  0.00    +0.000 N 
ATOM      5  C   UNL     1       1.576   8.277  19.633  0.00  0.00    +0.000 A 
ENDROOT
BRANCH   4   6
ATOM      6  C   UNL     1       2.812   6.291  18.534  0.00  0.00    +0.000 A 
ATOM      7  C   UNL     1       4.079   5.909  18.992  0.00  0.00    +0.000 A 
ATOM      8  C   UNL     1       4.506   4.580  18.887  0.00  0.00    +0.000 A 
ATOM      9  C   UNL     1       3.670   3.628  18.323  0.00  0.00    +0.000 A 
ATOM     10  F   UNL     1       4.083   2.357  18.233  0.00  0.00    +0.000 F 
ATOM     11  C   UNL     1       2.417   3.980  17.846  0.00  0.00    +0.000 A 
ATOM     12  C   UNL     1       1.993   5.309  17.941  0.00  0.00    +0.000 A 
ENDBRANCH   4   6
BRANCH   1  14
ATOM     13  O   UNL     1      -0.739  10.789  19.109  0.00  0.00    +0.000 OA
ATOM     14  C   UNL     1       0.285  10.478  19.702  0.00  0.00    +0.000 C 
ATOM     15  N   UNL     1       0.707  11.036  20.897  0.00  0.00    +0.000 N 
ATOM     16  H   UNL     1       1.638  10.827  21.225  0.00  0.00    +0.000 HD
BRANCH  15  17
ATOM     17  C   UNL     1      -0.032  11.966  21.662  0.00  0.00    +0.000 A 
ATOM     18  C   UNL     1      -1.065  11.592  22.519  0.00  0.00    +0.000 A 
ATOM     19  C   UNL     1      -1.774  12.551  23.246  0.00  0.00    +0.000 A 
ATOM     20  C   UNL     1      -1.467  13.910  23.136  0.00  0.00    +0.000 A 
ATOM     21  C   UNL     1      -0.421  14.283  22.281  0.00  0.00    +0.000 A 
ATOM     22  C   UNL     1       0.302  13.320  21.562  0.00  0.00    +0.000 A 
BRANCH  20  23
ATOM     23  C   UNL     1      -2.229  14.881  23.902  0.00  0.00    +0.000 A 
ATOM     24  C   UNL     1      -2.042  15.558  25.092  0.00  0.00    +0.000 A 
ATOM     25  N   UNL     1      -3.110  16.375  25.355  0.00  0.00    +0.000 NA
ATOM     26  C   UNL     1      -3.897  16.172  24.327  0.00  0.00    +0.000 A 
ATOM     27  O   UNL     1      -3.440  15.286  23.402  0.00  0.00    +0.000 OA
ENDBRANCH  20  23
ENDBRANCH  15  17
ENDBRANCH   1  14
BRANCH   5  28
ATOM     28  C   UNL     1       1.243   7.650  20.926  0.00  0.00    +0.000 C 
ATOM     29  F   UNL     1      -0.062   7.703  21.276  0.00  0.00    +0.000 F 
ATOM     30  F   UNL     1       1.593   6.340  20.963  0.00  0.00    +0.000 F 
ATOM     31  F   UNL     1       1.893   8.273  21.946  0.00  0.00    +0.000 F 
ENDBRANCH   5  28
TORSDOF 5
ENDMDL
MODEL 4
REMARK VINA RESULT:      -7.5      1.363      1.748
REMARK  Name = 
REMARK  5 active torsions:
REMARK  status: ('A' for Active; 'I' for Inactive)
REMARK    1  A    between atoms: C_2  and  C_15
REMARK    2  A    between atoms: N_3  and  C_4
REMARK    3  A    between atoms: C_7  and  C_8
REMARK    4  A    between atoms: N_18  and  C_19
REMARK    5  A    between atoms: C_26  and  C_27
REMARK                            x       y       z     vdW  Elec       q    Type
REMARK                         _______ _______ _______ _____ _____    ______ ____
ROOT
ATOM      1  C   UNL     1       2.094   8.008  18.945  0.00  0.00    +0.000 A 
ATOM      2  C   UNL     1       2.989   7.969  17.867  0.00  0.00    +0.000 A 
ATOM      3  N   UNL     1       3.503   6.763  17.676  0.00  0.00    +0.000 NA
ATOM      4  N   UNL     1       2.959   5.972  18.645  0.00  0.00    +0.000 N 
ATOM      5  C   UNL     1       2.145   6.721  19.485  0.00  0.00    +0.000 A 
ENDROOT
BRANCH   4   6
ATOM      6  C   UNL     1       3.273   4.572  18.596  0.00  0.00    +0.000 A 
ATOM      7  C   UNL     1       4.233   3.962  19.412  0.00  0.00    +0.000 A 
ATOM      8  C   UNL     1       4.465   2.584  19.334  0.00  0.00    +0.000 A 
ATOM      9  C   UNL     1       3.740   1.810  18.440  0.00  0.00    +0.000 A 
ATOM     10  F   UNL     1       3.963   0.490  18.377  0.00  0.00    +0.000 F 
ATOM     11  C   UNL     1       2.795   2.388  17.608  0.00  0.00    +0.000 A 
ATOM     12  C   UNL     1       2.570   3.767  17.677  0.00  0.00    +0.000 A 
ENDBRANCH   4   6
BRANCH   1  14
ATOM     13  O   UNL     1       0.477   9.628  18.558  0.00  0.00    +0.000 OA
ATOM     14  C   UNL     1       1.227   9.100  19.367  0.00  0.00    +0.000 C 
ATOM     15  N   UNL     1       1.390   9.510  20.679  0.00  0.00    +0.000 N 
ATOM     16  H   UNL     1       2.143   9.111  21.220  0.00  0.00    +0.000 HD
BRANCH  15  17
ATOM     17  C   UNL     1       0.639  10.528  21.309  0.00  0.00    +0.000 A 
ATOM     18  C   UNL     1       0.759  11.875  20.975  0.00  0.00    +0.000 A 
ATOM     19  C   UNL     1       0.003  12.846  21.635  0.00  0.00    +0.000 A 
ATOM     20  C   UNL     1      -0.894  12.495  22.648  0.00  0.00    +0.000 A 
ATOM     21  C   UNL     1      -1.020  11.138  22.975  0.00  0.00    +0.000 A 
ATOM     22  C   UNL     1      -0.273  10.160  22.303  0.00  0.00    +0.000 A 
BRANCH  20  23
ATOM     23  C   UNL     1      -1.660  13.532  23.318  0.00  0.00    +0.000 A 
ATOM     24  C   UNL     1      -2.986  13.922  23.327  0.00  0.00    +0.000 A 
ATOM     25  N   UNL     1      -3.166  14.995  24.159  0.00  0.00    +0.000 NA
ATOM     26  C   UNL     1      -1.960  15.214  24.625  0.00  0.00    +0.000 A 
ATOM     27  O   UNL     1      -0.992  14.374  24.168  0.00  0.00    +0.000 OA
ENDBRANCH  20  23
ENDBRANCH  15  17
ENDBRANCH   1  14
BRANCH   5  28
ATOM     28  C   UNL     1       1.439   6.143  20.645  0.00  0.00    +0.000 C 
ATOM     29  F   UNL     1       2.233   5.583  21.585  0.00  0.00    +0.000 F 
ATOM     30  F   UNL     1       0.679   7.063  21.289  0.00  0.00    +0.000 F 
ATOM     31  F   UNL     1       0.614   5.136  20.254  0.00  0.00    +0.000 F 
ENDBRANCH   5  28
TORSDOF 5
ENDMDL
MODEL 5
REMARK VINA RESULT:      -7.4      3.797     10.106
REMARK  Name = 
REMARK  5 active torsions:
REMARK  status: ('A' for Active; 'I' for Inactive)
REMARK    1  A    between atoms: C_2  and  C_15
REMARK    2  A    between atoms: N_3  and  C_4
REMARK    3  A    between atoms: C_7  and  C_8
REMARK    4  A    between atoms: N_18  and  C_19
REMARK    5  A    between atoms: C_26  and  C_27
REMARK                            x       y       z     vdW  Elec       q    Type
REMARK                         _______ _______ _______ _____ _____    ______ ____
ROOT
ATOM      1  C   UNL     1      -0.826  11.377  21.927  0.00  0.00    +0.000 A 
ATOM      2  C   UNL     1      -1.384  11.091  23.180  0.00  0.00    +0.000 A 
ATOM      3  N   UNL     1      -2.523  11.735  23.389  0.00  0.00    +0.000 NA
ATOM      4  N   UNL     1      -2.736  12.480  22.266  0.00  0.00    +0.000 N 
ATOM      5  C   UNL     1      -1.678  12.339  21.379  0.00  0.00    +0.000 A 
ENDROOT
BRANCH   4   6
ATOM      6  C   UNL     1      -3.976  13.200  22.189  0.00  0.00    +0.000 A 
ATOM      7  C   UNL     1      -4.194  14.439  22.803  0.00  0.00    +0.000 A 
ATOM      8  C   UNL     1      -5.418  15.102  22.659  0.00  0.00    +0.000 A 
ATOM      9  C   UNL     1      -6.429  14.531  21.902  0.00  0.00    +0.000 A 
ATOM     10  F   UNL     1      -7.595  15.176  21.762  0.00  0.00    +0.000 F 
ATOM     11  C   UNL     1      -6.248  13.298  21.295  0.00  0.00    +0.000 A 
ATOM     12  C   UNL     1      -5.030  12.629  21.447  0.00  0.00    +0.000 A 
ENDBRANCH   4   6
BRANCH   1  14
ATOM     13  O   UNL     1       1.447  11.203  21.484  0.00  0.00    +0.000 OA
ATOM     14  C   UNL     1       0.325  10.759  21.282  0.00  0.00    +0.000 C 
ATOM     15  N   UNL     1       0.028   9.732  20.402  0.00  0.00    +0.000 N 
ATOM     16  H   UNL     1      -0.941   9.543  20.189  0.00  0.00    +0.000 HD
BRANCH  15  17
ATOM     17  C   UNL     1       0.984   8.974  19.689  0.00  0.00    +0.000 A 
ATOM     18  C   UNL     1       1.371   9.275  18.385  0.00  0.00    +0.000 A 
ATOM     19  C   UNL     1       2.312   8.488  17.718  0.00  0.00    +0.000 A 
ATOM     20  C   UNL     1       2.891   7.377  18.338  0.00  0.00    +0.000 A 
ATOM     21  C   UNL     1       2.507   7.082  19.654  0.00  0.00    +0.000 A 
ATOM     22  C   UNL     1       1.574   7.880  20.330  0.00  0.00    +0.000 A 
BRANCH  20  23
ATOM     23  C   UNL     1       3.862   6.577  17.612  0.00  0.00    +0.000 A 
ATOM     24  C   UNL     1       5.096   6.814  17.037  0.00  0.00    +0.000 A 
ATOM     25  N   UNL     1       5.586   5.671  16.462  0.00  0.00    +0.000 NA
ATOM     26  C   UNL     1       4.647   4.790  16.708  0.00  0.00    +0.000 A 
ATOM     27  O   UNL     1       3.571   5.254  17.399  0.00  0.00    +0.000 OA
ENDBRANCH  20  23
ENDBRANCH  15  17
ENDBRANCH   1  14
BRANCH   5  28
ATOM     28  C   UNL     1      -1.614  13.046  20.085  0.00  0.00    +0.000 C 
ATOM     29  F   UNL     1      -2.020  14.335  20.109  0.00  0.00    +0.000 F 
ATOM     30  F   UNL     1      -0.360  13.053  19.570  0.00  0.00    +0.000 F 
ATOM     31  F   UNL     1      -2.426  12.451  19.170  0.00  0.00    +0.000 F 
ENDBRANCH   5  28
TORSDOF 5
ENDMDL
MODEL 6
REMARK VINA RESULT:      -7.4      3.769     10.138
REMARK  Name = 
REMARK  5 active torsions:
REMARK  status: ('A' for Active; 'I' for Inactive)
REMARK    1  A    between atoms: C_2  and  C_15
REMARK    2  A    between atoms: N_3  and  C_4
REMARK    3  A    between atoms: C_7  and  C_8
REMARK    4  A    between atoms: N_18  and  C_19
REMARK    5  A    between atoms: C_26  and  C_27
REMARK                            x       y       z     vdW  Elec       q    Type
REMARK                         _______ _______ _______ _____ _____    ______ ____
ROOT
ATOM      1  C   UNL     1      -0.819  11.381  21.902  0.00  0.00    +0.000 A 
ATOM      2  C   UNL     1      -1.336  11.107  23.176  0.00  0.00    +0.000 A 
ATOM      3  N   UNL     1      -2.478  11.737  23.408  0.00  0.00    +0.000 NA
ATOM      4  N   UNL     1      -2.737  12.459  22.279  0.00  0.00    +0.000 N 
ATOM      5  C   UNL     1      -1.702  12.320  21.364  0.00  0.00    +0.000 A 
ENDROOT
BRANCH   4   6
ATOM      6  C   UNL     1      -3.989  13.160  22.226  0.00  0.00    +0.000 A 
ATOM      7  C   UNL     1      -5.121  12.676  21.559  0.00  0.00    +0.000 A 
ATOM      8  C   UNL     1      -6.321  13.397  21.576  0.00  0.00    +0.000 A 
ATOM      9  C   UNL     1      -6.395  14.602  22.257  0.00  0.00    +0.000 A 
ATOM     10  F   UNL     1      -7.550  15.282  22.275  0.00  0.00    +0.000 F 
ATOM     11  C   UNL     1      -5.287  15.114  22.913  0.00  0.00    +0.000 A 
ATOM     12  C   UNL     1      -4.084  14.400  22.888  0.00  0.00    +0.000 A 
ENDBRANCH   4   6
BRANCH   1  14
ATOM     13  O   UNL     1       1.435  11.264  21.356  0.00  0.00    +0.000 OA
ATOM     14  C   UNL     1       0.322  10.770  21.234  0.00  0.00    +0.000 C 
ATOM     15  N   UNL     1       0.022   9.687  20.426  0.00  0.00    +0.000 N 
ATOM     16  H   UNL     1      -0.947   9.453  20.271  0.00  0.00    +0.000 HD
BRANCH  15  17
ATOM     17  C   UNL     1       0.971   8.925  19.706  0.00  0.00    +0.000 A 
ATOM     18  C   UNL     1       1.383   9.250  18.416  0.00  0.00    +0.000 A 
ATOM     19  C   UNL     1       2.316   8.459  17.741  0.00  0.00    +0.000 A 
ATOM     20  C   UNL     1       2.862   7.321  18.341  0.00  0.00    +0.000 A 
ATOM     21  C   UNL     1       2.453   7.002  19.644  0.00  0.00    +0.000 A 
ATOM     22  C   UNL     1       1.528   7.803  20.327  0.00  0.00    +0.000 A 
BRANCH  20  23
ATOM     23  C   UNL     1       3.825   6.517  17.609  0.00  0.00    +0.000 A 
ATOM     24  C   UNL     1       4.114   5.168  17.522  0.00  0.00    +0.000 A 
ATOM     25  N   UNL     1       5.154   4.954  16.657  0.00  0.00    +0.000 NA
ATOM     26  C   UNL     1       5.454   6.163  16.250  0.00  0.00    +0.000 A 
ATOM     27  O   UNL     1       4.699   7.165  16.775  0.00  0.00    +0.000 OA
ENDBRANCH  20  23
ENDBRANCH  15  17
ENDBRANCH   1  14
BRANCH   5  28
ATOM     28  C   UNL     1      -1.687  13.006  20.058  0.00  0.00    +0.000 C 
ATOM     29  F   UNL     1      -1.960  14.330  20.096  0.00  0.00    +0.000 F 
ATOM     30  F   UNL     1      -0.491  12.883  19.431  0.00  0.00    +0.000 F 
ATOM     31  F   UNL     1      -2.634  12.488  19.230  0.00  0.00    +0.000 F 
ENDBRANCH   5  28
TORSDOF 5
ENDMDL
MODEL 7
REMARK VINA RESULT:      -7.4      3.810     10.120
REMARK  Name = 
REMARK  5 active torsions:
REMARK  status: ('A' for Active; 'I' for Inactive)
REMARK    1  A    between atoms: C_2  and  C_15
REMARK    2  A    between atoms: N_3  and  C_4
REMARK    3  A    between atoms: C_7  and  C_8
REMARK    4  A    between atoms: N_18  and  C_19
REMARK    5  A    between atoms: C_26  and  C_27
REMARK                            x       y       z     vdW  Elec       q    Type
REMARK                         _______ _______ _______ _____ _____    ______ ____
ROOT
ATOM      1  C   UNL     1      -0.811  11.386  21.877  0.00  0.00    +0.000 A 
ATOM      2  C   UNL     1      -1.354  11.144  23.146  0.00  0.00    +0.000 A 
ATOM      3  N   UNL     1      -2.494  11.790  23.344  0.00  0.00    +0.000 NA
ATOM      4  N   UNL     1      -2.723  12.492  22.197  0.00  0.00    +0.000 N 
ATOM      5  C   UNL     1      -1.673  12.324  21.303  0.00  0.00    +0.000 A 
ENDROOT
BRANCH   4   6
ATOM      6  C   UNL     1      -3.967  13.205  22.106  0.00  0.00    +0.000 A 
ATOM      7  C   UNL     1      -4.171  14.481  22.645  0.00  0.00    +0.000 A 
ATOM      8  C   UNL     1      -5.401  15.132  22.491  0.00  0.00    +0.000 A 
ATOM      9  C   UNL     1      -6.431  14.511  21.801  0.00  0.00    +0.000 A 
ATOM     10  F   UNL     1      -7.602  15.144  21.651  0.00  0.00    +0.000 F 
ATOM     11  C   UNL     1      -6.263  13.241  21.271  0.00  0.00    +0.000 A 
ATOM     12  C   UNL     1      -5.038  12.585  21.433  0.00  0.00    +0.000 A 
ENDBRANCH   4   6
BRANCH   1  14
ATOM     13  O   UNL     1       1.449  11.242  21.364  0.00  0.00    +0.000 OA
ATOM     14  C   UNL     1       0.335  10.750  21.242  0.00  0.00    +0.000 C 
ATOM     15  N   UNL     1       0.040   9.644  20.463  0.00  0.00    +0.000 N 
ATOM     16  H   UNL     1      -0.928   9.410  20.304  0.00  0.00    +0.000 HD
BRANCH  15  17
ATOM     17  C   UNL     1       0.994   8.856  19.780  0.00  0.00    +0.000 A 
ATOM     18  C   UNL     1       1.561   7.707  20.328  0.00  0.00    +0.000 A 
ATOM     19  C   UNL     1       2.509   6.968  19.617  0.00  0.00    +0.000 A 
ATOM     20  C   UNL     1       2.916   7.360  18.338  0.00  0.00    +0.000 A 
ATOM     21  C   UNL     1       2.337   8.510  17.786  0.00  0.00    +0.000 A 
ATOM     22  C   UNL     1       1.374   9.245  18.492  0.00  0.00    +0.000 A 
BRANCH  20  23
ATOM     23  C   UNL     1       3.910   6.571  17.630  0.00  0.00    +0.000 A 
ATOM     24  C   UNL     1       4.824   6.819  16.624  0.00  0.00    +0.000 A 
ATOM     25  N   UNL     1       5.530   5.683  16.325  0.00  0.00    +0.000 NA
ATOM     26  C   UNL     1       5.029   4.798  17.151  0.00  0.00    +0.000 A 
ATOM     27  O   UNL     1       4.046   5.252  17.975  0.00  0.00    +0.000 OA
ENDBRANCH  20  23
ENDBRANCH  15  17
ENDBRANCH   1  14
BRANCH   5  28
ATOM     28  C   UNL     1      -1.626  12.983  19.985  0.00  0.00    +0.000 C 
ATOM     29  F   UNL     1      -0.443  12.897  19.336  0.00  0.00    +0.000 F 
ATOM     30  F   UNL     1      -2.562  12.493  19.135  0.00  0.00    +0.000 F 
ATOM     31  F   UNL     1      -1.849  14.320  20.107  0.00  0.00    +0.000 F 
ENDBRANCH   5  28
TORSDOF 5
ENDMDL
MODEL 8
REMARK VINA RESULT:      -7.3      7.855      9.149
REMARK  Name = 
REMARK  5 active torsions:
REMARK  status: ('A' for Active; 'I' for Inactive)
REMARK    1  A    between atoms: C_2  and  C_15
REMARK    2  A    between atoms: N_3  and  C_4
REMARK    3  A    between atoms: C_7  and  C_8
REMARK    4  A    between atoms: N_18  and  C_19
REMARK    5  A    between atoms: C_26  and  C_27
REMARK                            x       y       z     vdW  Elec       q    Type
REMARK                         _______ _______ _______ _____ _____    ______ ____
ROOT
ATOM      1  C   UNL     1       7.114   6.635  18.269  0.00  0.00    +0.000 A 
ATOM      2  C   UNL     1       7.643   5.529  18.948  0.00  0.00    +0.000 A 
ATOM      3  N   UNL     1       6.747   4.572  19.138  0.00  0.00    +0.000 NA
ATOM      4  N   UNL     1       5.587   5.039  18.591  0.00  0.00    +0.000 N 
ATOM      5  C   UNL     1       5.760   6.331  18.113  0.00  0.00    +0.000 A 
ENDROOT
BRANCH   4   6
ATOM      6  C   UNL     1       4.469   4.139  18.567  0.00  0.00    +0.000 A 
ATOM      7  C   UNL     1       3.822   3.674  19.718  0.00  0.00    +0.000 A 
ATOM      8  C   UNL     1       2.715   2.822  19.621  0.00  0.00    +0.000 A 
ATOM      9  C   UNL     1       2.251   2.431  18.374  0.00  0.00    +0.000 A 
ATOM     10  F   UNL     1       1.187   1.622  18.289  0.00  0.00    +0.000 F 
ATOM     11  C   UNL     1       2.882   2.862  17.217  0.00  0.00    +0.000 A 
ATOM     12  C   UNL     1       3.994   3.704  17.314  0.00  0.00    +0.000 A 
ENDBRANCH   4   6
BRANCH   1  14
ATOM     13  O   UNL     1       8.196   7.816  16.588  0.00  0.00    +0.000 OA
ATOM     14  C   UNL     1       7.814   7.802  17.750  0.00  0.00    +0.000 C 
ATOM     15  N   UNL     1       8.061   8.802  18.676  0.00  0.00    +0.000 N 
ATOM     16  H   UNL     1       7.841   8.628  19.645  0.00  0.00    +0.000 HD
BRANCH  15  17
ATOM     17  C   UNL     1       8.698  10.031  18.391  0.00  0.00    +0.000 A 
ATOM     18  C   UNL     1      10.024  10.294  18.728  0.00  0.00    +0.000 A 
ATOM     19  C   UNL     1      10.605  11.530  18.435  0.00  0.00    +0.000 A 
ATOM     20  C   UNL     1       9.875  12.536  17.795  0.00  0.00    +0.000 A 
ATOM     21  C   UNL     1       8.544  12.265  17.448  0.00  0.00    +0.000 A 
ATOM     22  C   UNL     1       7.964  11.019  17.728  0.00  0.00    +0.000 A 
BRANCH  20  23
ATOM     23  C   UNL     1      10.509  13.812  17.511  0.00  0.00    +0.000 A 
ATOM     24  C   UNL     1      11.725  14.208  16.989  0.00  0.00    +0.000 A 
ATOM     25  N   UNL     1      11.806  15.575  16.943  0.00  0.00    +0.000 NA
ATOM     26  C   UNL     1      10.651  15.956  17.430  0.00  0.00    +0.000 A 
ATOM     27  O   UNL     1       9.807  14.954  17.796  0.00  0.00    +0.000 OA
ENDBRANCH  20  23
ENDBRANCH  15  17
ENDBRANCH   1  14
BRANCH   5  28
ATOM     28  C   UNL     1       4.672   7.109  17.489  0.00  0.00    +0.000 C 
ATOM     29  F   UNL     1       4.772   8.451  17.620  0.00  0.00    +0.000 F 
ATOM     30  F   UNL     1       4.566   6.864  16.160  0.00  0.00    +0.000 F 
ATOM     31  F   UNL     1       3.474   6.802  18.056  0.00  0.00    +0.000 F 
ENDBRANCH   5  28
TORSDOF 5
ENDMDL
MODEL 9
REMARK VINA RESULT:      -7.3      1.510      1.889
REMARK  Name = 
REMARK  5 active torsions:
REMARK  status: ('A' for Active; 'I' for Inactive)
REMARK    1  A    between atoms: C_2  and  C_15
REMARK    2  A    between atoms: N_3  and  C_4
REMARK    3  A    between atoms: C_7  and  C_8
REMARK    4  A    between atoms: N_18  and  C_19
REMARK    5  A    between atoms: C_26  and  C_27
REMARK                            x       y       z     vdW  Elec       q    Type
REMARK                         _______ _______ _______ _____ _____    ______ ____
ROOT
ATOM      1  C   UNL     1       1.474   9.790  19.155  0.00  0.00    +0.000 A 
ATOM      2  C   UNL     1       1.974   9.800  17.846  0.00  0.00    +0.000 A 
ATOM      3  N   UNL     1       2.408   8.610  17.458  0.00  0.00    +0.000 NA
ATOM      4  N   UNL     1       2.211   7.781  18.523  0.00  0.00    +0.000 N 
ATOM      5  C   UNL     1       1.706   8.488  19.606  0.00  0.00    +0.000 A 
ENDROOT
BRANCH   4   6
ATOM      6  C   UNL     1       2.503   6.388  18.327  0.00  0.00    +0.000 A 
ATOM      7  C   UNL     1       1.540   5.436  17.972  0.00  0.00    +0.000 A 
ATOM      8  C   UNL     1       1.900   4.099  17.766  0.00  0.00    +0.000 A 
ATOM      9  C   UNL     1       3.223   3.709  17.913  0.00  0.00    +0.000 A 
ATOM     10  F   UNL     1       3.561   2.429  17.705  0.00  0.00    +0.000 F 
ATOM     11  C   UNL     1       4.195   4.626  18.279  0.00  0.00    +0.000 A 
ATOM     12  C   UNL     1       3.835   5.960  18.497  0.00  0.00    +0.000 A 
ENDBRANCH   4   6
BRANCH   1  14
ATOM     13  O   UNL     1       1.403  11.837  20.250  0.00  0.00    +0.000 OA
ATOM     14  C   UNL     1       0.781  10.853  19.871  0.00  0.00    +0.000 C 
ATOM     15  N   UNL     1      -0.556  10.611  20.138  0.00  0.00    +0.000 N 
ATOM     16  H   UNL     1      -0.936   9.703  19.917  0.00  0.00    +0.000 HD
BRANCH  15  17
ATOM     17  C   UNL     1      -1.427  11.511  20.793  0.00  0.00    +0.000 A 
ATOM     18  C   UNL     1      -2.282  12.372  20.108  0.00  0.00    +0.000 A 
ATOM     19  C   UNL     1      -3.117  13.252  20.801  0.00  0.00    +0.000 A 
ATOM     20  C   UNL     1      -3.118  13.293  22.199  0.00  0.00    +0.000 A 
ATOM     21  C   UNL     1      -2.264  12.418  22.885  0.00  0.00    +0.000 A 
ATOM     22  C   UNL     1      -1.437  11.524  22.191  0.00  0.00    +0.000 A 
BRANCH  20  23
ATOM     23  C   UNL     1      -3.995  14.225  22.887  0.00  0.00    +0.000 A 
ATOM     24  C   UNL     1      -3.916  14.972  24.047  0.00  0.00    +0.000 A 
ATOM     25  N   UNL     1      -5.063  15.699  24.230  0.00  0.00    +0.000 NA
ATOM     26  C   UNL     1      -5.787  15.375  23.187  0.00  0.00    +0.000 A 
ATOM     27  O   UNL     1      -5.216  14.491  22.325  0.00  0.00    +0.000 OA
ENDBRANCH  20  23
ENDBRANCH  15  17
ENDBRANCH   1  14
BRANCH   5  28
ATOM     28  C   UNL     1       1.417   7.864  20.910  0.00  0.00    +0.000 C 
ATOM     29  F   UNL     1       1.879   6.603  21.064  0.00  0.00    +0.000 F 
ATOM     30  F   UNL     1       1.922   8.582  21.943  0.00  0.00    +0.000 F 
ATOM     31  F   UNL     1       0.074   7.759  21.107  0.00  0.00    +0.000 F 
ENDBRANCH   5  28
TORSDOF 5
ENDMDL
