MODEL 1
REMARK VINA RESULT:      -9.3      0.000      0.000
REMARK  Name = 
REMARK  5 active torsions:
REMARK  status: ('A' for Active; 'I' for Inactive)
REMARK    1  A    between atoms: C_2  and  C_3
REMARK    2  A    between atoms: C_6  and  C_7
REMARK    3  A    between atoms: C_10  and  C_11
REMARK    4  A    between atoms: N_23  and  C_24
REMARK    5  A    between atoms: C_24  and  C_25
REMARK                            x       y       z     vdW  Elec       q    Type
REMARK                         _______ _______ _______ _____ _____    ______ ____
ROOT
ATOM      1  C   UNL     1       2.242   7.425  19.409  0.00  0.00    +0.000 A 
ATOM      2  C   UNL     1       1.601   7.960  20.529  0.00  0.00    +0.000 A 
ATOM      3  C   UNL     1       0.809   9.109  20.406  0.00  0.00    +0.000 A 
ATOM      4  C   UNL     1       0.660   9.740  19.161  0.00  0.00    +0.000 A 
ATOM      5  C   UNL     1       1.314   9.196  18.048  0.00  0.00    +0.000 A 
ATOM      6  C   UNL     1       2.054   8.023  18.161  0.00  0.00    +0.000 A 
ENDROOT
BRANCH   1   8
ATOM      7  O   UNL     1       2.969   5.571  20.608  0.00  0.00    +0.000 OA
ATOM      8  C   UNL     1       3.035   6.177  19.538  0.00  0.00    +0.000 C 
ATOM      9  N   UNL     1       3.795   5.730  18.457  0.00  0.00    +0.000 N 
ATOM     10  C   UNL     1       4.288   4.348  18.472  0.00  0.00    +0.000 C 
ATOM     11  C   UNL     1       5.747   4.260  17.994  0.00  0.00    +0.000 C 
ATOM     12  N   UNL     1       6.007   4.902  16.684  0.00  0.00    +0.000 NA
ATOM     13  C   UNL     1       5.569   6.312  16.779  0.00  0.00    +0.000 C 
ATOM     14  C   UNL     1       4.113   6.501  17.245  0.00  0.00    +0.000 C 
BRANCH  12  15
ATOM     15  C   UNL     1       5.326   4.238  15.557  0.00  0.00    +0.000 C 
BRANCH  15  16
ATOM     16  C   UNL     1       6.092   4.245  14.255  0.00  0.00    +0.000 A 
ATOM     17  C   UNL     1       5.654   3.467  13.172  0.00  0.00    +0.000 A 
ATOM     18  C   UNL     1       6.322   3.515  11.950  0.00  0.00    +0.000 A 
ATOM     19  C   UNL     1       7.433   4.341  11.796  0.00  0.00    +0.000 A 
ATOM     20  C   UNL     1       7.884   5.112  12.867  0.00  0.00    +0.000 A 
ATOM     21  C   UNL     1       7.218   5.062  14.092  0.00  0.00    +0.000 A 
ENDBRANCH  15  16
ENDBRANCH  12  15
ENDBRANCH   1   8
BRANCH   4  22
ATOM     22  C   UNL     1      -0.212  10.894  19.004  0.00  0.00    +0.000 A 
ATOM     23  N   UNL     1       0.050  12.183  18.994  0.00  0.00    +0.000 NA
ATOM     24  N   UNL     1      -1.173  12.825  18.910  0.00  0.00    +0.000 NA
ATOM     25  C   UNL     1      -2.093  11.880  18.865  0.00  0.00    +0.000 A 
ATOM     26  O   UNL     1      -1.553  10.626  18.910  0.00  0.00    +0.000 OA
BRANCH  25  27
ATOM     27  C   UNL     1      -3.547  11.971  18.781  0.00  0.00    +0.000 A 
ATOM     28  C   UNL     1      -4.265  12.523  19.845  0.00  0.00    +0.000 A 
ATOM     29  C   UNL     1      -5.655  12.643  19.780  0.00  0.00    +0.000 A 
ATOM     30  C   UNL     1      -6.342  12.210  18.649  0.00  0.00    +0.000 A 
ATOM     31  C   UNL     1      -5.643  11.645  17.586  0.00  0.00    +0.000 A 
ATOM     32  C   UNL     1      -4.252  11.522  17.651  0.00  0.00    +0.000 A 
ENDBRANCH  25  27
ENDBRANCH   4  22
TORSDOF 5
ENDMDL
MODEL 2
REMARK VINA RESULT:      -9.2      0.129      1.212
REMARK  Name = 
REMARK  5 active torsions:
REMARK  status: ('A' for Active; 'I' for Inactive)
REMARK    1  A    between atoms: C_2  and  C_3
REMARK    2  A    between atoms: C_6  and  C_7
REMARK    3  A    between atoms: C_10  and  C_11
REMARK    4  A    between atoms: N_23  and  C_24
REMARK    5  A    between atoms: C_24  and  C_25
REMARK                            x       y       z     vdW  Elec       q    Type
REMARK                         _______ _______ _______ _____ _____    ______ ____
ROOT
ATOM      1  C   UNL     1       2.207   7.382  19.519  0.00  0.00    +0.000 A 
ATOM      2  C   UNL     1       1.542   7.894  20.635  0.00  0.00    +0.000 A 
ATOM      3  C   UNL     1       0.764   9.055  20.522  0.00  0.00    +0.000 A 
ATOM      4  C   UNL     1       0.654   9.718  19.290  0.00  0.00    +0.000 A 
ATOM      5  C   UNL     1       1.332   9.196  18.180  0.00  0.00    +0.000 A 
ATOM      6  C   UNL     1       2.057   8.014  18.282  0.00  0.00    +0.000 A 
ENDROOT
BRANCH   1   8
ATOM      7  O   UNL     1       2.903   5.503  20.696  0.00  0.00    +0.000 OA
ATOM      8  C   UNL     1       2.985   6.123  19.636  0.00  0.00    +0.000 C 
ATOM      9  N   UNL     1       3.748   5.683  18.555  0.00  0.00    +0.000 N 
ATOM     10  C   UNL     1       4.226   4.296  18.553  0.00  0.00    +0.000 C 
ATOM     11  C   UNL     1       5.687   4.198  18.086  0.00  0.00    +0.000 C 
ATOM     12  N   UNL     1       5.966   4.857  16.788  0.00  0.00    +0.000 NA
ATOM     13  C   UNL     1       5.543   6.270  16.900  0.00  0.00    +0.000 C 
ATOM     14  C   UNL     1       4.085   6.469  17.357  0.00  0.00    +0.000 C 
BRANCH  12  15
ATOM     15  C   UNL     1       5.287   4.216  15.646  0.00  0.00    +0.000 C 
BRANCH  15  16
ATOM     16  C   UNL     1       6.025   4.310  14.331  0.00  0.00    +0.000 A 
ATOM     17  C   UNL     1       7.159   5.129  14.212  0.00  0.00    +0.000 A 
ATOM     18  C   UNL     1       7.879   5.174  13.020  0.00  0.00    +0.000 A 
ATOM     19  C   UNL     1       7.475   4.400  11.934  0.00  0.00    +0.000 A 
ATOM     20  C   UNL     1       6.344   3.590  12.036  0.00  0.00    +0.000 A 
ATOM     21  C   UNL     1       5.621   3.547  13.228  0.00  0.00    +0.000 A 
ENDBRANCH  15  16
ENDBRANCH  12  15
ENDBRANCH   1   8
BRANCH   4  22
ATOM     22  C   UNL     1      -0.203  10.885  19.141  0.00  0.00    +0.000 A 
ATOM     23  N   UNL     1       0.071  12.170  19.168  0.00  0.00    +0.000 NA
ATOM     24  N   UNL     1      -1.142  12.827  19.071  0.00  0.00    +0.000 NA
ATOM     25  C   UNL     1      -2.070  11.893  18.981  0.00  0.00    +0.000 A 
ATOM     26  O   UNL     1      -1.544  10.633  19.008  0.00  0.00    +0.000 OA
BRANCH  25  27
ATOM     27  C   UNL     1      -3.521  12.001  18.865  0.00  0.00    +0.000 A 
ATOM     28  C   UNL     1      -4.165  11.452  17.752  0.00  0.00    +0.000 A 
ATOM     29  C   UNL     1      -5.555  11.520  17.629  0.00  0.00    +0.000 A 
ATOM     30  C   UNL     1      -6.315  12.140  18.618  0.00  0.00    +0.000 A 
ATOM     31  C   UNL     1      -5.687  12.704  19.725  0.00  0.00    +0.000 A 
ATOM     32  C   UNL     1      -4.296  12.639  19.848  0.00  0.00    +0.000 A 
ENDBRANCH  25  27
ENDBRANCH   4  22
TORSDOF 5
ENDMDL
MODEL 3
REMARK VINA RESULT:      -9.1      2.448      3.366
REMARK  Name = 
REMARK  5 active torsions:
REMARK  status: ('A' for Active; 'I' for Inactive)
REMARK    1  A    between atoms: C_2  and  C_3
REMARK    2  A    between atoms: C_6  and  C_7
REMARK    3  A    between atoms: C_10  and  C_11
REMARK    4  A    between atoms: N_23  and  C_24
REMARK    5  A    between atoms: C_24  and  C_25
REMARK                            x       y       z     vdW  Elec       q    Type
REMARK                         _______ _______ _______ _____ _____    ______ ____
ROOT
ATOM      1  C   UNL     1       2.041   7.487  19.641  0.00  0.00    +0.000 A 
ATOM      2  C   UNL     1       1.483   8.045  20.792  0.00  0.00    +0.000 A 
ATOM      3  C   UNL     1       0.878   9.309  20.742  0.00  0.00    +0.000 A 
ATOM      4  C   UNL     1       0.837  10.029  19.537  0.00  0.00    +0.000 A 
ATOM      5  C   UNL     1       1.407   9.459  18.392  0.00  0.00    +0.000 A 
ATOM      6  C   UNL     1       1.957   8.181  18.432  0.00  0.00    +0.000 A 
ENDROOT
BRANCH   1   8
ATOM      7  O   UNL     1       2.380   5.435  20.679  0.00  0.00    +0.000 OA
ATOM      8  C   UNL     1       2.631   6.125  19.691  0.00  0.00    +0.000 C 
ATOM      9  N   UNL     1       3.416   5.676  18.629  0.00  0.00    +0.000 N 
ATOM     10  C   UNL     1       3.702   4.241  18.529  0.00  0.00    +0.000 C 
ATOM     11  C   UNL     1       5.171   3.977  18.158  0.00  0.00    +0.000 C 
ATOM     12  N   UNL     1       5.641   4.698  16.952  0.00  0.00    +0.000 NA
ATOM     13  C   UNL     1       5.404   6.142  17.168  0.00  0.00    +0.000 C 
ATOM     14  C   UNL     1       3.953   6.505  17.539  0.00  0.00    +0.000 C 
BRANCH  12  15
ATOM     15  C   UNL     1       4.980   4.259  15.709  0.00  0.00    +0.000 C 
BRANCH  15  16
ATOM     16  C   UNL     1       5.861   4.263  14.482  0.00  0.00    +0.000 A 
ATOM     17  C   UNL     1       5.488   3.537  13.340  0.00  0.00    +0.000 A 
ATOM     18  C   UNL     1       6.266   3.584  12.185  0.00  0.00    +0.000 A 
ATOM     19  C   UNL     1       7.423   4.358  12.157  0.00  0.00    +0.000 A 
ATOM     20  C   UNL     1       7.810   5.077  13.287  0.00  0.00    +0.000 A 
ATOM     21  C   UNL     1       7.033   5.029  14.446  0.00  0.00    +0.000 A 
ENDBRANCH  15  16
ENDBRANCH  12  15
ENDBRANCH   1   8
BRANCH   4  22
ATOM     22  C   UNL     1       0.155  11.311  19.454  0.00  0.00    +0.000 A 
ATOM     23  N   UNL     1      -1.122  11.620  19.511  0.00  0.00    +0.000 NA
ATOM     24  N   UNL     1      -1.203  12.981  19.277  0.00  0.00    +0.000 NA
ATOM     25  C   UNL     1       0.034  13.407  19.105  0.00  0.00    +0.000 A 
ATOM     26  O   UNL     1       0.952  12.401  19.214  0.00  0.00    +0.000 OA
BRANCH  25  27
ATOM     27  C   UNL     1       0.550  14.743  18.821  0.00  0.00    +0.000 A 
ATOM     28  C   UNL     1       1.922  14.924  18.627  0.00  0.00    +0.000 A 
ATOM     29  C   UNL     1       2.438  16.188  18.330  0.00  0.00    +0.000 A 
ATOM     30  C   UNL     1       1.586  17.284  18.227  0.00  0.00    +0.000 A 
ATOM     31  C   UNL     1       0.218  17.123  18.431  0.00  0.00    +0.000 A 
ATOM     32  C   UNL     1      -0.299  15.859  18.731  0.00  0.00    +0.000 A 
ENDBRANCH  25  27
ENDBRANCH   4  22
TORSDOF 5
ENDMDL
MODEL 4
REMARK VINA RESULT:      -9.0      1.658      2.032
REMARK  Name = 
REMARK  5 active torsions:
REMARK  status: ('A' for Active; 'I' for Inactive)
REMARK    1  A    between atoms: C_2  and  C_3
REMARK    2  A    between atoms: C_6  and  C_7
REMARK    3  A    between atoms: C_10  and  C_11
REMARK    4  A    between atoms: N_23  and  C_24
REMARK    5  A    between atoms: C_24  and  C_25
REMARK                            x       y       z     vdW  Elec       q    Type
REMARK                         _______ _______ _______ _____ _____    ______ ____
ROOT
ATOM      1  C   UNL     1       2.175   7.257  19.722  0.00  0.00    +0.000 A 
ATOM      2  C   UNL     1       1.537   7.672  20.892  0.00  0.00    +0.000 A 
ATOM      3  C   UNL     1       0.816   8.874  20.915  0.00  0.00    +0.000 A 
ATOM      4  C   UNL     1       0.739   9.677  19.767  0.00  0.00    +0.000 A 
ATOM      5  C   UNL     1       1.391   9.252  18.602  0.00  0.00    +0.000 A 
ATOM      6  C   UNL     1       2.057   8.031  18.566  0.00  0.00    +0.000 A 
ENDROOT
BRANCH   1   8
ATOM      7  O   UNL     1       2.774   5.223  20.673  0.00  0.00    +0.000 OA
ATOM      8  C   UNL     1       2.891   5.956  19.691  0.00  0.00    +0.000 C 
ATOM      9  N   UNL     1       3.636   5.608  18.565  0.00  0.00    +0.000 N 
ATOM     10  C   UNL     1       4.045   4.208  18.403  0.00  0.00    +0.000 C 
ATOM     11  C   UNL     1       5.502   4.093  17.925  0.00  0.00    +0.000 C 
ATOM     12  N   UNL     1       5.818   4.883  16.711  0.00  0.00    +0.000 NA
ATOM     13  C   UNL     1       5.464   6.293  16.987  0.00  0.00    +0.000 C 
ATOM     14  C   UNL     1       4.016   6.509  17.466  0.00  0.00    +0.000 C 
BRANCH  12  15
ATOM     15  C   UNL     1       5.113   4.413  15.504  0.00  0.00    +0.000 C 
BRANCH  15  16
ATOM     16  C   UNL     1       5.963   4.340  14.257  0.00  0.00    +0.000 A 
ATOM     17  C   UNL     1       5.568   3.536  13.177  0.00  0.00    +0.000 A 
ATOM     18  C   UNL     1       6.316   3.511  12.002  0.00  0.00    +0.000 A 
ATOM     19  C   UNL     1       7.466   4.290  11.892  0.00  0.00    +0.000 A 
ATOM     20  C   UNL     1       7.874   5.086  12.961  0.00  0.00    +0.000 A 
ATOM     21  C   UNL     1       7.128   5.110  14.140  0.00  0.00    +0.000 A 
ENDBRANCH  15  16
ENDBRANCH  12  15
ENDBRANCH   1   8
BRANCH   4  22
ATOM     22  C   UNL     1      -0.059  10.893  19.755  0.00  0.00    +0.000 A 
ATOM     23  N   UNL     1      -0.040  11.936  18.954  0.00  0.00    +0.000 NA
ATOM     24  N   UNL     1      -0.951  12.840  19.472  0.00  0.00    +0.000 NA
ATOM     25  C   UNL     1      -1.469  12.278  20.547  0.00  0.00    +0.000 A 
ATOM     26  O   UNL     1      -0.956  11.033  20.783  0.00  0.00    +0.000 OA
BRANCH  25  27
ATOM     27  C   UNL     1      -2.468  12.769  21.490  0.00  0.00    +0.000 A 
ATOM     28  C   UNL     1      -3.322  13.809  21.110  0.00  0.00    +0.000 A 
ATOM     29  C   UNL     1      -4.303  14.282  21.985  0.00  0.00    +0.000 A 
ATOM     30  C   UNL     1      -4.438  13.720  23.252  0.00  0.00    +0.000 A 
ATOM     31  C   UNL     1      -3.587  12.693  23.651  0.00  0.00    +0.000 A 
ATOM     32  C   UNL     1      -2.604  12.221  22.777  0.00  0.00    +0.000 A 
ENDBRANCH  25  27
ENDBRANCH   4  22
TORSDOF 5
ENDMDL
MODEL 5
REMARK VINA RESULT:      -9.0      2.403      3.553
REMARK  Name = 
REMARK  5 active torsions:
REMARK  status: ('A' for Active; 'I' for Inactive)
REMARK    1  A    between atoms: C_2  and  C_3
REMARK    2  A    between atoms: C_6  and  C_7
REMARK    3  A    between atoms: C_10  and  C_11
REMARK    4  A    between atoms: N_23  and  C_24
REMARK    5  A    between atoms: C_24  and  C_25
REMARK                            x       y       z     vdW  Elec       q    Type
REMARK                         _______ _______ _______ _____ _____    ______ ____
ROOT
ATOM      1  C   UNL     1       2.154   7.417  19.520  0.00  0.00    +0.000 A 
ATOM      2  C   UNL     1       2.129   8.121  18.314  0.00  0.00    +0.000 A 
ATOM      3  C   UNL     1       1.446   9.341  18.223  0.00  0.00    +0.000 A 
ATOM      4  C   UNL     1       0.771   9.862  19.339  0.00  0.00    +0.000 A 
ATOM      5  C   UNL     1       0.798   9.141  20.539  0.00  0.00    +0.000 A 
ATOM      6  C   UNL     1       1.524   7.958  20.642  0.00  0.00    +0.000 A 
ENDROOT
BRANCH   1   8
ATOM      7  O   UNL     1       2.845   5.525  20.678  0.00  0.00    +0.000 OA
ATOM      8  C   UNL     1       2.925   6.152  19.622  0.00  0.00    +0.000 C 
ATOM      9  N   UNL     1       3.679   5.716  18.533  0.00  0.00    +0.000 N 
ATOM     10  C   UNL     1       4.148   4.326  18.518  0.00  0.00    +0.000 C 
ATOM     11  C   UNL     1       5.606   4.222  18.042  0.00  0.00    +0.000 C 
ATOM     12  N   UNL     1       5.880   4.889  16.747  0.00  0.00    +0.000 NA
ATOM     13  C   UNL     1       5.467   6.304  16.872  0.00  0.00    +0.000 C 
ATOM     14  C   UNL     1       4.014   6.508  17.339  0.00  0.00    +0.000 C 
BRANCH  12  15
ATOM     15  C   UNL     1       5.191   4.262  15.604  0.00  0.00    +0.000 C 
BRANCH  15  16
ATOM     16  C   UNL     1       5.952   4.300  14.300  0.00  0.00    +0.000 A 
ATOM     17  C   UNL     1       7.118   5.074  14.183  0.00  0.00    +0.000 A 
ATOM     18  C   UNL     1       7.857   5.067  13.002  0.00  0.00    +0.000 A 
ATOM     19  C   UNL     1       7.442   4.287  11.926  0.00  0.00    +0.000 A 
ATOM     20  C   UNL     1       6.280   3.522  12.025  0.00  0.00    +0.000 A 
ATOM     21  C   UNL     1       5.537   3.530  13.206  0.00  0.00    +0.000 A 
ENDBRANCH  15  16
ENDBRANCH  12  15
ENDBRANCH   1   8
BRANCH   4  22
ATOM     22  C   UNL     1       0.114  11.158  19.278  0.00  0.00    +0.000 A 
ATOM     23  N   UNL     1      -1.160  11.487  19.300  0.00  0.00    +0.000 NA
ATOM     24  N   UNL     1      -1.210  12.857  19.115  0.00  0.00    +0.000 NA
ATOM     25  C   UNL     1       0.039  13.268  19.004  0.00  0.00    +0.000 A 
ATOM     26  O   UNL     1       0.936  12.242  19.110  0.00  0.00    +0.000 OA
BRANCH  25  27
ATOM     27  C   UNL     1       0.586  14.604  18.791  0.00  0.00    +0.000 A 
ATOM     28  C   UNL     1       1.952  14.756  18.535  0.00  0.00    +0.000 A 
ATOM     29  C   UNL     1       2.497  16.021  18.303  0.00  0.00    +0.000 A 
ATOM     30  C   UNL     1       1.680  17.148  18.327  0.00  0.00    +0.000 A 
ATOM     31  C   UNL     1       0.320  17.015  18.594  0.00  0.00    +0.000 A 
ATOM     32  C   UNL     1      -0.226  15.750  18.828  0.00  0.00    +0.000 A 
ENDBRANCH  25  27
ENDBRANCH   4  22
TORSDOF 5
ENDMDL
MODEL 6
REMARK VINA RESULT:      -9.0      2.516      3.417
REMARK  Name = 
REMARK  5 active torsions:
REMARK  status: ('A' for Active; 'I' for Inactive)
REMARK    1  A    between atoms: C_2  and  C_3
REMARK    2  A    between atoms: C_6  and  C_7
REMARK    3  A    between atoms: C_10  and  C_11
REMARK    4  A    between atoms: N_23  and  C_24
REMARK    5  A    between atoms: C_24  and  C_25
REMARK                            x       y       z     vdW  Elec       q    Type
REMARK                         _______ _______ _______ _____ _____    ______ ____
ROOT
ATOM      1  C   UNL     1       2.177   7.169  19.678  0.00  0.00    +0.000 A 
ATOM      2  C   UNL     1       2.172   7.965  18.531  0.00  0.00    +0.000 A 
ATOM      3  C   UNL     1       1.537   9.214  18.542  0.00  0.00    +0.000 A 
ATOM      4  C   UNL     1       0.892   9.673  19.702  0.00  0.00    +0.000 A 
ATOM      5  C   UNL     1       0.899   8.860  20.843  0.00  0.00    +0.000 A 
ATOM      6  C   UNL     1       1.578   7.645  20.846  0.00  0.00    +0.000 A 
ENDROOT
BRANCH   1   8
ATOM      7  O   UNL     1       2.778   5.153  20.667  0.00  0.00    +0.000 OA
ATOM      8  C   UNL     1       2.898   5.871  19.674  0.00  0.00    +0.000 C 
ATOM      9  N   UNL     1       3.653   5.507  18.560  0.00  0.00    +0.000 N 
ATOM     10  C   UNL     1       4.069   4.106  18.423  0.00  0.00    +0.000 C 
ATOM     11  C   UNL     1       5.530   3.989  17.958  0.00  0.00    +0.000 C 
ATOM     12  N   UNL     1       5.850   4.760  16.733  0.00  0.00    +0.000 NA
ATOM     13  C   UNL     1       5.489   6.173  16.982  0.00  0.00    +0.000 C 
ATOM     14  C   UNL     1       4.037   6.391  17.448  0.00  0.00    +0.000 C 
BRANCH  12  15
ATOM     15  C   UNL     1       5.156   4.267  15.529  0.00  0.00    +0.000 C 
BRANCH  15  16
ATOM     16  C   UNL     1       5.992   4.258  14.270  0.00  0.00    +0.000 A 
ATOM     17  C   UNL     1       5.612   3.466  13.175  0.00  0.00    +0.000 A 
ATOM     18  C   UNL     1       6.345   3.499  11.990  0.00  0.00    +0.000 A 
ATOM     19  C   UNL     1       7.463   4.323  11.886  0.00  0.00    +0.000 A 
ATOM     20  C   UNL     1       7.856   5.106  12.970  0.00  0.00    +0.000 A 
ATOM     21  C   UNL     1       7.125   5.073  14.158  0.00  0.00    +0.000 A 
ENDBRANCH  15  16
ENDBRANCH  12  15
ENDBRANCH   1   8
BRANCH   4  22
ATOM     22  C   UNL     1       0.286  10.994  19.750  0.00  0.00    +0.000 A 
ATOM     23  N   UNL     1      -0.924  11.382  20.090  0.00  0.00    +0.000 NA
ATOM     24  N   UNL     1      -0.976  12.744  19.852  0.00  0.00    +0.000 NA
ATOM     25  C   UNL     1       0.212  13.092  19.394  0.00  0.00    +0.000 A 
ATOM     26  O   UNL     1       1.069  12.031  19.312  0.00  0.00    +0.000 OA
BRANCH  25  27
ATOM     27  C   UNL     1       0.727  14.391  18.973  0.00  0.00    +0.000 A 
ATOM     28  C   UNL     1      -0.145  15.479  18.876  0.00  0.00    +0.000 A 
ATOM     29  C   UNL     1       0.326  16.739  18.499  0.00  0.00    +0.000 A 
ATOM     30  C   UNL     1       1.677  16.922  18.212  0.00  0.00    +0.000 A 
ATOM     31  C   UNL     1       2.556  15.845  18.290  0.00  0.00    +0.000 A 
ATOM     32  C   UNL     1       2.085  14.584  18.665  0.00  0.00    +0.000 A 
ENDBRANCH  25  27
ENDBRANCH   4  22
TORSDOF 5
ENDMDL
MODEL 7
REMARK VINA RESULT:      -8.9      0.386      1.265
REMARK  Name = 
REMARK  5 active torsions:
REMARK  status: ('A' for Active; 'I' for Inactive)
REMARK    1  A    between atoms: C_2  and  C_3
REMARK    2  A    between atoms: C_6  and  C_7
REMARK    3  A    between atoms: C_10  and  C_11
REMARK    4  A    between atoms: N_23  and  C_24
REMARK    5  A    between atoms: C_24  and  C_25
REMARK                            x       y       z     vdW  Elec       q    Type
REMARK                         _______ _______ _______ _____ _____    ______ ____
ROOT
ATOM      1  C   UNL     1       2.264   7.166  19.552  0.00  0.00    +0.000 A 
ATOM      2  C   UNL     1       2.129   7.851  18.343  0.00  0.00    +0.000 A 
ATOM      3  C   UNL     1       1.358   9.019  18.276  0.00  0.00    +0.000 A 
ATOM      4  C   UNL     1       0.706   9.506  19.420  0.00  0.00    +0.000 A 
ATOM      5  C   UNL     1       0.844   8.804  20.625  0.00  0.00    +0.000 A 
ATOM      6  C   UNL     1       1.655   7.676  20.701  0.00  0.00    +0.000 A 
ENDROOT
BRANCH   1   8
ATOM      7  O   UNL     1       3.127   5.328  20.683  0.00  0.00    +0.000 OA
ATOM      8  C   UNL     1       3.126   5.959  19.626  0.00  0.00    +0.000 C 
ATOM      9  N   UNL     1       3.872   5.577  18.512  0.00  0.00    +0.000 N 
ATOM     10  C   UNL     1       4.438   4.224  18.479  0.00  0.00    +0.000 C 
ATOM     11  C   UNL     1       5.883   4.224  17.953  0.00  0.00    +0.000 C 
ATOM     12  N   UNL     1       6.065   4.908  16.651  0.00  0.00    +0.000 NA
ATOM     13  C   UNL     1       5.557   6.290  16.792  0.00  0.00    +0.000 C 
ATOM     14  C   UNL     1       4.109   6.390  17.309  0.00  0.00    +0.000 C 
BRANCH  12  15
ATOM     15  C   UNL     1       5.384   4.232  15.531  0.00  0.00    +0.000 C 
BRANCH  15  16
ATOM     16  C   UNL     1       6.134   4.257  14.219  0.00  0.00    +0.000 A 
ATOM     17  C   UNL     1       5.679   3.499  13.129  0.00  0.00    +0.000 A 
ATOM     18  C   UNL     1       6.332   3.564  11.900  0.00  0.00    +0.000 A 
ATOM     19  C   UNL     1       7.444   4.388  11.745  0.00  0.00    +0.000 A 
ATOM     20  C   UNL     1       7.912   5.139  12.823  0.00  0.00    +0.000 A 
ATOM     21  C   UNL     1       7.261   5.073  14.056  0.00  0.00    +0.000 A 
ENDBRANCH  15  16
ENDBRANCH  12  15
ENDBRANCH   1   8
BRANCH   4  22
ATOM     22  C   UNL     1      -0.043  10.753  19.382  0.00  0.00    +0.000 A 
ATOM     23  N   UNL     1       0.346  12.002  19.511  0.00  0.00    +0.000 NA
ATOM     24  N   UNL     1      -0.805  12.771  19.488  0.00  0.00    +0.000 NA
ATOM     25  C   UNL     1      -1.814  11.934  19.336  0.00  0.00    +0.000 A 
ATOM     26  O   UNL     1      -1.403  10.633  19.251  0.00  0.00    +0.000 OA
BRANCH  25  27
ATOM     27  C   UNL     1      -3.250  12.179  19.252  0.00  0.00    +0.000 A 
ATOM     28  C   UNL     1      -3.968  11.699  18.153  0.00  0.00    +0.000 A 
ATOM     29  C   UNL     1      -5.347  11.899  18.061  0.00  0.00    +0.000 A 
ATOM     30  C   UNL     1      -6.022  12.585  19.067  0.00  0.00    +0.000 A 
ATOM     31  C   UNL     1      -5.320  13.082  20.161  0.00  0.00    +0.000 A 
ATOM     32  C   UNL     1      -3.939  12.884  20.254  0.00  0.00    +0.000 A 
ENDBRANCH  25  27
ENDBRANCH   4  22
TORSDOF 5
ENDMDL
MODEL 8
REMARK VINA RESULT:      -8.9      2.180      2.818
REMARK  Name = 
REMARK  5 active torsions:
REMARK  status: ('A' for Active; 'I' for Inactive)
REMARK    1  A    between atoms: C_2  and  C_3
REMARK    2  A    between atoms: C_6  and  C_7
REMARK    3  A    between atoms: C_10  and  C_11
REMARK    4  A    between atoms: N_23  and  C_24
REMARK    5  A    between atoms: C_24  and  C_25
REMARK                            x       y       z     vdW  Elec       q    Type
REMARK                         _______ _______ _______ _____ _____    ______ ____
ROOT
ATOM      1  C   UNL     1       2.085   7.066  19.908  0.00  0.00    +0.000 A 
ATOM      2  C   UNL     1       2.099   7.955  18.832  0.00  0.00    +0.000 A 
ATOM      3  C   UNL     1       1.456   9.197  18.935  0.00  0.00    +0.000 A 
ATOM      4  C   UNL     1       0.785   9.553  20.115  0.00  0.00    +0.000 A 
ATOM      5  C   UNL     1       0.773   8.647  21.184  0.00  0.00    +0.000 A 
ATOM      6  C   UNL     1       1.459   7.440  21.099  0.00  0.00    +0.000 A 
ENDROOT
BRANCH   1   8
ATOM      7  O   UNL     1       2.709   4.993  20.754  0.00  0.00    +0.000 OA
ATOM      8  C   UNL     1       2.814   5.776  19.810  0.00  0.00    +0.000 C 
ATOM      9  N   UNL     1       3.559   5.492  18.666  0.00  0.00    +0.000 N 
ATOM     10  C   UNL     1       3.982   4.106  18.433  0.00  0.00    +0.000 C 
ATOM     11  C   UNL     1       5.438   4.030  17.946  0.00  0.00    +0.000 C 
ATOM     12  N   UNL     1       5.741   4.883  16.772  0.00  0.00    +0.000 NA
ATOM     13  C   UNL     1       5.375   6.274  17.118  0.00  0.00    +0.000 C 
ATOM     14  C   UNL     1       3.926   6.450  17.612  0.00  0.00    +0.000 C 
BRANCH  12  15
ATOM     15  C   UNL     1       5.038   4.467  15.545  0.00  0.00    +0.000 C 
BRANCH  15  16
ATOM     16  C   UNL     1       5.906   4.371  14.313  0.00  0.00    +0.000 A 
ATOM     17  C   UNL     1       5.531   3.541  13.244  0.00  0.00    +0.000 A 
ATOM     18  C   UNL     1       6.297   3.494  12.081  0.00  0.00    +0.000 A 
ATOM     19  C   UNL     1       7.444   4.276  11.971  0.00  0.00    +0.000 A 
ATOM     20  C   UNL     1       7.833   5.098  13.029  0.00  0.00    +0.000 A 
ATOM     21  C   UNL     1       7.069   5.144  14.195  0.00  0.00    +0.000 A 
ENDBRANCH  15  16
ENDBRANCH  12  15
ENDBRANCH   1   8
BRANCH   4  22
ATOM     22  C   UNL     1       0.170  10.864  20.261  0.00  0.00    +0.000 A 
ATOM     23  N   UNL     1       0.222  11.935  19.500  0.00  0.00    +0.000 NA
ATOM     24  N   UNL     1      -0.473  12.923  20.175  0.00  0.00    +0.000 NA
ATOM     25  C   UNL     1      -0.908  12.380  21.296  0.00  0.00    +0.000 A 
ATOM     26  O   UNL     1      -0.545  11.068  21.413  0.00  0.00    +0.000 OA
BRANCH  25  27
ATOM     27  C   UNL     1      -1.686  12.950  22.391  0.00  0.00    +0.000 A 
ATOM     28  C   UNL     1      -2.926  12.393  22.717  0.00  0.00    +0.000 A 
ATOM     29  C   UNL     1      -3.680  12.904  23.776  0.00  0.00    +0.000 A 
ATOM     30  C   UNL     1      -3.201  13.980  24.519  0.00  0.00    +0.000 A 
ATOM     31  C   UNL     1      -1.975  14.555  24.198  0.00  0.00    +0.000 A 
ATOM     32  C   UNL     1      -1.221  14.046  23.137  0.00  0.00    +0.000 A 
ENDBRANCH  25  27
ENDBRANCH   4  22
TORSDOF 5
ENDMDL
MODEL 9
REMARK VINA RESULT:      -8.8      2.831     10.661
REMARK  Name = 
REMARK  5 active torsions:
REMARK  status: ('A' for Active; 'I' for Inactive)
REMARK    1  A    between atoms: C_2  and  C_3
REMARK    2  A    between atoms: C_6  and  C_7
REMARK    3  A    between atoms: C_10  and  C_11
REMARK    4  A    between atoms: N_23  and  C_24
REMARK    5  A    between atoms: C_24  and  C_25
REMARK                            x       y       z     vdW  Elec       q    Type
REMARK                         _______ _______ _______ _____ _____    ______ ____
ROOT
ATOM      1  C   UNL     1       3.116   6.536  19.049  0.00  0.00    +0.000 A 
ATOM      2  C   UNL     1       3.170   7.292  17.877  0.00  0.00    +0.000 A 
ATOM      3  C   UNL     1       4.091   6.970  16.871  0.00  0.00    +0.000 A 
ATOM      4  C   UNL     1       4.975   5.892  17.036  0.00  0.00    +0.000 A 
ATOM      5  C   UNL     1       4.915   5.148  18.221  0.00  0.00    +0.000 A 
ATOM      6  C   UNL     1       3.962   5.434  19.194  0.00  0.00    +0.000 A 
ENDROOT
BRANCH   1   8
ATOM      7  O   UNL     1       1.752   5.937  20.833  0.00  0.00    +0.000 OA
ATOM      8  C   UNL     1       2.102   6.851  20.087  0.00  0.00    +0.000 C 
ATOM      9  N   UNL     1       1.606   8.150  20.192  0.00  0.00    +0.000 N 
ATOM     10  C   UNL     1       0.881   8.525  21.411  0.00  0.00    +0.000 C 
ATOM     11  C   UNL     1      -0.376   9.352  21.094  0.00  0.00    +0.000 C 
ATOM     12  N   UNL     1      -0.135  10.535  20.234  0.00  0.00    +0.000 NA
ATOM     13  C   UNL     1       0.512  10.064  18.990  0.00  0.00    +0.000 C 
ATOM     14  C   UNL     1       1.788   9.229  19.208  0.00  0.00    +0.000 C 
BRANCH  12  15
ATOM     15  C   UNL     1       0.698  11.569  20.875  0.00  0.00    +0.000 C 
BRANCH  15  16
ATOM     16  C   UNL     1       0.832  12.855  20.094  0.00  0.00    +0.000 A 
ATOM     17  C   UNL     1      -0.312  13.549  19.670  0.00  0.00    +0.000 A 
ATOM     18  C   UNL     1      -0.196  14.766  19.001  0.00  0.00    +0.000 A 
ATOM     19  C   UNL     1       1.064  15.304  18.750  0.00  0.00    +0.000 A 
ATOM     20  C   UNL     1       2.209  14.620  19.157  0.00  0.00    +0.000 A 
ATOM     21  C   UNL     1       2.094  13.400  19.825  0.00  0.00    +0.000 A 
ENDBRANCH  15  16
ENDBRANCH  12  15
ENDBRANCH   1   8
BRANCH   4  22
ATOM     22  C   UNL     1       5.891   5.505  15.975  0.00  0.00    +0.000 A 
ATOM     23  N   UNL     1       7.116   5.895  15.701  0.00  0.00    +0.000 NA
ATOM     24  N   UNL     1       7.468   5.269  14.519  0.00  0.00    +0.000 NA
ATOM     25  C   UNL     1       6.434   4.532  14.161  0.00  0.00    +0.000 A 
ATOM     26  O   UNL     1       5.397   4.625  15.046  0.00  0.00    +0.000 OA
BRANCH  25  27
ATOM     27  C   UNL     1       6.236   3.667  13.002  0.00  0.00    +0.000 A 
ATOM     28  C   UNL     1       4.941   3.430  12.532  0.00  0.00    +0.000 A 
ATOM     29  C   UNL     1       4.727   2.626  11.410  0.00  0.00    +0.000 A 
ATOM     30  C   UNL     1       5.807   2.049  10.747  0.00  0.00    +0.000 A 
ATOM     31  C   UNL     1       7.102   2.264  11.211  0.00  0.00    +0.000 A 
ATOM     32  C   UNL     1       7.318   3.066  12.335  0.00  0.00    +0.000 A 
ENDBRANCH  25  27
ENDBRANCH   4  22
TORSDOF 5
ENDMDL
