MODEL 1
REMARK VINA RESULT:      -9.5      0.000      0.000
REMARK  Name = 
REMARK  6 active torsions:
REMARK  status: ('A' for Active; 'I' for Inactive)
REMARK    1  A    between atoms: C_1  and  C_2
REMARK    2  A    between atoms: C_5  and  C_6
REMARK    3  A    between atoms: C_9  and  N_10
REMARK    4  A    between atoms: C_11  and  C_13
REMARK    5  A    between atoms: C_19  and  C_20
REMARK    6  A    between atoms: C_19  and  C_21
REMARK                            x       y       z     vdW  Elec       q    Type
REMARK                         _______ _______ _______ _____ _____    ______ ____
ROOT
ATOM      1  N   UNL     1       1.596   7.981  20.305  0.00  0.00    +0.000 N 
ATOM      2  C   UNL     1       2.090   8.029  19.013  0.00  0.00    +0.000 C 
ATOM      3  O   UNL     1       1.996   8.955  18.216  0.00  0.00    +0.000 OA
ATOM      4  H   UNL     1       1.749   7.135  20.841  0.00  0.00    +0.000 HD
ENDROOT
BRANCH   2   5
ATOM      5  C   UNL     1       2.728   6.786  18.524  0.00  0.00    +0.000 A 
ATOM      6  C   UNL     1       3.842   6.781  17.661  0.00  0.00    +0.000 A 
ATOM      7  C   UNL     1       4.434   5.568  17.280  0.00  0.00    +0.000 A 
ATOM      8  C   UNL     1       3.897   4.406  17.795  0.00  0.00    +0.000 A 
ATOM      9  C   UNL     1       2.785   4.402  18.634  0.00  0.00    +0.000 A 
ATOM     10  C   UNL     1       2.173   5.587  18.992  0.00  0.00    +0.000 A 
ATOM     11  C   UNL     1       2.497   2.998  19.106  0.00  0.00    +0.000 C 
ATOM     12  C   UNL     1       2.713   2.910  20.617  0.00  0.00    +0.000 C 
ATOM     13  C   UNL     1       1.107   2.512  18.703  0.00  0.00    +0.000 C 
ATOM     14  C   UNL     1       3.591   2.198  18.356  0.00  0.00    +0.000 C 
ATOM     15  O   UNL     1       3.782   0.996  18.397  0.00  0.00    +0.000 OA
ATOM     16  N   UNL     1       4.350   3.109  17.622  0.00  0.00    +0.000 N 
ATOM     17  H   UNL     1       5.140   2.826  17.063  0.00  0.00    +0.000 HD
ENDBRANCH   2   5
BRANCH   1  21
ATOM     18  C   UNL     1      -0.767  10.924  22.249  0.00  0.00    +0.000 A 
ATOM     19  C   UNL     1      -0.601  10.956  20.863  0.00  0.00    +0.000 A 
ATOM     20  C   UNL     1       0.179   9.998  20.211  0.00  0.00    +0.000 A 
ATOM     21  C   UNL     1       0.802   8.974  20.921  0.00  0.00    +0.000 A 
ATOM     22  C   UNL     1       0.622   8.916  22.306  0.00  0.00    +0.000 A 
ATOM     23  C   UNL     1      -0.154   9.884  22.963  0.00  0.00    +0.000 A 
BRANCH  18  28
ATOM     24  C   UNL     1      -2.231  15.139  24.328  0.00  0.00    +0.000 C 
ATOM     25  C   UNL     1      -2.224  13.744  23.852  0.00  0.00    +0.000 A 
ATOM     26  N   UNL     1      -3.303  12.961  23.896  0.00  0.00    +0.000 NA
ATOM     27  N   UNL     1      -2.840  11.841  23.330  0.00  0.00    +0.000 N 
ATOM     28  C   UNL     1      -1.526  11.958  22.952  0.00  0.00    +0.000 A 
ATOM     29  N   UNL     1      -1.112  13.161  23.300  0.00  0.00    +0.000 NA
ATOM     30  H   UNL     1      -3.466  11.054  23.213  0.00  0.00    +0.000 HD
ENDBRANCH  18  28
ENDBRANCH   1  21
TORSDOF 3
ENDMDL
MODEL 2
REMARK VINA RESULT:      -9.4      1.951      3.296
REMARK  Name = 
REMARK  6 active torsions:
REMARK  status: ('A' for Active; 'I' for Inactive)
REMARK    1  A    between atoms: C_1  and  C_2
REMARK    2  A    between atoms: C_5  and  C_6
REMARK    3  A    between atoms: C_9  and  N_10
REMARK    4  A    between atoms: C_11  and  C_13
REMARK    5  A    between atoms: C_19  and  C_20
REMARK    6  A    between atoms: C_19  and  C_21
REMARK                            x       y       z     vdW  Elec       q    Type
REMARK                         _______ _______ _______ _____ _____    ______ ____
ROOT
ATOM      1  N   UNL     1       2.141   7.701  20.047  0.00  0.00    +0.000 N 
ATOM      2  C   UNL     1       2.084   6.325  20.182  0.00  0.00    +0.000 C 
ATOM      3  O   UNL     1       1.277   5.675  20.838  0.00  0.00    +0.000 OA
ATOM      4  H   UNL     1       2.878   8.091  19.472  0.00  0.00    +0.000 HD
ENDROOT
BRANCH   2   5
ATOM      5  C   UNL     1       3.174   5.570  19.523  0.00  0.00    +0.000 A 
ATOM      6  C   UNL     1       3.368   4.185  19.702  0.00  0.00    +0.000 A 
ATOM      7  C   UNL     1       4.386   3.520  19.004  0.00  0.00    +0.000 A 
ATOM      8  C   UNL     1       5.160   4.266  18.138  0.00  0.00    +0.000 A 
ATOM      9  C   UNL     1       4.985   5.638  17.970  0.00  0.00    +0.000 A 
ATOM     10  C   UNL     1       4.007   6.311  18.675  0.00  0.00    +0.000 A 
ATOM     11  C   UNL     1       5.910   6.150  16.893  0.00  0.00    +0.000 C 
ATOM     12  C   UNL     1       5.087   6.650  15.705  0.00  0.00    +0.000 C 
ATOM     13  C   UNL     1       6.876   7.216  17.401  0.00  0.00    +0.000 C 
ATOM     14  C   UNL     1       6.675   4.857  16.515  0.00  0.00    +0.000 C 
ATOM     15  O   UNL     1       7.555   4.741  15.680  0.00  0.00    +0.000 OA
ATOM     16  N   UNL     1       6.164   3.822  17.295  0.00  0.00    +0.000 N 
ATOM     17  H   UNL     1       6.494   2.872  17.214  0.00  0.00    +0.000 HD
ENDBRANCH   2   5
BRANCH   1  21
ATOM     18  C   UNL     1      -0.358  10.530  21.990  0.00  0.00    +0.000 A 
ATOM     19  C   UNL     1       0.358   9.592  22.736  0.00  0.00    +0.000 A 
ATOM     20  C   UNL     1       1.179   8.651  22.110  0.00  0.00    +0.000 A 
ATOM     21  C   UNL     1       1.320   8.629  20.724  0.00  0.00    +0.000 A 
ATOM     22  C   UNL     1       0.629   9.580  19.967  0.00  0.00    +0.000 A 
ATOM     23  C   UNL     1      -0.204  10.521  20.595  0.00  0.00    +0.000 A 
BRANCH  18  28
ATOM     24  C   UNL     1      -4.066  12.586  24.491  0.00  0.00    +0.000 C 
ATOM     25  C   UNL     1      -2.832  12.427  23.701  0.00  0.00    +0.000 A 
ATOM     26  N   UNL     1      -2.004  13.440  23.442  0.00  0.00    +0.000 NA
ATOM     27  N   UNL     1      -1.034  12.823  22.761  0.00  0.00    +0.000 N 
ATOM     28  C   UNL     1      -1.272  11.478  22.627  0.00  0.00    +0.000 A 
ATOM     29  N   UNL     1      -2.429  11.214  23.203  0.00  0.00    +0.000 NA
ATOM     30  H   UNL     1      -0.239  13.361  22.438  0.00  0.00    +0.000 HD
ENDBRANCH  18  28
ENDBRANCH   1  21
TORSDOF 3
ENDMDL
MODEL 3
REMARK VINA RESULT:      -9.3      1.961      2.920
REMARK  Name = 
REMARK  6 active torsions:
REMARK  status: ('A' for Active; 'I' for Inactive)
REMARK    1  A    between atoms: C_1  and  C_2
REMARK    2  A    between atoms: C_5  and  C_6
REMARK    3  A    between atoms: C_9  and  N_10
REMARK    4  A    between atoms: C_11  and  C_13
REMARK    5  A    between atoms: C_19  and  C_20
REMARK    6  A    between atoms: C_19  and  C_21
REMARK                            x       y       z     vdW  Elec       q    Type
REMARK                         _______ _______ _______ _____ _____    ______ ____
ROOT
ATOM      1  N   UNL     1       1.882   7.754  19.567  0.00  0.00    +0.000 N 
ATOM      2  C   UNL     1       1.965   6.422  19.933  0.00  0.00    +0.000 C 
ATOM      3  O   UNL     1       1.390   5.871  20.864  0.00  0.00    +0.000 OA
ATOM      4  H   UNL     1       2.428   8.062  18.771  0.00  0.00    +0.000 HD
ENDROOT
BRANCH   2   5
ATOM      5  C   UNL     1       2.920   5.601  19.155  0.00  0.00    +0.000 A 
ATOM      6  C   UNL     1       2.538   4.450  18.437  0.00  0.00    +0.000 A 
ATOM      7  C   UNL     1       3.483   3.749  17.675  0.00  0.00    +0.000 A 
ATOM      8  C   UNL     1       4.772   4.241  17.645  0.00  0.00    +0.000 A 
ATOM      9  C   UNL     1       5.160   5.368  18.366  0.00  0.00    +0.000 A 
ATOM     10  C   UNL     1       4.248   6.049  19.146  0.00  0.00    +0.000 A 
ATOM     11  C   UNL     1       6.597   5.711  18.056  0.00  0.00    +0.000 C 
ATOM     12  C   UNL     1       6.659   7.061  17.340  0.00  0.00    +0.000 C 
ATOM     13  C   UNL     1       7.491   5.685  19.292  0.00  0.00    +0.000 C 
ATOM     14  C   UNL     1       6.977   4.566  17.085  0.00  0.00    +0.000 C 
ATOM     15  O   UNL     1       8.055   4.386  16.546  0.00  0.00    +0.000 OA
ATOM     16  N   UNL     1       5.848   3.767  16.913  0.00  0.00    +0.000 N 
ATOM     17  H   UNL     1       5.844   2.963  16.305  0.00  0.00    +0.000 HD
ENDBRANCH   2   5
BRANCH   1  21
ATOM     18  C   UNL     1      -0.196  10.735  21.762  0.00  0.00    +0.000 A 
ATOM     19  C   UNL     1      -0.238  10.730  20.367  0.00  0.00    +0.000 A 
ATOM     20  C   UNL     1       0.446   9.759  19.631  0.00  0.00    +0.000 A 
ATOM     21  C   UNL     1       1.178   8.759  20.267  0.00  0.00    +0.000 A 
ATOM     22  C   UNL     1       1.207   8.737  21.664  0.00  0.00    +0.000 A 
ATOM     23  C   UNL     1       0.526   9.718  22.405  0.00  0.00    +0.000 A 
BRANCH  18  28
ATOM     24  C   UNL     1      -1.270  14.928  24.107  0.00  0.00    +0.000 C 
ATOM     25  C   UNL     1      -1.385  13.565  23.559  0.00  0.00    +0.000 A 
ATOM     26  N   UNL     1      -2.519  12.864  23.596  0.00  0.00    +0.000 NA
ATOM     27  N   UNL     1      -2.160  11.745  22.957  0.00  0.00    +0.000 N 
ATOM     28  C   UNL     1      -0.852  11.783  22.543  0.00  0.00    +0.000 A 
ATOM     29  N   UNL     1      -0.337  12.931  22.941  0.00  0.00    +0.000 NA
ATOM     30  H   UNL     1      -2.848  11.016  22.819  0.00  0.00    +0.000 HD
ENDBRANCH  18  28
ENDBRANCH   1  21
TORSDOF 3
ENDMDL
MODEL 4
REMARK VINA RESULT:      -9.3      0.579      1.282
REMARK  Name = 
REMARK  6 active torsions:
REMARK  status: ('A' for Active; 'I' for Inactive)
REMARK    1  A    between atoms: C_1  and  C_2
REMARK    2  A    between atoms: C_5  and  C_6
REMARK    3  A    between atoms: C_9  and  N_10
REMARK    4  A    between atoms: C_11  and  C_13
REMARK    5  A    between atoms: C_19  and  C_20
REMARK    6  A    between atoms: C_19  and  C_21
REMARK                            x       y       z     vdW  Elec       q    Type
REMARK                         _______ _______ _______ _____ _____    ______ ____
ROOT
ATOM      1  N   UNL     1       1.655   7.963  20.380  0.00  0.00    +0.000 N 
ATOM      2  C   UNL     1       2.062   7.997  19.057  0.00  0.00    +0.000 C 
ATOM      3  O   UNL     1       1.889   8.902  18.250  0.00  0.00    +0.000 OA
ATOM      4  H   UNL     1       1.868   7.133  20.920  0.00  0.00    +0.000 HD
ENDROOT
BRANCH   2   5
ATOM      5  C   UNL     1       2.705   6.763  18.552  0.00  0.00    +0.000 A 
ATOM      6  C   UNL     1       3.811   6.774  17.679  0.00  0.00    +0.000 A 
ATOM      7  C   UNL     1       4.408   5.568  17.282  0.00  0.00    +0.000 A 
ATOM      8  C   UNL     1       3.884   4.398  17.792  0.00  0.00    +0.000 A 
ATOM      9  C   UNL     1       2.781   4.379  18.641  0.00  0.00    +0.000 A 
ATOM     10  C   UNL     1       2.164   5.556  19.014  0.00  0.00    +0.000 A 
ATOM     11  C   UNL     1       2.507   2.969  19.104  0.00  0.00    +0.000 C 
ATOM     12  C   UNL     1       2.738   2.869  20.612  0.00  0.00    +0.000 C 
ATOM     13  C   UNL     1       1.118   2.476  18.710  0.00  0.00    +0.000 C 
ATOM     14  C   UNL     1       3.601   2.184  18.337  0.00  0.00    +0.000 C 
ATOM     15  O   UNL     1       3.801   0.982  18.367  0.00  0.00    +0.000 OA
ATOM     16  N   UNL     1       4.346   3.106  17.604  0.00  0.00    +0.000 N 
ATOM     17  H   UNL     1       5.133   2.833  17.036  0.00  0.00    +0.000 HD
ENDBRANCH   2   5
BRANCH   1  21
ATOM     18  C   UNL     1      -0.709  10.964  22.230  0.00  0.00    +0.000 A 
ATOM     19  C   UNL     1      -0.235   9.882  22.974  0.00  0.00    +0.000 A 
ATOM     20  C   UNL     1       0.539   8.884  22.377  0.00  0.00    +0.000 A 
ATOM     21  C   UNL     1       0.873   8.945  21.026  0.00  0.00    +0.000 A 
ATOM     22  C   UNL     1       0.426  10.037  20.276  0.00  0.00    +0.000 A 
ATOM     23  C   UNL     1      -0.359  11.037  20.874  0.00  0.00    +0.000 A 
BRANCH  18  28
ATOM     24  C   UNL     1      -4.461  13.343  24.351  0.00  0.00    +0.000 C 
ATOM     25  C   UNL     1      -3.144  13.063  23.751  0.00  0.00    +0.000 A 
ATOM     26  N   UNL     1      -2.149  13.950  23.748  0.00  0.00    +0.000 NA
ATOM     27  N   UNL     1      -1.173  13.252  23.157  0.00  0.00    +0.000 N 
ATOM     28  C   UNL     1      -1.575  11.982  22.826  0.00  0.00    +0.000 A 
ATOM     29  N   UNL     1      -2.839  11.854  23.179  0.00  0.00    +0.000 NA
ATOM     30  H   UNL     1      -0.267  13.683  23.031  0.00  0.00    +0.000 HD
ENDBRANCH  18  28
ENDBRANCH   1  21
TORSDOF 3
ENDMDL
MODEL 5
REMARK VINA RESULT:      -9.2      1.868      3.176
REMARK  Name = 
REMARK  6 active torsions:
REMARK  status: ('A' for Active; 'I' for Inactive)
REMARK    1  A    between atoms: C_1  and  C_2
REMARK    2  A    between atoms: C_5  and  C_6
REMARK    3  A    between atoms: C_9  and  N_10
REMARK    4  A    between atoms: C_11  and  C_13
REMARK    5  A    between atoms: C_19  and  C_20
REMARK    6  A    between atoms: C_19  and  C_21
REMARK                            x       y       z     vdW  Elec       q    Type
REMARK                         _______ _______ _______ _____ _____    ______ ____
ROOT
ATOM      1  N   UNL     1       2.138   7.585  19.740  0.00  0.00    +0.000 N 
ATOM      2  C   UNL     1       2.103   6.220  19.967  0.00  0.00    +0.000 C 
ATOM      3  O   UNL     1       1.408   5.620  20.777  0.00  0.00    +0.000 OA
ATOM      4  H   UNL     1       2.777   7.933  19.036  0.00  0.00    +0.000 HD
ENDROOT
BRANCH   2   5
ATOM      5  C   UNL     1       3.078   5.417  19.195  0.00  0.00    +0.000 A 
ATOM      6  C   UNL     1       3.062   4.008  19.167  0.00  0.00    +0.000 A 
ATOM      7  C   UNL     1       3.980   3.309  18.370  0.00  0.00    +0.000 A 
ATOM      8  C   UNL     1       4.867   4.051  17.616  0.00  0.00    +0.000 A 
ATOM      9  C   UNL     1       4.899   5.442  17.653  0.00  0.00    +0.000 A 
ATOM     10  C   UNL     1       4.023   6.142  18.457  0.00  0.00    +0.000 A 
ATOM     11  C   UNL     1       5.904   5.964  16.655  0.00  0.00    +0.000 C 
ATOM     12  C   UNL     1       5.180   6.748  15.560  0.00  0.00    +0.000 C 
ATOM     13  C   UNL     1       7.010   6.789  17.305  0.00  0.00    +0.000 C 
ATOM     14  C   UNL     1       6.475   4.641  16.084  0.00  0.00    +0.000 C 
ATOM     15  O   UNL     1       7.339   4.520  15.234  0.00  0.00    +0.000 OA
ATOM     16  N   UNL     1       5.806   3.590  16.709  0.00  0.00    +0.000 N 
ATOM     17  H   UNL     1       5.993   2.624  16.487  0.00  0.00    +0.000 HD
ENDBRANCH   2   5
BRANCH   1  21
ATOM     18  C   UNL     1      -0.011  10.566  21.867  0.00  0.00    +0.000 A 
ATOM     19  C   UNL     1       0.569   9.493  22.548  0.00  0.00    +0.000 A 
ATOM     20  C   UNL     1       1.273   8.502  21.861  0.00  0.00    +0.000 A 
ATOM     21  C   UNL     1       1.431   8.561  20.478  0.00  0.00    +0.000 A 
ATOM     22  C   UNL     1       0.878   9.643  19.787  0.00  0.00    +0.000 A 
ATOM     23  C   UNL     1       0.162  10.636  20.477  0.00  0.00    +0.000 A 
BRANCH  18  28
ATOM     24  C   UNL     1      -1.690  14.765  23.811  0.00  0.00    +0.000 C 
ATOM     25  C   UNL     1      -1.594  13.349  23.414  0.00  0.00    +0.000 A 
ATOM     26  N   UNL     1      -2.595  12.483  23.580  0.00  0.00    +0.000 NA
ATOM     27  N   UNL     1      -2.077  11.373  23.045  0.00  0.00    +0.000 N 
ATOM     28  C   UNL     1      -0.807  11.575  22.565  0.00  0.00    +0.000 A 
ATOM     29  N   UNL     1      -0.476  12.827  22.815  0.00  0.00    +0.000 NA
ATOM     30  H   UNL     1      -2.639  10.531  23.018  0.00  0.00    +0.000 HD
ENDBRANCH  18  28
ENDBRANCH   1  21
TORSDOF 3
ENDMDL
MODEL 6
REMARK VINA RESULT:      -8.9      3.065      3.503
REMARK  Name = 
REMARK  6 active torsions:
REMARK  status: ('A' for Active; 'I' for Inactive)
REMARK    1  A    between atoms: C_1  and  C_2
REMARK    2  A    between atoms: C_5  and  C_6
REMARK    3  A    between atoms: C_9  and  N_10
REMARK    4  A    between atoms: C_11  and  C_13
REMARK    5  A    between atoms: C_19  and  C_20
REMARK    6  A    between atoms: C_19  and  C_21
REMARK                            x       y       z     vdW  Elec       q    Type
REMARK                         _______ _______ _______ _____ _____    ______ ____
ROOT
ATOM      1  N   UNL     1       1.990   9.051  17.937  0.00  0.00    +0.000 N 
ATOM      2  C   UNL     1       2.115   8.051  18.886  0.00  0.00    +0.000 C 
ATOM      3  O   UNL     1       1.837   8.118  20.077  0.00  0.00    +0.000 OA
ATOM      4  H   UNL     1       2.272   8.842  16.988  0.00  0.00    +0.000 HD
ENDROOT
BRANCH   2   5
ATOM      5  C   UNL     1       2.734   6.792  18.412  0.00  0.00    +0.000 A 
ATOM      6  C   UNL     1       3.830   6.758  17.527  0.00  0.00    +0.000 A 
ATOM      7  C   UNL     1       4.404   5.532  17.161  0.00  0.00    +0.000 A 
ATOM      8  C   UNL     1       3.868   4.386  17.714  0.00  0.00    +0.000 A 
ATOM      9  C   UNL     1       2.775   4.411  18.576  0.00  0.00    +0.000 A 
ATOM     10  C   UNL     1       2.180   5.609  18.919  0.00  0.00    +0.000 A 
ATOM     11  C   UNL     1       2.486   3.020  19.086  0.00  0.00    +0.000 C 
ATOM     12  C   UNL     1       2.732   2.965  20.594  0.00  0.00    +0.000 C 
ATOM     13  C   UNL     1       1.084   2.537  18.723  0.00  0.00    +0.000 C 
ATOM     14  C   UNL     1       3.558   2.195  18.332  0.00  0.00    +0.000 C 
ATOM     15  O   UNL     1       3.740   0.992  18.397  0.00  0.00    +0.000 OA
ATOM     16  N   UNL     1       4.308   3.082  17.562  0.00  0.00    +0.000 N 
ATOM     17  H   UNL     1       5.084   2.780  16.993  0.00  0.00    +0.000 HD
ENDBRANCH   2   5
BRANCH   1  21
ATOM     18  C   UNL     1       0.896  13.087  18.670  0.00  0.00    +0.000 A 
ATOM     19  C   UNL     1      -0.024  12.058  18.878  0.00  0.00    +0.000 A 
ATOM     20  C   UNL     1       0.319  10.726  18.636  0.00  0.00    +0.000 A 
ATOM     21  C   UNL     1       1.595  10.383  18.192  0.00  0.00    +0.000 A 
ATOM     22  C   UNL     1       2.534  11.401  18.006  0.00  0.00    +0.000 A 
ATOM     23  C   UNL     1       2.186  12.741  18.241  0.00  0.00    +0.000 A 
BRANCH  18  28
ATOM     24  C   UNL     1       0.977  17.993  19.075  0.00  0.00    +0.000 C 
ATOM     25  C   UNL     1       0.491  16.602  19.029  0.00  0.00    +0.000 A 
ATOM     26  N   UNL     1      -0.806  16.289  19.042  0.00  0.00    +0.000 NA
ATOM     27  N   UNL     1      -0.759  14.957  18.939  0.00  0.00    +0.000 N 
ATOM     28  C   UNL     1       0.530  14.491  18.857  0.00  0.00    +0.000 A 
ATOM     29  N   UNL     1       1.340  15.528  18.936  0.00  0.00    +0.000 NA
ATOM     30  H   UNL     1      -1.625  14.435  18.908  0.00  0.00    +0.000 HD
ENDBRANCH  18  28
ENDBRANCH   1  21
TORSDOF 3
ENDMDL
MODEL 7
REMARK VINA RESULT:      -8.9      7.356     11.449
REMARK  Name = 
REMARK  6 active torsions:
REMARK  status: ('A' for Active; 'I' for Inactive)
REMARK    1  A    between atoms: C_1  and  C_2
REMARK    2  A    between atoms: C_5  and  C_6
REMARK    3  A    between atoms: C_9  and  N_10
REMARK    4  A    between atoms: C_11  and  C_13
REMARK    5  A    between atoms: C_19  and  C_20
REMARK    6  A    between atoms: C_19  and  C_21
REMARK                            x       y       z     vdW  Elec       q    Type
REMARK                         _______ _______ _______ _____ _____    ______ ____
ROOT
ATOM      1  N   UNL     1       8.455   9.322  17.647  0.00  0.00    +0.000 N 
ATOM      2  C   UNL     1       8.979  10.082  18.677  0.00  0.00    +0.000 C 
ATOM      3  O   UNL     1       8.925   9.844  19.878  0.00  0.00    +0.000 OA
ATOM      4  H   UNL     1       8.576   9.659  16.699  0.00  0.00    +0.000 HD
ENDROOT
BRANCH   2   5
ATOM      5  C   UNL     1       9.600  11.365  18.276  0.00  0.00    +0.000 A 
ATOM      6  C   UNL     1      10.789  11.442  17.523  0.00  0.00    +0.000 A 
ATOM      7  C   UNL     1      11.294  12.689  17.128  0.00  0.00    +0.000 A 
ATOM      8  C   UNL     1      10.575  13.812  17.487  0.00  0.00    +0.000 A 
ATOM      9  C   UNL     1       9.409  13.744  18.245  0.00  0.00    +0.000 A 
ATOM     10  C   UNL     1       8.919  12.525  18.668  0.00  0.00    +0.000 A 
ATOM     11  C   UNL     1       8.805  15.119  18.391  0.00  0.00    +0.000 C 
ATOM     12  C   UNL     1       7.455  15.165  17.676  0.00  0.00    +0.000 C 
ATOM     13  C   UNL     1       8.690  15.563  19.847  0.00  0.00    +0.000 C 
ATOM     14  C   UNL     1       9.846  15.986  17.639  0.00  0.00    +0.000 C 
ATOM     15  O   UNL     1       9.818  17.193  17.477  0.00  0.00    +0.000 OA
ATOM     16  N   UNL     1      10.833  15.131  17.153  0.00  0.00    +0.000 N 
ATOM     17  H   UNL     1      11.614  15.463  16.609  0.00  0.00    +0.000 HD
ENDBRANCH   2   5
BRANCH   1  21
ATOM     18  C   UNL     1       6.168   5.784  18.173  0.00  0.00    +0.000 A 
ATOM     19  C   UNL     1       5.687   6.822  17.372  0.00  0.00    +0.000 A 
ATOM     20  C   UNL     1       6.426   7.994  17.195  0.00  0.00    +0.000 A 
ATOM     21  C   UNL     1       7.670   8.157  17.799  0.00  0.00    +0.000 A 
ATOM     22  C   UNL     1       8.175   7.115  18.582  0.00  0.00    +0.000 A 
ATOM     23  C   UNL     1       7.428   5.939  18.768  0.00  0.00    +0.000 A 
BRANCH  18  28
ATOM     24  C   UNL     1       2.962   2.065  17.820  0.00  0.00    +0.000 C 
ATOM     25  C   UNL     1       4.031   2.945  18.324  0.00  0.00    +0.000 A 
ATOM     26  N   UNL     1       4.783   2.636  19.381  0.00  0.00    +0.000 NA
ATOM     27  N   UNL     1       5.618   3.679  19.427  0.00  0.00    +0.000 N 
ATOM     28  C   UNL     1       5.376   4.579  18.420  0.00  0.00    +0.000 A 
ATOM     29  N   UNL     1       4.349   4.135  17.720  0.00  0.00    +0.000 NA
ATOM     30  H   UNL     1       6.332   3.706  20.144  0.00  0.00    +0.000 HD
ENDBRANCH  18  28
ENDBRANCH   1  21
TORSDOF 3
ENDMDL
MODEL 8
REMARK VINA RESULT:      -8.9      2.738      3.108
REMARK  Name = 
REMARK  6 active torsions:
REMARK  status: ('A' for Active; 'I' for Inactive)
REMARK    1  A    between atoms: C_1  and  C_2
REMARK    2  A    between atoms: C_5  and  C_6
REMARK    3  A    between atoms: C_9  and  N_10
REMARK    4  A    between atoms: C_11  and  C_13
REMARK    5  A    between atoms: C_19  and  C_20
REMARK    6  A    between atoms: C_19  and  C_21
REMARK                            x       y       z     vdW  Elec       q    Type
REMARK                         _______ _______ _______ _____ _____    ______ ____
ROOT
ATOM      1  N   UNL     1       1.743   8.909  18.041  0.00  0.00    +0.000 N 
ATOM      2  C   UNL     1       2.046   7.967  19.009  0.00  0.00    +0.000 C 
ATOM      3  O   UNL     1       1.904   8.075  20.221  0.00  0.00    +0.000 OA
ATOM      4  H   UNL     1       1.926   8.671  17.074  0.00  0.00    +0.000 HD
ENDROOT
BRANCH   2   5
ATOM      5  C   UNL     1       2.688   6.727  18.517  0.00  0.00    +0.000 A 
ATOM      6  C   UNL     1       3.792   6.727  17.641  0.00  0.00    +0.000 A 
ATOM      7  C   UNL     1       4.388   5.517  17.258  0.00  0.00    +0.000 A 
ATOM      8  C   UNL     1       3.866   4.352  17.785  0.00  0.00    +0.000 A 
ATOM      9  C   UNL     1       2.765   4.344  18.637  0.00  0.00    +0.000 A 
ATOM     10  C   UNL     1       2.149   5.525  18.997  0.00  0.00    +0.000 A 
ATOM     11  C   UNL     1       2.494   2.940  19.119  0.00  0.00    +0.000 C 
ATOM     12  C   UNL     1       2.728   2.860  20.628  0.00  0.00    +0.000 C 
ATOM     13  C   UNL     1       1.103   2.441  18.735  0.00  0.00    +0.000 C 
ATOM     14  C   UNL     1       3.585   2.145  18.359  0.00  0.00    +0.000 C 
ATOM     15  O   UNL     1       3.786   0.944  18.404  0.00  0.00    +0.000 OA
ATOM     16  N   UNL     1       4.328   3.058  17.612  0.00  0.00    +0.000 N 
ATOM     17  H   UNL     1       5.113   2.778  17.045  0.00  0.00    +0.000 HD
ENDBRANCH   2   5
BRANCH   1  21
ATOM     18  C   UNL     1       0.290  12.826  18.793  0.00  0.00    +0.000 A 
ATOM     19  C   UNL     1       1.648  12.613  18.546  0.00  0.00    +0.000 A 
ATOM     20  C   UNL     1       2.141  11.329  18.304  0.00  0.00    +0.000 A 
ATOM     21  C   UNL     1       1.292  10.225  18.286  0.00  0.00    +0.000 A 
ATOM     22  C   UNL     1      -0.074  10.428  18.505  0.00  0.00    +0.000 A 
ATOM     23  C   UNL     1      -0.569  11.718  18.758  0.00  0.00    +0.000 A 
BRANCH  18  28
ATOM     24  C   UNL     1      -0.592  17.668  18.913  0.00  0.00    +0.000 C 
ATOM     25  C   UNL     1      -0.669  16.225  19.207  0.00  0.00    +0.000 A 
ATOM     26  N   UNL     1      -1.610  15.698  19.991  0.00  0.00    +0.000 NA
ATOM     27  N   UNL     1      -1.312  14.396  19.923  0.00  0.00    +0.000 N 
ATOM     28  C   UNL     1      -0.230  14.155  19.114  0.00  0.00    +0.000 A 
ATOM     29  N   UNL     1       0.206  15.317  18.667  0.00  0.00    +0.000 NA
ATOM     30  H   UNL     1      -1.888  13.733  20.426  0.00  0.00    +0.000 HD
ENDBRANCH  18  28
ENDBRANCH   1  21
TORSDOF 3
ENDMDL
MODEL 9
REMARK VINA RESULT:      -8.8      1.417      1.802
REMARK  Name = 
REMARK  6 active torsions:
REMARK  status: ('A' for Active; 'I' for Inactive)
REMARK    1  A    between atoms: C_1  and  C_2
REMARK    2  A    between atoms: C_5  and  C_6
REMARK    3  A    between atoms: C_9  and  N_10
REMARK    4  A    between atoms: C_11  and  C_13
REMARK    5  A    between atoms: C_19  and  C_20
REMARK    6  A    between atoms: C_19  and  C_21
REMARK                            x       y       z     vdW  Elec       q    Type
REMARK                         _______ _______ _______ _____ _____    ______ ____
ROOT
ATOM      1  N   UNL     1       1.575   8.535  19.500  0.00  0.00    +0.000 N 
ATOM      2  C   UNL     1       2.243   8.433  18.292  0.00  0.00    +0.000 C 
ATOM      3  O   UNL     1       2.292   9.269  17.397  0.00  0.00    +0.000 OA
ATOM      4  H   UNL     1       1.624   7.749  20.136  0.00  0.00    +0.000 HD
ENDROOT
BRANCH   2   5
ATOM      5  C   UNL     1       2.900   7.133  18.030  0.00  0.00    +0.000 A 
ATOM      6  C   UNL     1       4.103   7.010  17.306  0.00  0.00    +0.000 A 
ATOM      7  C   UNL     1       4.702   5.753  17.141  0.00  0.00    +0.000 A 
ATOM      8  C   UNL     1       4.081   4.668  17.726  0.00  0.00    +0.000 A 
ATOM      9  C   UNL     1       2.883   4.779  18.427  0.00  0.00    +0.000 A 
ATOM     10  C   UNL     1       2.266   6.006  18.570  0.00  0.00    +0.000 A 
ATOM     11  C   UNL     1       2.507   3.446  19.026  0.00  0.00    +0.000 C 
ATOM     12  C   UNL     1       2.550   3.538  20.552  0.00  0.00    +0.000 C 
ATOM     13  C   UNL     1       1.159   2.932  18.528  0.00  0.00    +0.000 C 
ATOM     14  C   UNL     1       3.658   2.548  18.506  0.00  0.00    +0.000 C 
ATOM     15  O   UNL     1       3.811   1.357  18.711  0.00  0.00    +0.000 OA
ATOM     16  N   UNL     1       4.517   3.354  17.761  0.00  0.00    +0.000 N 
ATOM     17  H   UNL     1       5.357   2.996  17.334  0.00  0.00    +0.000 HD
ENDBRANCH   2   5
BRANCH   1  21
ATOM     18  C   UNL     1      -0.997  11.733  20.587  0.00  0.00    +0.000 A 
ATOM     19  C   UNL     1       0.038  11.340  21.438  0.00  0.00    +0.000 A 
ATOM     20  C   UNL     1       0.888  10.286  21.096  0.00  0.00    +0.000 A 
ATOM     21  C   UNL     1       0.738   9.604  19.890  0.00  0.00    +0.000 A 
ATOM     22  C   UNL     1      -0.277  10.005  19.018  0.00  0.00    +0.000 A 
ATOM     23  C   UNL     1      -1.138  11.059  19.365  0.00  0.00    +0.000 A 
BRANCH  18  28
ATOM     24  C   UNL     1      -4.223  14.577  22.983  0.00  0.00    +0.000 C 
ATOM     25  C   UNL     1      -3.313  14.067  21.941  0.00  0.00    +0.000 A 
ATOM     26  N   UNL     1      -3.000  14.767  20.850  0.00  0.00    +0.000 NA
ATOM     27  N   UNL     1      -2.137  13.945  20.245  0.00  0.00    +0.000 N 
ATOM     28  C   UNL     1      -1.935  12.791  20.961  0.00  0.00    +0.000 A 
ATOM     29  N   UNL     1      -2.698  12.845  22.036  0.00  0.00    +0.000 NA
ATOM     30  H   UNL     1      -1.711  14.232  19.373  0.00  0.00    +0.000 HD
ENDBRANCH  18  28
ENDBRANCH   1  21
TORSDOF 3
ENDMDL
