MODEL 1
REMARK VINA RESULT:      -8.5      0.000      0.000
REMARK  Name = 
REMARK  6 active torsions:
REMARK  status: ('A' for Active; 'I' for Inactive)
REMARK    1  A    between atoms: C_2  and  C_11
REMARK    2  A    between atoms: N_3  and  C_4
REMARK    3  A    between atoms: C_4  and  C_5
REMARK    4  A    between atoms: C_14  and  N_15
REMARK    5  A    between atoms: C_16  and  C_18
REMARK    6  A    between atoms: C_22  and  N_23
REMARK                            x       y       z     vdW  Elec       q    Type
REMARK                         _______ _______ _______ _____ _____    ______ ____
ROOT
ATOM      1  C   UNL     1       1.375   8.927  19.270  0.00  0.00    +0.000 A 
ATOM      2  C   UNL     1       0.651  10.015  18.783  0.00  0.00    +0.000 A 
ATOM      3  C   UNL     1      -0.160  10.755  19.638  0.00  0.00    +0.000 A 
ATOM      4  C   UNL     1      -0.254  10.454  20.998  0.00  0.00    +0.000 A 
ATOM      5  C   UNL     1       0.490   9.373  21.493  0.00  0.00    +0.000 A 
ATOM      6  C   UNL     1       1.308   8.617  20.635  0.00  0.00    +0.000 A 
ENDROOT
BRANCH   1   8
ATOM      7  O   UNL     1       2.631   8.596  17.303  0.00  0.00    +0.000 OA
ATOM      8  C   UNL     1       2.214   8.108  18.347  0.00  0.00    +0.000 C 
ATOM      9  N   UNL     1       2.486   6.820  18.756  0.00  0.00    +0.000 N 
ATOM     10  H   UNL     1       2.106   6.458  19.617  0.00  0.00    +0.000 HD
BRANCH   9  11
ATOM     11  C   UNL     1       3.212   5.893  17.925  0.00  0.00    +0.000 C 
BRANCH  11  12
ATOM     12  C   UNL     1       2.696   4.486  18.085  0.00  0.00    +0.000 A 
ATOM     13  C   UNL     1       3.274   3.416  17.397  0.00  0.00    +0.000 A 
ATOM     14  C   UNL     1       2.784   2.137  17.621  0.00  0.00    +0.000 A 
ATOM     15  N   UNL     1       1.769   1.857  18.466  0.00  0.00    +0.000 NA
ATOM     16  C   UNL     1       1.221   2.903  19.119  0.00  0.00    +0.000 A 
ATOM     17  C   UNL     1       1.642   4.214  18.964  0.00  0.00    +0.000 A 
ENDBRANCH  11  12
ENDBRANCH   9  11
ENDBRANCH   1   8
BRANCH   4  18
ATOM     18  N   UNL     1      -1.074  11.191  21.884  0.00  0.00    +0.000 N 
ATOM     19  C   UNL     1      -0.782  12.449  22.390  0.00  0.00    +0.000 C 
ATOM     20  O   UNL     1       0.239  13.103  22.199  0.00  0.00    +0.000 OA
ATOM     21  H   UNL     1      -1.925  10.737  22.186  0.00  0.00    +0.000 HD
BRANCH  19  22
ATOM     22  C   UNL     1      -1.817  13.092  23.234  0.00  0.00    +0.000 A 
ATOM     23  C   UNL     1      -1.501  14.311  23.855  0.00  0.00    +0.000 A 
ATOM     24  C   UNL     1      -2.492  15.059  24.487  0.00  0.00    +0.000 A 
ATOM     25  C   UNL     1      -3.812  14.614  24.459  0.00  0.00    +0.000 A 
ATOM     26  C   UNL     1      -4.137  13.409  23.822  0.00  0.00    +0.000 A 
ATOM     27  C   UNL     1      -3.129  12.618  23.250  0.00  0.00    +0.000 A 
BRANCH  26  28
ATOM     28  N   UNL     1      -5.488  13.022  23.659  0.00  0.00    +0.000 N 
ATOM     29  C   UNL     1      -6.429  13.542  22.805  0.00  0.00    +0.000 A 
ATOM     30  C   UNL     1      -7.538  12.758  22.993  0.00  0.00    +0.000 A 
ATOM     31  N   UNL     1      -7.273  11.808  23.929  0.00  0.00    +0.000 NA
ATOM     32  N   UNL     1      -6.018  11.971  24.329  0.00  0.00    +0.000 NA
ENDBRANCH  26  28
ENDBRANCH  19  22
ENDBRANCH   4  18
TORSDOF 6
ENDMDL
MODEL 2
REMARK VINA RESULT:      -8.5      2.504     11.323
REMARK  Name = 
REMARK  6 active torsions:
REMARK  status: ('A' for Active; 'I' for Inactive)
REMARK    1  A    between atoms: C_2  and  C_11
REMARK    2  A    between atoms: N_3  and  C_4
REMARK    3  A    between atoms: C_4  and  C_5
REMARK    4  A    between atoms: C_14  and  N_15
REMARK    5  A    between atoms: C_16  and  C_18
REMARK    6  A    between atoms: C_22  and  N_23
REMARK                            x       y       z     vdW  Elec       q    Type
REMARK                         _______ _______ _______ _____ _____    ______ ____
ROOT
ATOM      1  C   UNL     1      -0.211  10.590  20.946  0.00  0.00    +0.000 A 
ATOM      2  C   UNL     1       0.132   9.854  22.080  0.00  0.00    +0.000 A 
ATOM      3  C   UNL     1       0.948   8.733  21.968  0.00  0.00    +0.000 A 
ATOM      4  C   UNL     1       1.465   8.327  20.736  0.00  0.00    +0.000 A 
ATOM      5  C   UNL     1       1.138   9.077  19.598  0.00  0.00    +0.000 A 
ATOM      6  C   UNL     1       0.311  10.209  19.702  0.00  0.00    +0.000 A 
ENDROOT
BRANCH   1   8
ATOM      7  O   UNL     1      -1.677  12.209  20.063  0.00  0.00    +0.000 OA
ATOM      8  C   UNL     1      -1.117  11.769  21.060  0.00  0.00    +0.000 C 
ATOM      9  N   UNL     1      -1.281  12.288  22.326  0.00  0.00    +0.000 N 
ATOM     10  H   UNL     1      -0.784  11.901  23.114  0.00  0.00    +0.000 HD
BRANCH   9  11
ATOM     11  C   UNL     1      -2.060  13.476  22.569  0.00  0.00    +0.000 C 
BRANCH  11  12
ATOM     12  C   UNL     1      -3.471  13.137  22.977  0.00  0.00    +0.000 A 
ATOM     13  C   UNL     1      -4.528  13.203  22.066  0.00  0.00    +0.000 A 
ATOM     14  C   UNL     1      -5.798  12.835  22.489  0.00  0.00    +0.000 A 
ATOM     15  N   UNL     1      -6.081  12.418  23.741  0.00  0.00    +0.000 NA
ATOM     16  C   UNL     1      -5.049  12.363  24.608  0.00  0.00    +0.000 A 
ATOM     17  C   UNL     1      -3.748  12.708  24.280  0.00  0.00    +0.000 A 
ENDBRANCH  11  12
ENDBRANCH   9  11
ENDBRANCH   1   8
BRANCH   4  18
ATOM     18  N   UNL     1       2.293   7.189  20.598  0.00  0.00    +0.000 N 
ATOM     19  C   UNL     1       1.848   5.878  20.507  0.00  0.00    +0.000 C 
ATOM     20  O   UNL     1       0.688   5.485  20.578  0.00  0.00    +0.000 OA
ATOM     21  H   UNL     1       3.290   7.359  20.598  0.00  0.00    +0.000 HD
BRANCH  19  22
ATOM     22  C   UNL     1       2.874   4.833  20.274  0.00  0.00    +0.000 A 
ATOM     23  C   UNL     1       2.606   3.531  20.723  0.00  0.00    +0.000 A 
ATOM     24  C   UNL     1       3.433   2.473  20.355  0.00  0.00    +0.000 A 
ATOM     25  C   UNL     1       4.507   2.705  19.498  0.00  0.00    +0.000 A 
ATOM     26  C   UNL     1       4.768   4.000  19.029  0.00  0.00    +0.000 A 
ATOM     27  C   UNL     1       3.979   5.079  19.458  0.00  0.00    +0.000 A 
BRANCH  26  28
ATOM     28  N   UNL     1       5.759   4.224  18.046  0.00  0.00    +0.000 N 
ATOM     29  C   UNL     1       5.615   4.268  16.680  0.00  0.00    +0.000 A 
ATOM     30  C   UNL     1       6.862   4.593  16.211  0.00  0.00    +0.000 A 
ATOM     31  N   UNL     1       7.722   4.731  17.257  0.00  0.00    +0.000 NA
ATOM     32  N   UNL     1       7.042   4.510  18.374  0.00  0.00    +0.000 NA
ENDBRANCH  26  28
ENDBRANCH  19  22
ENDBRANCH   4  18
TORSDOF 6
ENDMDL
MODEL 3
REMARK VINA RESULT:      -8.4      2.541     11.341
REMARK  Name = 
REMARK  6 active torsions:
REMARK  status: ('A' for Active; 'I' for Inactive)
REMARK    1  A    between atoms: C_2  and  C_11
REMARK    2  A    between atoms: N_3  and  C_4
REMARK    3  A    between atoms: C_4  and  C_5
REMARK    4  A    between atoms: C_14  and  N_15
REMARK    5  A    between atoms: C_16  and  C_18
REMARK    6  A    between atoms: C_22  and  N_23
REMARK                            x       y       z     vdW  Elec       q    Type
REMARK                         _______ _______ _______ _____ _____    ______ ____
ROOT
ATOM      1  C   UNL     1      -0.399  10.477  20.836  0.00  0.00    +0.000 A 
ATOM      2  C   UNL     1       0.212  10.195  19.614  0.00  0.00    +0.000 A 
ATOM      3  C   UNL     1       1.081   9.115  19.498  0.00  0.00    +0.000 A 
ATOM      4  C   UNL     1       1.347   8.273  20.580  0.00  0.00    +0.000 A 
ATOM      5  C   UNL     1       0.718   8.543  21.803  0.00  0.00    +0.000 A 
ATOM      6  C   UNL     1      -0.158   9.635  21.930  0.00  0.00    +0.000 A 
ENDROOT
BRANCH   1   8
ATOM      7  O   UNL     1      -1.893  12.092  19.991  0.00  0.00    +0.000 OA
ATOM      8  C   UNL     1      -1.300  11.658  20.971  0.00  0.00    +0.000 C 
ATOM      9  N   UNL     1      -1.421  12.187  22.239  0.00  0.00    +0.000 N 
ATOM     10  H   UNL     1      -0.898  11.805  23.012  0.00  0.00    +0.000 HD
BRANCH   9  11
ATOM     11  C   UNL     1      -2.190  13.378  22.499  0.00  0.00    +0.000 C 
BRANCH  11  12
ATOM     12  C   UNL     1      -3.569  13.044  23.009  0.00  0.00    +0.000 A 
ATOM     13  C   UNL     1      -3.762  12.501  24.282  0.00  0.00    +0.000 A 
ATOM     14  C   UNL     1      -5.059  12.258  24.713  0.00  0.00    +0.000 A 
ATOM     15  N   UNL     1      -6.158  12.509  23.970  0.00  0.00    +0.000 NA
ATOM     16  C   UNL     1      -5.952  13.030  22.743  0.00  0.00    +0.000 A 
ATOM     17  C   UNL     1      -4.697  13.309  22.225  0.00  0.00    +0.000 A 
ENDBRANCH  11  12
ENDBRANCH   9  11
ENDBRANCH   1   8
BRANCH   4  18
ATOM     18  N   UNL     1       2.229   7.172  20.485  0.00  0.00    +0.000 N 
ATOM     19  C   UNL     1       1.848   5.838  20.436  0.00  0.00    +0.000 C 
ATOM     20  O   UNL     1       0.707   5.393  20.513  0.00  0.00    +0.000 OA
ATOM     21  H   UNL     1       3.217   7.389  20.485  0.00  0.00    +0.000 HD
BRANCH  19  22
ATOM     22  C   UNL     1       2.924   4.837  20.244  0.00  0.00    +0.000 A 
ATOM     23  C   UNL     1       2.720   3.542  20.747  0.00  0.00    +0.000 A 
ATOM     24  C   UNL     1       3.598   2.512  20.420  0.00  0.00    +0.000 A 
ATOM     25  C   UNL     1       4.659   2.762  19.552  0.00  0.00    +0.000 A 
ATOM     26  C   UNL     1       4.856   4.048  19.031  0.00  0.00    +0.000 A 
ATOM     27  C   UNL     1       4.016   5.103  19.417  0.00  0.00    +0.000 A 
BRANCH  26  28
ATOM     28  N   UNL     1       5.835   4.279  18.038  0.00  0.00    +0.000 N 
ATOM     29  C   UNL     1       5.666   4.396  16.680  0.00  0.00    +0.000 A 
ATOM     30  C   UNL     1       6.916   4.693  16.199  0.00  0.00    +0.000 A 
ATOM     31  N   UNL     1       7.801   4.746  17.230  0.00  0.00    +0.000 NA
ATOM     32  N   UNL     1       7.136   4.497  18.350  0.00  0.00    +0.000 NA
ENDBRANCH  26  28
ENDBRANCH  19  22
ENDBRANCH   4  18
TORSDOF 6
ENDMDL
MODEL 4
REMARK VINA RESULT:      -8.3      1.546      2.394
REMARK  Name = 
REMARK  6 active torsions:
REMARK  status: ('A' for Active; 'I' for Inactive)
REMARK    1  A    between atoms: C_2  and  C_11
REMARK    2  A    between atoms: N_3  and  C_4
REMARK    3  A    between atoms: C_4  and  C_5
REMARK    4  A    between atoms: C_14  and  N_15
REMARK    5  A    between atoms: C_16  and  C_18
REMARK    6  A    between atoms: C_22  and  N_23
REMARK                            x       y       z     vdW  Elec       q    Type
REMARK                         _______ _______ _______ _____ _____    ______ ____
ROOT
ATOM      1  C   UNL     1       1.361   8.955  19.261  0.00  0.00    +0.000 A 
ATOM      2  C   UNL     1       0.666  10.078  18.810  0.00  0.00    +0.000 A 
ATOM      3  C   UNL     1      -0.108  10.824  19.694  0.00  0.00    +0.000 A 
ATOM      4  C   UNL     1      -0.192  10.494  21.048  0.00  0.00    +0.000 A 
ATOM      5  C   UNL     1       0.523   9.379  21.507  0.00  0.00    +0.000 A 
ATOM      6  C   UNL     1       1.304   8.616  20.620  0.00  0.00    +0.000 A 
ENDROOT
BRANCH   1   8
ATOM      7  O   UNL     1       2.476   8.592  17.217  0.00  0.00    +0.000 OA
ATOM      8  C   UNL     1       2.159   8.132  18.307  0.00  0.00    +0.000 C 
ATOM      9  N   UNL     1       2.512   6.872  18.742  0.00  0.00    +0.000 N 
ATOM     10  H   UNL     1       2.213   6.531  19.642  0.00  0.00    +0.000 HD
BRANCH   9  11
ATOM     11  C   UNL     1       3.210   5.939  17.892  0.00  0.00    +0.000 C 
BRANCH  11  12
ATOM     12  C   UNL     1       4.701   6.011  18.100  0.00  0.00    +0.000 A 
ATOM     13  C   UNL     1       5.316   5.373  19.181  0.00  0.00    +0.000 A 
ATOM     14  C   UNL     1       6.698   5.437  19.294  0.00  0.00    +0.000 A 
ATOM     15  N   UNL     1       7.495   6.088  18.420  0.00  0.00    +0.000 NA
ATOM     16  C   UNL     1       6.883   6.700  17.385  0.00  0.00    +0.000 A 
ATOM     17  C   UNL     1       5.512   6.692  17.186  0.00  0.00    +0.000 A 
ENDBRANCH  11  12
ENDBRANCH   9  11
ENDBRANCH   1   8
BRANCH   4  18
ATOM     18  N   UNL     1      -0.974  11.237  21.962  0.00  0.00    +0.000 N 
ATOM     19  C   UNL     1      -0.695  12.524  22.399  0.00  0.00    +0.000 C 
ATOM     20  O   UNL     1       0.284  13.206  22.110  0.00  0.00    +0.000 OA
ATOM     21  H   UNL     1      -1.784  10.765  22.343  0.00  0.00    +0.000 HD
BRANCH  19  22
ATOM     22  C   UNL     1      -1.692  13.163  23.290  0.00  0.00    +0.000 A 
ATOM     23  C   UNL     1      -1.343  14.372  23.914  0.00  0.00    +0.000 A 
ATOM     24  C   UNL     1      -2.303  15.119  24.592  0.00  0.00    +0.000 A 
ATOM     25  C   UNL     1      -3.626  14.683  24.612  0.00  0.00    +0.000 A 
ATOM     26  C   UNL     1      -3.985  13.487  23.974  0.00  0.00    +0.000 A 
ATOM     27  C   UNL     1      -3.006  12.697  23.353  0.00  0.00    +0.000 A 
BRANCH  26  28
ATOM     28  N   UNL     1      -5.343  13.112  23.860  0.00  0.00    +0.000 N 
ATOM     29  C   UNL     1      -6.355  13.754  23.190  0.00  0.00    +0.000 A 
ATOM     30  C   UNL     1      -7.442  12.930  23.332  0.00  0.00    +0.000 A 
ATOM     31  N   UNL     1      -7.096  11.839  24.067  0.00  0.00    +0.000 NA
ATOM     32  N   UNL     1      -5.812  11.952  24.382  0.00  0.00    +0.000 NA
ENDBRANCH  26  28
ENDBRANCH  19  22
ENDBRANCH   4  18
TORSDOF 6
ENDMDL
MODEL 5
REMARK VINA RESULT:      -8.3      2.359     11.526
REMARK  Name = 
REMARK  6 active torsions:
REMARK  status: ('A' for Active; 'I' for Inactive)
REMARK    1  A    between atoms: C_2  and  C_11
REMARK    2  A    between atoms: N_3  and  C_4
REMARK    3  A    between atoms: C_4  and  C_5
REMARK    4  A    between atoms: C_14  and  N_15
REMARK    5  A    between atoms: C_16  and  C_18
REMARK    6  A    between atoms: C_22  and  N_23
REMARK                            x       y       z     vdW  Elec       q    Type
REMARK                         _______ _______ _______ _____ _____    ______ ____
ROOT
ATOM      1  C   UNL     1       0.032  11.205  21.085  0.00  0.00    +0.000 A 
ATOM      2  C   UNL     1       0.261  11.099  19.713  0.00  0.00    +0.000 A 
ATOM      3  C   UNL     1       0.858   9.958  19.189  0.00  0.00    +0.000 A 
ATOM      4  C   UNL     1       1.220   8.883  20.003  0.00  0.00    +0.000 A 
ATOM      5  C   UNL     1       0.972   8.980  21.380  0.00  0.00    +0.000 A 
ATOM      6  C   UNL     1       0.373  10.131  21.919  0.00  0.00    +0.000 A 
ENDROOT
BRANCH   1   8
ATOM      7  O   UNL     1       0.144  13.293  22.173  0.00  0.00    +0.000 OA
ATOM      8  C   UNL     1      -0.573  12.445  21.654  0.00  0.00    +0.000 C 
ATOM      9  N   UNL     1      -1.941  12.562  21.536  0.00  0.00    +0.000 N 
ATOM     10  H   UNL     1      -2.490  11.828  21.115  0.00  0.00    +0.000 HD
BRANCH   9  11
ATOM     11  C   UNL     1      -2.665  13.666  22.114  0.00  0.00    +0.000 C 
BRANCH  11  12
ATOM     12  C   UNL     1      -3.905  13.197  22.833  0.00  0.00    +0.000 A 
ATOM     13  C   UNL     1      -5.158  13.222  22.213  0.00  0.00    +0.000 A 
ATOM     14  C   UNL     1      -6.255  12.734  22.910  0.00  0.00    +0.000 A 
ATOM     15  N   UNL     1      -6.190  12.238  24.164  0.00  0.00    +0.000 NA
ATOM     16  C   UNL     1      -4.973  12.225  24.746  0.00  0.00    +0.000 A 
ATOM     17  C   UNL     1      -3.820  12.687  24.133  0.00  0.00    +0.000 A 
ENDBRANCH  11  12
ENDBRANCH   9  11
ENDBRANCH   1   8
BRANCH   4  18
ATOM     18  N   UNL     1       1.831   7.715  19.492  0.00  0.00    +0.000 N 
ATOM     19  C   UNL     1       2.547   7.637  18.305  0.00  0.00    +0.000 C 
ATOM     20  O   UNL     1       2.726   8.536  17.490  0.00  0.00    +0.000 OA
ATOM     21  H   UNL     1       1.701   6.870  20.032  0.00  0.00    +0.000 HD
BRANCH  19  22
ATOM     22  C   UNL     1       3.188   6.338  17.991  0.00  0.00    +0.000 A 
ATOM     23  C   UNL     1       2.519   5.162  18.364  0.00  0.00    +0.000 A 
ATOM     24  C   UNL     1       2.968   3.922  17.917  0.00  0.00    +0.000 A 
ATOM     25  C   UNL     1       4.062   3.855  17.057  0.00  0.00    +0.000 A 
ATOM     26  C   UNL     1       4.722   5.028  16.664  0.00  0.00    +0.000 A 
ATOM     27  C   UNL     1       4.316   6.271  17.172  0.00  0.00    +0.000 A 
BRANCH  26  28
ATOM     28  N   UNL     1       5.736   4.987  15.679  0.00  0.00    +0.000 N 
ATOM     29  C   UNL     1       5.720   4.355  14.460  0.00  0.00    +0.000 A 
ATOM     30  C   UNL     1       6.911   4.700  13.875  0.00  0.00    +0.000 A 
ATOM     31  N   UNL     1       7.618   5.503  14.716  0.00  0.00    +0.000 NA
ATOM     32  N   UNL     1       6.893   5.679  15.813  0.00  0.00    +0.000 NA
ENDBRANCH  26  28
ENDBRANCH  19  22
ENDBRANCH   4  18
TORSDOF 6
ENDMDL
MODEL 6
REMARK VINA RESULT:      -8.3      0.777      1.171
REMARK  Name = 
REMARK  6 active torsions:
REMARK  status: ('A' for Active; 'I' for Inactive)
REMARK    1  A    between atoms: C_2  and  C_11
REMARK    2  A    between atoms: N_3  and  C_4
REMARK    3  A    between atoms: C_4  and  C_5
REMARK    4  A    between atoms: C_14  and  N_15
REMARK    5  A    between atoms: C_16  and  C_18
REMARK    6  A    between atoms: C_22  and  N_23
REMARK                            x       y       z     vdW  Elec       q    Type
REMARK                         _______ _______ _______ _____ _____    ______ ____
ROOT
ATOM      1  C   UNL     1       1.308   9.045  18.988  0.00  0.00    +0.000 A 
ATOM      2  C   UNL     1       1.103   8.753  20.337  0.00  0.00    +0.000 A 
ATOM      3  C   UNL     1       0.306   9.582  21.120  0.00  0.00    +0.000 A 
ATOM      4  C   UNL     1      -0.330  10.703  20.583  0.00  0.00    +0.000 A 
ATOM      5  C   UNL     1      -0.142  10.986  19.223  0.00  0.00    +0.000 A 
ATOM      6  C   UNL     1       0.666  10.157  18.426  0.00  0.00    +0.000 A 
ENDROOT
BRANCH   1   8
ATOM      7  O   UNL     1       2.663   8.611  17.110  0.00  0.00    +0.000 OA
ATOM      8  C   UNL     1       2.194   8.180  18.157  0.00  0.00    +0.000 C 
ATOM      9  N   UNL     1       2.448   6.919  18.652  0.00  0.00    +0.000 N 
ATOM     10  H   UNL     1       2.025   6.604  19.511  0.00  0.00    +0.000 HD
BRANCH   9  11
ATOM     11  C   UNL     1       3.218   5.950  17.913  0.00  0.00    +0.000 C 
BRANCH  11  12
ATOM     12  C   UNL     1       2.714   4.549  18.147  0.00  0.00    +0.000 A 
ATOM     13  C   UNL     1       3.397   3.437  17.648  0.00  0.00    +0.000 A 
ATOM     14  C   UNL     1       2.909   2.170  17.935  0.00  0.00    +0.000 A 
ATOM     15  N   UNL     1       1.800   1.940  18.670  0.00  0.00    +0.000 NA
ATOM     16  C   UNL     1       1.152   3.026  19.141  0.00  0.00    +0.000 A 
ATOM     17  C   UNL     1       1.561   4.329  18.909  0.00  0.00    +0.000 A 
ENDBRANCH  11  12
ENDBRANCH   9  11
ENDBRANCH   1   8
BRANCH   4  18
ATOM     18  N   UNL     1      -1.142  11.560  21.361  0.00  0.00    +0.000 N 
ATOM     19  C   UNL     1      -1.344  11.452  22.730  0.00  0.00    +0.000 C 
ATOM     20  O   UNL     1      -0.901  10.584  23.475  0.00  0.00    +0.000 OA
ATOM     21  H   UNL     1      -1.633  12.288  20.859  0.00  0.00    +0.000 HD
BRANCH  19  22
ATOM     22  C   UNL     1      -2.161  12.507  23.375  0.00  0.00    +0.000 A 
ATOM     23  C   UNL     1      -1.575  13.767  23.577  0.00  0.00    +0.000 A 
ATOM     24  C   UNL     1      -2.351  14.849  23.986  0.00  0.00    +0.000 A 
ATOM     25  C   UNL     1      -3.725  14.687  24.152  0.00  0.00    +0.000 A 
ATOM     26  C   UNL     1      -4.319  13.436  23.932  0.00  0.00    +0.000 A 
ATOM     27  C   UNL     1      -3.528  12.329  23.591  0.00  0.00    +0.000 A 
BRANCH  26  28
ATOM     28  N   UNL     1      -5.725  13.295  23.951  0.00  0.00    +0.000 N 
ATOM     29  C   UNL     1      -6.686  14.266  23.806  0.00  0.00    +0.000 A 
ATOM     30  C   UNL     1      -7.875  13.584  23.824  0.00  0.00    +0.000 A 
ATOM     31  N   UNL     1      -7.636  12.254  23.981  0.00  0.00    +0.000 NA
ATOM     32  N   UNL     1      -6.323  12.083  24.053  0.00  0.00    +0.000 NA
ENDBRANCH  26  28
ENDBRANCH  19  22
ENDBRANCH   4  18
TORSDOF 6
ENDMDL
MODEL 7
REMARK VINA RESULT:      -8.2      4.129      5.761
REMARK  Name = 
REMARK  6 active torsions:
REMARK  status: ('A' for Active; 'I' for Inactive)
REMARK    1  A    between atoms: C_2  and  C_11
REMARK    2  A    between atoms: N_3  and  C_4
REMARK    3  A    between atoms: C_4  and  C_5
REMARK    4  A    between atoms: C_14  and  N_15
REMARK    5  A    between atoms: C_16  and  C_18
REMARK    6  A    between atoms: C_22  and  N_23
REMARK                            x       y       z     vdW  Elec       q    Type
REMARK                         _______ _______ _______ _____ _____    ______ ____
ROOT
ATOM      1  C   UNL     1       2.299   7.341  19.088  0.00  0.00    +0.000 A 
ATOM      2  C   UNL     1       1.709   7.776  20.275  0.00  0.00    +0.000 A 
ATOM      3  C   UNL     1       1.085   9.017  20.333  0.00  0.00    +0.000 A 
ATOM      4  C   UNL     1       1.006   9.848  19.213  0.00  0.00    +0.000 A 
ATOM      5  C   UNL     1       1.580   9.404  18.014  0.00  0.00    +0.000 A 
ATOM      6  C   UNL     1       2.217   8.152  17.947  0.00  0.00    +0.000 A 
ENDROOT
BRANCH   1   8
ATOM      7  O   UNL     1       3.560   5.590  20.035  0.00  0.00    +0.000 OA
ATOM      8  C   UNL     1       3.003   6.028  19.034  0.00  0.00    +0.000 C 
ATOM      9  N   UNL     1       2.962   5.365  17.826  0.00  0.00    +0.000 N 
ATOM     10  H   UNL     1       2.505   5.775  17.026  0.00  0.00    +0.000 HD
BRANCH   9  11
ATOM     11  C   UNL     1       3.670   4.129  17.609  0.00  0.00    +0.000 C 
BRANCH  11  12
ATOM     12  C   UNL     1       5.048   4.372  17.048  0.00  0.00    +0.000 A 
ATOM     13  C   UNL     1       5.256   4.534  15.675  0.00  0.00    +0.000 A 
ATOM     14  C   UNL     1       6.541   4.801  15.223  0.00  0.00    +0.000 A 
ATOM     15  N   UNL     1       7.615   4.910  16.032  0.00  0.00    +0.000 NA
ATOM     16  C   UNL     1       7.396   4.748  17.353  0.00  0.00    +0.000 A 
ATOM     17  C   UNL     1       6.151   4.480  17.901  0.00  0.00    +0.000 A 
ENDBRANCH  11  12
ENDBRANCH   9  11
ENDBRANCH   1   8
BRANCH   4  18
ATOM     18  N   UNL     1       0.379  11.115  19.251  0.00  0.00    +0.000 N 
ATOM     19  C   UNL     1       0.748  12.171  20.073  0.00  0.00    +0.000 C 
ATOM     20  O   UNL     1       1.633  12.169  20.923  0.00  0.00    +0.000 OA
ATOM     21  H   UNL     1      -0.422  11.235  18.646  0.00  0.00    +0.000 HD
BRANCH  19  22
ATOM     22  C   UNL     1       0.020  13.449  19.895  0.00  0.00    +0.000 A 
ATOM     23  C   UNL     1      -0.991  13.768  20.814  0.00  0.00    +0.000 A 
ATOM     24  C   UNL     1      -1.564  15.037  20.821  0.00  0.00    +0.000 A 
ATOM     25  C   UNL     1      -1.097  16.008  19.937  0.00  0.00    +0.000 A 
ATOM     26  C   UNL     1      -0.073  15.702  19.031  0.00  0.00    +0.000 A 
ATOM     27  C   UNL     1       0.454  14.403  18.973  0.00  0.00    +0.000 A 
BRANCH  26  28
ATOM     28  N   UNL     1       0.510  16.715  18.235  0.00  0.00    +0.000 N 
ATOM     29  C   UNL     1      -0.111  17.739  17.562  0.00  0.00    +0.000 A 
ATOM     30  C   UNL     1       0.914  18.471  17.021  0.00  0.00    +0.000 A 
ATOM     31  N   UNL     1       2.105  17.902  17.352  0.00  0.00    +0.000 NA
ATOM     32  N   UNL     1       1.853  16.834  18.096  0.00  0.00    +0.000 NA
ENDBRANCH  26  28
ENDBRANCH  19  22
ENDBRANCH   4  18
TORSDOF 6
ENDMDL
MODEL 8
REMARK VINA RESULT:      -8.2      8.238     10.607
REMARK  Name = 
REMARK  6 active torsions:
REMARK  status: ('A' for Active; 'I' for Inactive)
REMARK    1  A    between atoms: C_2  and  C_11
REMARK    2  A    between atoms: N_3  and  C_4
REMARK    3  A    between atoms: C_4  and  C_5
REMARK    4  A    between atoms: C_14  and  N_15
REMARK    5  A    between atoms: C_16  and  C_18
REMARK    6  A    between atoms: C_22  and  N_23
REMARK                            x       y       z     vdW  Elec       q    Type
REMARK                         _______ _______ _______ _____ _____    ______ ____
ROOT
ATOM      1  C   UNL     1       6.431   5.750  17.976  0.00  0.00    +0.000 A 
ATOM      2  C   UNL     1       7.621   5.955  18.674  0.00  0.00    +0.000 A 
ATOM      3  C   UNL     1       8.275   7.180  18.600  0.00  0.00    +0.000 A 
ATOM      4  C   UNL     1       7.755   8.242  17.857  0.00  0.00    +0.000 A 
ATOM      5  C   UNL     1       6.548   8.045  17.171  0.00  0.00    +0.000 A 
ATOM      6  C   UNL     1       5.883   6.807  17.236  0.00  0.00    +0.000 A 
ENDROOT
BRANCH   1   8
ATOM      7  O   UNL     1       5.461   3.847  16.980  0.00  0.00    +0.000 OA
ATOM      8  C   UNL     1       5.749   4.424  18.022  0.00  0.00    +0.000 C 
ATOM      9  N   UNL     1       5.499   3.914  19.278  0.00  0.00    +0.000 N 
ATOM     10  H   UNL     1       5.741   4.435  20.107  0.00  0.00    +0.000 HD
BRANCH   9  11
ATOM     11  C   UNL     1       4.774   2.684  19.471  0.00  0.00    +0.000 C 
BRANCH  11  12
ATOM     12  C   UNL     1       3.290   2.929  19.579  0.00  0.00    +0.000 A 
ATOM     13  C   UNL     1       2.773   3.890  20.452  0.00  0.00    +0.000 A 
ATOM     14  C   UNL     1       1.401   4.102  20.473  0.00  0.00    +0.000 A 
ATOM     15  N   UNL     1       0.524   3.427  19.700  0.00  0.00    +0.000 NA
ATOM     16  C   UNL     1       1.041   2.502  18.865  0.00  0.00    +0.000 A 
ATOM     17  C   UNL     1       2.395   2.220  18.771  0.00  0.00    +0.000 A 
ENDBRANCH  11  12
ENDBRANCH   9  11
ENDBRANCH   1   8
BRANCH   4  18
ATOM     18  N   UNL     1       8.404   9.494  17.765  0.00  0.00    +0.000 N 
ATOM     19  C   UNL     1       8.978  10.181  18.826  0.00  0.00    +0.000 C 
ATOM     20  O   UNL     1       8.977   9.850  20.007  0.00  0.00    +0.000 OA
ATOM     21  H   UNL     1       8.416   9.926  16.851  0.00  0.00    +0.000 HD
BRANCH  19  22
ATOM     22  C   UNL     1       9.692  11.440  18.505  0.00  0.00    +0.000 A 
ATOM     23  C   UNL     1      10.842  11.362  17.704  0.00  0.00    +0.000 A 
ATOM     24  C   UNL     1      11.433  12.519  17.203  0.00  0.00    +0.000 A 
ATOM     25  C   UNL     1      10.849  13.758  17.462  0.00  0.00    +0.000 A 
ATOM     26  C   UNL     1       9.689  13.840  18.244  0.00  0.00    +0.000 A 
ATOM     27  C   UNL     1       9.135  12.682  18.811  0.00  0.00    +0.000 A 
BRANCH  26  28
ATOM     28  N   UNL     1       9.006  15.070  18.391  0.00  0.00    +0.000 N 
ATOM     29  C   UNL     1       9.353  16.305  17.901  0.00  0.00    +0.000 A 
ATOM     30  C   UNL     1       8.314  17.125  18.261  0.00  0.00    +0.000 A 
ATOM     31  N   UNL     1       7.383  16.408  18.947  0.00  0.00    +0.000 NA
ATOM     32  N   UNL     1       7.808  15.154  19.018  0.00  0.00    +0.000 NA
ENDBRANCH  26  28
ENDBRANCH  19  22
ENDBRANCH   4  18
TORSDOF 6
ENDMDL
MODEL 9
REMARK VINA RESULT:      -8.1      2.541     11.406
REMARK  Name = 
REMARK  6 active torsions:
REMARK  status: ('A' for Active; 'I' for Inactive)
REMARK    1  A    between atoms: C_2  and  C_11
REMARK    2  A    between atoms: N_3  and  C_4
REMARK    3  A    between atoms: C_4  and  C_5
REMARK    4  A    between atoms: C_14  and  N_15
REMARK    5  A    between atoms: C_16  and  C_18
REMARK    6  A    between atoms: C_22  and  N_23
REMARK                            x       y       z     vdW  Elec       q    Type
REMARK                         _______ _______ _______ _____ _____    ______ ____
ROOT
ATOM      1  C   UNL     1       0.474  10.592  20.601  0.00  0.00    +0.000 A 
ATOM      2  C   UNL     1       0.812   9.585  21.506  0.00  0.00    +0.000 A 
ATOM      3  C   UNL     1       1.424   8.419  21.060  0.00  0.00    +0.000 A 
ATOM      4  C   UNL     1       1.740   8.229  19.714  0.00  0.00    +0.000 A 
ATOM      5  C   UNL     1       1.420   9.247  18.805  0.00  0.00    +0.000 A 
ATOM      6  C   UNL     1       0.797  10.428  19.247  0.00  0.00    +0.000 A 
ENDROOT
BRANCH   1   8
ATOM      7  O   UNL     1       0.024  12.277  22.185  0.00  0.00    +0.000 OA
ATOM      8  C   UNL     1      -0.218  11.826  21.072  0.00  0.00    +0.000 C 
ATOM      9  N   UNL     1      -1.099  12.404  20.183  0.00  0.00    +0.000 N 
ATOM     10  H   UNL     1      -1.277  11.986  19.283  0.00  0.00    +0.000 HD
BRANCH   9  11
ATOM     11  C   UNL     1      -1.898  13.550  20.537  0.00  0.00    +0.000 C 
BRANCH  11  12
ATOM     12  C   UNL     1      -3.232  13.139  21.107  0.00  0.00    +0.000 A 
ATOM     13  C   UNL     1      -3.480  13.183  22.482  0.00  0.00    +0.000 A 
ATOM     14  C   UNL     1      -4.743  12.836  22.943  0.00  0.00    +0.000 A 
ATOM     15  N   UNL     1      -5.756  12.449  22.139  0.00  0.00    +0.000 NA
ATOM     16  C   UNL     1      -5.497  12.410  20.816  0.00  0.00    +0.000 A 
ATOM     17  C   UNL     1      -4.271  12.739  20.260  0.00  0.00    +0.000 A 
ENDBRANCH  11  12
ENDBRANCH   9  11
ENDBRANCH   1   8
BRANCH   4  18
ATOM     18  N   UNL     1       2.360   7.050  19.238  0.00  0.00    +0.000 N 
ATOM     19  C   UNL     1       2.174   5.778  19.761  0.00  0.00    +0.000 C 
ATOM     20  O   UNL     1       1.494   5.472  20.735  0.00  0.00    +0.000 OA
ATOM     21  H   UNL     1       3.011   7.165  18.473  0.00  0.00    +0.000 HD
BRANCH  19  22
ATOM     22  C   UNL     1       2.846   4.658  19.061  0.00  0.00    +0.000 A 
ATOM     23  C   UNL     1       2.137   3.456  18.903  0.00  0.00    +0.000 A 
ATOM     24  C   UNL     1       2.633   2.447  18.081  0.00  0.00    +0.000 A 
ATOM     25  C   UNL     1       3.817   2.653  17.376  0.00  0.00    +0.000 A 
ATOM     26  C   UNL     1       4.519   3.859  17.513  0.00  0.00    +0.000 A 
ATOM     27  C   UNL     1       4.059   4.847  18.398  0.00  0.00    +0.000 A 
BRANCH  26  28
ATOM     28  N   UNL     1       5.637   4.138  16.695  0.00  0.00    +0.000 N 
ATOM     29  C   UNL     1       5.686   4.274  15.329  0.00  0.00    +0.000 A 
ATOM     30  C   UNL     1       6.986   4.617  15.061  0.00  0.00    +0.000 A 
ATOM     31  N   UNL     1       7.691   4.679  16.222  0.00  0.00    +0.000 NA
ATOM     32  N   UNL     1       6.862   4.390  17.217  0.00  0.00    +0.000 NA
ENDBRANCH  26  28
ENDBRANCH  19  22
ENDBRANCH   4  18
TORSDOF 6
ENDMDL
