MODEL 1
REMARK VINA RESULT:      -9.4      0.000      0.000
REMARK  Name = 
REMARK  5 active torsions:
REMARK  status: ('A' for Active; 'I' for Inactive)
REMARK    1  A    between atoms: C_2  and  C_4
REMARK    2  A    between atoms: C_9  and  N_10
REMARK    3  A    between atoms: C_11  and  C_13
REMARK    4  A    between atoms: C_13  and  O_14
REMARK    5  A    between atoms: O_14  and  C_15
REMARK                            x       y       z     vdW  Elec       q    Type
REMARK                         _______ _______ _______ _____ _____    ______ ____
ROOT
ATOM      1  N   UNL     1       5.859   4.645  19.285  0.00  0.00    +0.000 N 
ATOM      2  C   UNL     1       6.869   5.603  19.074  0.00  0.00    +0.000 C 
ATOM      3  O   UNL     1       7.647   5.503  20.072  0.00  0.00    +0.000 OA
ATOM      4  H   UNL     1       6.091   4.189  20.174  0.00  0.00    +0.000 HD
ENDROOT
BRANCH   1  10
ATOM      5  C   UNL     1       3.977   2.824  19.322  0.00  0.00    +0.000 A 
ATOM      6  C   UNL     1       2.907   2.169  18.621  0.00  0.00    +0.000 A 
ATOM      7  C   UNL     1       2.428   2.700  17.434  0.00  0.00    +0.000 A 
ATOM      8  C   UNL     1       3.033   3.832  16.927  0.00  0.00    +0.000 A 
ATOM      9  C   UNL     1       4.158   4.430  17.550  0.00  0.00    +0.000 A 
ATOM     10  C   UNL     1       4.681   3.976  18.752  0.00  0.00    +0.000 A 
BRANCH   5  12
ATOM     11  N   UNL     1       5.355   1.304  20.726  0.00  0.00    +0.000 N 
ATOM     12  C   UNL     1       4.219   2.129  20.632  0.00  0.00    +0.000 C 
ATOM     13  O   UNL     1       3.518   2.285  21.592  0.00  0.00    +0.000 OA
ATOM     14  H   UNL     1       5.628   0.926  21.629  0.00  0.00    +0.000 HD
ATOM     15  H   UNL     1       5.934   1.017  19.936  0.00  0.00    +0.000 HD
ENDBRANCH   5  12
ENDBRANCH   1  10
BRANCH   2  16
ATOM     16  C   UNL     1       7.535   6.849  17.930  0.00  0.00    +0.000 C 
BRANCH  16  17
ATOM     17  O   UNL     1       7.627   8.246  17.404  0.00  0.00    +0.000 OA
BRANCH  17  18
ATOM     18  C   UNL     1       8.298   9.383  18.025  0.00  0.00    +0.000 A 
ATOM     19  C   UNL     1       9.010   9.325  19.230  0.00  0.00    +0.000 A 
ATOM     20  C   UNL     1       9.700  10.457  19.755  0.00  0.00    +0.000 A 
ATOM     21  C   UNL     1       9.715  11.617  18.980  0.00  0.00    +0.000 A 
ATOM     22  O   UNL     1      10.873  12.281  18.732  0.00  0.00    +0.000 OA
ATOM     23  C   UNL     1      10.652  13.144  17.692  0.00  0.00    +0.000 A 
ATOM     24  C   UNL     1       9.291  13.424  17.688  0.00  0.00    +0.000 A 
ATOM     25  C   UNL     1       8.779  12.011  18.045  0.00  0.00    +0.000 A 
ATOM     26  C   UNL     1       8.258  10.746  17.408  0.00  0.00    +0.000 A 
ATOM     27  C   UNL     1       9.080  14.934  18.315  0.00  0.00    +0.000 C 
ATOM     28  C   UNL     1      10.376  15.877  18.257  0.00  0.00    +0.000 C 
ATOM     29  C   UNL     1      11.644  15.096  18.614  0.00  0.00    +0.000 C 
ATOM     30  C   UNL     1      11.815  14.064  17.507  0.00  0.00    +0.000 C 
ENDBRANCH  17  18
ENDBRANCH  16  17
ENDBRANCH   2  16
TORSDOF 5
ENDMDL
MODEL 2
REMARK VINA RESULT:      -9.2      5.977      7.806
REMARK  Name = 
REMARK  5 active torsions:
REMARK  status: ('A' for Active; 'I' for Inactive)
REMARK    1  A    between atoms: C_2  and  C_4
REMARK    2  A    between atoms: C_9  and  N_10
REMARK    3  A    between atoms: C_11  and  C_13
REMARK    4  A    between atoms: C_13  and  O_14
REMARK    5  A    between atoms: O_14  and  C_15
REMARK                            x       y       z     vdW  Elec       q    Type
REMARK                         _______ _______ _______ _____ _____    ______ ____
ROOT
ATOM      1  N   UNL     1       4.281   3.127  17.312  0.00  0.00    +0.000 N 
ATOM      2  C   UNL     1       3.405   3.259  18.407  0.00  0.00    +0.000 C 
ATOM      3  O   UNL     1       2.889   2.111  18.570  0.00  0.00    +0.000 OA
ATOM      4  H   UNL     1       4.207   2.148  17.015  0.00  0.00    +0.000 HD
ENDROOT
BRANCH   1  10
ATOM      5  C   UNL     1       6.391   4.625  16.911  0.00  0.00    +0.000 A 
ATOM      6  C   UNL     1       7.242   5.296  15.967  0.00  0.00    +0.000 A 
ATOM      7  C   UNL     1       7.123   5.028  14.613  0.00  0.00    +0.000 A 
ATOM      8  C   UNL     1       6.145   4.148  14.199  0.00  0.00    +0.000 A 
ATOM      9  C   UNL     1       5.227   3.558  15.105  0.00  0.00    +0.000 A 
ATOM     10  C   UNL     1       5.295   3.755  16.478  0.00  0.00    +0.000 A 
BRANCH   5  12
ATOM     11  N   UNL     1       7.642   6.109  18.464  0.00  0.00    +0.000 N 
ATOM     12  C   UNL     1       6.805   4.989  18.309  0.00  0.00    +0.000 C 
ATOM     13  O   UNL     1       6.418   4.398  19.278  0.00  0.00    +0.000 OA
ATOM     14  H   UNL     1       7.834   6.467  19.396  0.00  0.00    +0.000 HD
ATOM     15  H   UNL     1       8.116   6.594  17.701  0.00  0.00    +0.000 HD
ENDBRANCH   5  12
ENDBRANCH   1  10
BRANCH   2  16
ATOM     16  C   UNL     1       2.785   4.374  19.702  0.00  0.00    +0.000 C 
BRANCH  16  17
ATOM     17  O   UNL     1       2.685   5.715  20.356  0.00  0.00    +0.000 OA
BRANCH  17  18
ATOM     18  C   UNL     1       2.305   6.978  19.732  0.00  0.00    +0.000 A 
ATOM     19  C   UNL     1       2.688   7.376  18.444  0.00  0.00    +0.000 A 
ATOM     20  C   UNL     1       2.232   8.595  17.862  0.00  0.00    +0.000 A 
ATOM     21  C   UNL     1       1.312   9.350  18.591  0.00  0.00    +0.000 A 
ATOM     22  O   UNL     1       0.173   9.814  18.017  0.00  0.00    +0.000 OA
ATOM     23  C   UNL     1      -0.678  10.200  19.017  0.00  0.00    +0.000 A 
ATOM     24  C   UNL     1       0.112  10.509  20.117  0.00  0.00    +0.000 A 
ATOM     25  C   UNL     1       1.150   9.376  19.962  0.00  0.00    +0.000 A 
ATOM     26  C   UNL     1       1.463   7.984  20.453  0.00  0.00    +0.000 A 
ATOM     27  C   UNL     1       0.188  12.151  20.244  0.00  0.00    +0.000 C 
ATOM     28  C   UNL     1      -1.001  12.942  19.514  0.00  0.00    +0.000 C 
ATOM     29  C   UNL     1      -1.326  12.317  18.154  0.00  0.00    +0.000 C 
ATOM     30  C   UNL     1      -1.861  10.924  18.459  0.00  0.00    +0.000 C 
ENDBRANCH  17  18
ENDBRANCH  16  17
ENDBRANCH   2  16
TORSDOF 5
ENDMDL
MODEL 3
REMARK VINA RESULT:      -8.9      3.247     10.664
REMARK  Name = 
REMARK  5 active torsions:
REMARK  status: ('A' for Active; 'I' for Inactive)
REMARK    1  A    between atoms: C_2  and  C_4
REMARK    2  A    between atoms: C_9  and  N_10
REMARK    3  A    between atoms: C_11  and  C_13
REMARK    4  A    between atoms: C_13  and  O_14
REMARK    5  A    between atoms: O_14  and  C_15
REMARK                            x       y       z     vdW  Elec       q    Type
REMARK                         _______ _______ _______ _____ _____    ______ ____
ROOT
ATOM      1  N   UNL     1       9.953  12.035  19.043  0.00  0.00    +0.000 N 
ATOM      2  C   UNL     1       9.277  10.801  18.969  0.00  0.00    +0.000 C 
ATOM      3  O   UNL     1       9.310  10.324  20.144  0.00  0.00    +0.000 OA
ATOM      4  H   UNL     1      10.244  12.132  20.021  0.00  0.00    +0.000 HD
ENDROOT
BRANCH   1  10
ATOM      5  C   UNL     1       9.786  14.598  18.531  0.00  0.00    +0.000 A 
ATOM      6  C   UNL     1      10.167  15.694  17.683  0.00  0.00    +0.000 A 
ATOM      7  C   UNL     1      11.179  15.531  16.752  0.00  0.00    +0.000 A 
ATOM      8  C   UNL     1      11.768  14.290  16.629  0.00  0.00    +0.000 A 
ATOM      9  C   UNL     1      11.333  13.169  17.382  0.00  0.00    +0.000 A 
ATOM     10  C   UNL     1      10.344  13.255  18.353  0.00  0.00    +0.000 A 
BRANCH   5  12
ATOM     11  N   UNL     1       7.449  14.600  19.378  0.00  0.00    +0.000 N 
ATOM     12  C   UNL     1       8.767  15.066  19.531  0.00  0.00    +0.000 C 
ATOM     13  O   UNL     1       9.044  15.771  20.461  0.00  0.00    +0.000 OA
ATOM     14  H   UNL     1       6.764  14.783  20.106  0.00  0.00    +0.000 HD
ATOM     15  H   UNL     1       7.097  14.103  18.559  0.00  0.00    +0.000 HD
ENDBRANCH   5  12
ENDBRANCH   1  10
BRANCH   2  16
ATOM     16  C   UNL     1       8.329   9.675  17.902  0.00  0.00    +0.000 C 
BRANCH  16  17
ATOM     17  O   UNL     1       8.092   8.343  17.266  0.00  0.00    +0.000 OA
BRANCH  17  18
ATOM     18  C   UNL     1       7.269   7.252  17.777  0.00  0.00    +0.000 A 
ATOM     19  C   UNL     1       7.701   6.298  18.707  0.00  0.00    +0.000 A 
ATOM     20  C   UNL     1       6.830   5.293  19.220  0.00  0.00    +0.000 A 
ATOM     21  C   UNL     1       5.492   5.340  18.826  0.00  0.00    +0.000 A 
ATOM     22  O   UNL     1       4.488   5.262  19.737  0.00  0.00    +0.000 OA
ATOM     23  C   UNL     1       3.333   5.679  19.131  0.00  0.00    +0.000 A 
ATOM     24  C   UNL     1       3.497   5.463  17.769  0.00  0.00    +0.000 A 
ATOM     25  C   UNL     1       4.981   5.877  17.661  0.00  0.00    +0.000 A 
ATOM     26  C   UNL     1       5.858   7.056  17.317  0.00  0.00    +0.000 A 
ATOM     27  C   UNL     1       2.627   4.124  17.357  0.00  0.00    +0.000 C 
ATOM     28  C   UNL     1       1.447   3.745  18.375  0.00  0.00    +0.000 C 
ATOM     29  C   UNL     1       1.895   3.921  19.830  0.00  0.00    +0.000 C 
ATOM     30  C   UNL     1       2.149   5.413  20.003  0.00  0.00    +0.000 C 
ENDBRANCH  17  18
ENDBRANCH  16  17
ENDBRANCH   2  16
TORSDOF 5
ENDMDL
MODEL 4
REMARK VINA RESULT:      -8.9      7.273      9.940
REMARK  Name = 
REMARK  5 active torsions:
REMARK  status: ('A' for Active; 'I' for Inactive)
REMARK    1  A    between atoms: C_2  and  C_4
REMARK    2  A    between atoms: C_9  and  N_10
REMARK    3  A    between atoms: C_11  and  C_13
REMARK    4  A    between atoms: C_13  and  O_14
REMARK    5  A    between atoms: O_14  and  C_15
REMARK                            x       y       z     vdW  Elec       q    Type
REMARK                         _______ _______ _______ _____ _____    ______ ____
ROOT
ATOM      1  N   UNL     1      -1.034  11.144  20.436  0.00  0.00    +0.000 N 
ATOM      2  C   UNL     1      -0.136  10.476  21.292  0.00  0.00    +0.000 C 
ATOM      3  O   UNL     1      -0.009  11.229  22.305  0.00  0.00    +0.000 OA
ATOM      4  H   UNL     1      -1.282  12.013  20.919  0.00  0.00    +0.000 HD
ENDROOT
BRANCH   1  10
ATOM      5  C   UNL     1      -3.103  11.741  18.945  0.00  0.00    +0.000 A 
ATOM      6  C   UNL     1      -3.837  11.498  17.734  0.00  0.00    +0.000 A 
ATOM      7  C   UNL     1      -3.273  10.740  16.721  0.00  0.00    +0.000 A 
ATOM      8  C   UNL     1      -2.024  10.191  16.926  0.00  0.00    +0.000 A 
ATOM      9  C   UNL     1      -1.330  10.332  18.155  0.00  0.00    +0.000 A 
ATOM     10  C   UNL     1      -1.814  11.095  19.208  0.00  0.00    +0.000 A 
BRANCH   5  12
ATOM     11  N   UNL     1      -3.227  13.871  20.220  0.00  0.00    +0.000 N 
ATOM     12  C   UNL     1      -3.874  12.688  19.820  0.00  0.00    +0.000 C 
ATOM     13  O   UNL     1      -5.013  12.496  20.144  0.00  0.00    +0.000 OA
ATOM     14  H   UNL     1      -3.756  14.597  20.696  0.00  0.00    +0.000 HD
ATOM     15  H   UNL     1      -2.232  14.062  20.097  0.00  0.00    +0.000 HD
ENDBRANCH   5  12
ENDBRANCH   1  10
BRANCH   2  16
ATOM     16  C   UNL     1       0.836   8.963  21.555  0.00  0.00    +0.000 C 
BRANCH  16  17
ATOM     17  O   UNL     1       1.424   7.670  21.086  0.00  0.00    +0.000 OA
BRANCH  17  18
ATOM     18  C   UNL     1       2.118   7.419  19.827  0.00  0.00    +0.000 A 
ATOM     19  C   UNL     1       2.119   8.291  18.731  0.00  0.00    +0.000 A 
ATOM     20  C   UNL     1       2.870   8.020  17.550  0.00  0.00    +0.000 A 
ATOM     21  C   UNL     1       3.683   6.886  17.551  0.00  0.00    +0.000 A 
ATOM     22  O   UNL     1       4.981   6.951  17.159  0.00  0.00    +0.000 OA
ATOM     23  C   UNL     1       5.609   5.812  17.586  0.00  0.00    +0.000 A 
ATOM     24  C   UNL     1       4.628   4.838  17.713  0.00  0.00    +0.000 A 
ATOM     25  C   UNL     1       3.509   5.733  18.290  0.00  0.00    +0.000 A 
ATOM     26  C   UNL     1       2.893   6.158  19.601  0.00  0.00    +0.000 A 
ATOM     27  C   UNL     1       4.755   3.815  16.426  0.00  0.00    +0.000 C 
ATOM     28  C   UNL     1       6.185   3.816  15.700  0.00  0.00    +0.000 C 
ATOM     29  C   UNL     1       6.739   5.239  15.575  0.00  0.00    +0.000 C 
ATOM     30  C   UNL     1       6.982   5.712  17.003  0.00  0.00    +0.000 C 
ENDBRANCH  17  18
ENDBRANCH  16  17
ENDBRANCH   2  16
TORSDOF 5
ENDMDL
MODEL 5
REMARK VINA RESULT:      -8.9      1.653      2.042
REMARK  Name = 
REMARK  5 active torsions:
REMARK  status: ('A' for Active; 'I' for Inactive)
REMARK    1  A    between atoms: C_2  and  C_4
REMARK    2  A    between atoms: C_9  and  N_10
REMARK    3  A    between atoms: C_11  and  C_13
REMARK    4  A    between atoms: C_13  and  O_14
REMARK    5  A    between atoms: O_14  and  C_15
REMARK                            x       y       z     vdW  Elec       q    Type
REMARK                         _______ _______ _______ _____ _____    ______ ____
ROOT
ATOM      1  N   UNL     1       5.435   4.867  19.382  0.00  0.00    +0.000 N 
ATOM      2  C   UNL     1       6.522   5.692  19.030  0.00  0.00    +0.000 C 
ATOM      3  O   UNL     1       7.368   5.557  19.967  0.00  0.00    +0.000 OA
ATOM      4  H   UNL     1       5.693   4.437  20.276  0.00  0.00    +0.000 HD
ENDROOT
BRANCH   1  10
ATOM      5  C   UNL     1       2.826   4.913  19.160  0.00  0.00    +0.000 A 
ATOM      6  C   UNL     1       1.621   4.193  18.854  0.00  0.00    +0.000 A 
ATOM      7  C   UNL     1       1.691   2.943  18.262  0.00  0.00    +0.000 A 
ATOM      8  C   UNL     1       2.935   2.396  18.023  0.00  0.00    +0.000 A 
ATOM      9  C   UNL     1       4.133   3.045  18.414  0.00  0.00    +0.000 A 
ATOM     10  C   UNL     1       4.150   4.309  18.989  0.00  0.00    +0.000 A 
BRANCH   5  12
ATOM     11  N   UNL     1       1.571   6.362  20.743  0.00  0.00    +0.000 N 
ATOM     12  C   UNL     1       2.478   6.283  19.671  0.00  0.00    +0.000 C 
ATOM     13  O   UNL     1       2.971   7.286  19.234  0.00  0.00    +0.000 OA
ATOM     14  H   UNL     1       1.415   7.254  21.204  0.00  0.00    +0.000 HD
ATOM     15  H   UNL     1       1.014   5.582  21.095  0.00  0.00    +0.000 HD
ENDBRANCH   5  12
ENDBRANCH   1  10
BRANCH   2  16
ATOM     16  C   UNL     1       7.217   6.791  17.761  0.00  0.00    +0.000 C 
BRANCH  16  17
ATOM     17  O   UNL     1       7.527   8.147  17.211  0.00  0.00    +0.000 OA
BRANCH  17  18
ATOM     18  C   UNL     1       8.218   9.240  17.888  0.00  0.00    +0.000 A 
ATOM     19  C   UNL     1       8.900   9.117  19.105  0.00  0.00    +0.000 A 
ATOM     20  C   UNL     1       9.613  10.206  19.686  0.00  0.00    +0.000 A 
ATOM     21  C   UNL     1       9.683  11.392  18.953  0.00  0.00    +0.000 A 
ATOM     22  O   UNL     1      10.867  12.026  18.755  0.00  0.00    +0.000 OA
ATOM     23  C   UNL     1      10.698  12.931  17.741  0.00  0.00    +0.000 A 
ATOM     24  C   UNL     1       9.348  13.255  17.717  0.00  0.00    +0.000 A 
ATOM     25  C   UNL     1       8.782  11.848  18.012  0.00  0.00    +0.000 A 
ATOM     26  C   UNL     1       8.236  10.624  17.318  0.00  0.00    +0.000 A 
ATOM     27  C   UNL     1       9.170  14.749  18.392  0.00  0.00    +0.000 C 
ATOM     28  C   UNL     1      10.496  15.651  18.397  0.00  0.00    +0.000 C 
ATOM     29  C   UNL     1      11.730  14.817  18.754  0.00  0.00    +0.000 C 
ATOM     30  C   UNL     1      11.894  13.818  17.616  0.00  0.00    +0.000 C 
ENDBRANCH  17  18
ENDBRANCH  16  17
ENDBRANCH   2  16
TORSDOF 5
ENDMDL
MODEL 6
REMARK VINA RESULT:      -8.8      5.270      8.142
REMARK  Name = 
REMARK  5 active torsions:
REMARK  status: ('A' for Active; 'I' for Inactive)
REMARK    1  A    between atoms: C_2  and  C_4
REMARK    2  A    between atoms: C_9  and  N_10
REMARK    3  A    between atoms: C_11  and  C_13
REMARK    4  A    between atoms: C_13  and  O_14
REMARK    5  A    between atoms: O_14  and  C_15
REMARK                            x       y       z     vdW  Elec       q    Type
REMARK                         _______ _______ _______ _____ _____    ______ ____
ROOT
ATOM      1  N   UNL     1       5.746   4.084  18.990  0.00  0.00    +0.000 N 
ATOM      2  C   UNL     1       4.568   3.602  19.594  0.00  0.00    +0.000 C 
ATOM      3  O   UNL     1       4.756   2.358  19.759  0.00  0.00    +0.000 OA
ATOM      4  H   UNL     1       6.358   3.268  18.887  0.00  0.00    +0.000 HD
ENDROOT
BRANCH   1  10
ATOM      5  C   UNL     1       6.377   5.915  17.227  0.00  0.00    +0.000 A 
ATOM      6  C   UNL     1       7.275   6.968  16.838  0.00  0.00    +0.000 A 
ATOM      7  C   UNL     1       8.196   7.464  17.746  0.00  0.00    +0.000 A 
ATOM      8  C   UNL     1       8.260   6.892  19.000  0.00  0.00    +0.000 A 
ATOM      9  C   UNL     1       7.456   5.783  19.366  0.00  0.00    +0.000 A 
ATOM     10  C   UNL     1       6.492   5.244  18.525  0.00  0.00    +0.000 A 
BRANCH   5  12
ATOM     11  N   UNL     1       5.067   6.731  15.278  0.00  0.00    +0.000 N 
ATOM     12  C   UNL     1       5.401   5.651  16.116  0.00  0.00    +0.000 C 
ATOM     13  O   UNL     1       4.942   4.565  15.897  0.00  0.00    +0.000 OA
ATOM     14  H   UNL     1       4.519   6.564  14.439  0.00  0.00    +0.000 HD
ATOM     15  H   UNL     1       5.308   7.705  15.459  0.00  0.00    +0.000 HD
ENDBRANCH   5  12
ENDBRANCH   1  10
BRANCH   2  16
ATOM     16  C   UNL     1       2.949   4.051  20.286  0.00  0.00    +0.000 C 
BRANCH  16  17
ATOM     17  O   UNL     1       1.916   5.054  20.691  0.00  0.00    +0.000 OA
BRANCH  17  18
ATOM     18  C   UNL     1       1.800   6.436  20.240  0.00  0.00    +0.000 A 
ATOM     19  C   UNL     1       2.473   6.971  19.134  0.00  0.00    +0.000 A 
ATOM     20  C   UNL     1       2.269   8.315  18.702  0.00  0.00    +0.000 A 
ATOM     21  C   UNL     1       1.302   9.066  19.372  0.00  0.00    +0.000 A 
ATOM     22  O   UNL     1       0.355   9.760  18.691  0.00  0.00    +0.000 OA
ATOM     23  C   UNL     1      -0.637  10.099  19.572  0.00  0.00    +0.000 A 
ATOM     24  C   UNL     1      -0.057  10.128  20.834  0.00  0.00    +0.000 A 
ATOM     25  C   UNL     1       0.871   8.904  20.674  0.00  0.00    +0.000 A 
ATOM     26  C   UNL     1       0.936   7.424  20.961  0.00  0.00    +0.000 A 
ATOM     27  C   UNL     1       0.158  11.707  21.260  0.00  0.00    +0.000 C 
ATOM     28  C   UNL     1      -0.774  12.751  20.476  0.00  0.00    +0.000 C 
ATOM     29  C   UNL     1      -0.879  12.391  18.991  0.00  0.00    +0.000 C 
ATOM     30  C   UNL     1      -1.603  11.051  18.945  0.00  0.00    +0.000 C 
ENDBRANCH  17  18
ENDBRANCH  16  17
ENDBRANCH   2  16
TORSDOF 5
ENDMDL
MODEL 7
REMARK VINA RESULT:      -8.8      3.176     10.915
REMARK  Name = 
REMARK  5 active torsions:
REMARK  status: ('A' for Active; 'I' for Inactive)
REMARK    1  A    between atoms: C_2  and  C_4
REMARK    2  A    between atoms: C_9  and  N_10
REMARK    3  A    between atoms: C_11  and  C_13
REMARK    4  A    between atoms: C_13  and  O_14
REMARK    5  A    between atoms: O_14  and  C_15
REMARK                            x       y       z     vdW  Elec       q    Type
REMARK                         _______ _______ _______ _____ _____    ______ ____
ROOT
ATOM      1  N   UNL     1       8.874  10.990  18.138  0.00  0.00    +0.000 N 
ATOM      2  C   UNL     1       8.303   9.705  18.047  0.00  0.00    +0.000 C 
ATOM      3  O   UNL     1       7.301   9.831  17.278  0.00  0.00    +0.000 OA
ATOM      4  H   UNL     1       8.288  11.594  17.552  0.00  0.00    +0.000 HD
ENDROOT
BRANCH   1  10
ATOM      5  C   UNL     1      10.064  13.267  18.643  0.00  0.00    +0.000 A 
ATOM      6  C   UNL     1      11.266  13.947  19.038  0.00  0.00    +0.000 A 
ATOM      7  C   UNL     1      12.333  13.228  19.551  0.00  0.00    +0.000 A 
ATOM      8  C   UNL     1      12.228  11.854  19.624  0.00  0.00    +0.000 A 
ATOM      9  C   UNL     1      11.091  11.157  19.141  0.00  0.00    +0.000 A 
ATOM     10  C   UNL     1       9.971  11.805  18.637  0.00  0.00    +0.000 A 
BRANCH   5  12
ATOM     11  N   UNL     1       9.368  15.635  18.348  0.00  0.00    +0.000 N 
ATOM     12  C   UNL     1       9.023  14.276  18.247  0.00  0.00    +0.000 C 
ATOM     13  O   UNL     1       7.947  13.967  17.815  0.00  0.00    +0.000 OA
ATOM     14  H   UNL     1       8.746  16.341  17.964  0.00  0.00    +0.000 HD
ATOM     15  H   UNL     1      10.204  15.992  18.813  0.00  0.00    +0.000 HD
ENDBRANCH   5  12
ENDBRANCH   1  10
BRANCH   2  16
ATOM     16  C   UNL     1       8.466   7.958  18.521  0.00  0.00    +0.000 C 
BRANCH  16  17
ATOM     17  O   UNL     1       7.997   6.538  18.520  0.00  0.00    +0.000 OA
BRANCH  17  18
ATOM     18  C   UNL     1       6.649   6.052  18.244  0.00  0.00    +0.000 A 
ATOM     19  C   UNL     1       6.037   6.076  16.984  0.00  0.00    +0.000 A 
ATOM     20  C   UNL     1       4.741   5.526  16.763  0.00  0.00    +0.000 A 
ATOM     21  C   UNL     1       4.126   4.877  17.835  0.00  0.00    +0.000 A 
ATOM     22  O   UNL     1       3.579   3.644  17.689  0.00  0.00    +0.000 OA
ATOM     23  C   UNL     1       3.374   3.122  18.938  0.00  0.00    +0.000 A 
ATOM     24  C   UNL     1       3.250   4.199  19.805  0.00  0.00    +0.000 A 
ATOM     25  C   UNL     1       4.332   5.106  19.180  0.00  0.00    +0.000 A 
ATOM     26  C   UNL     1       5.785   5.486  19.329  0.00  0.00    +0.000 A 
ATOM     27  C   UNL     1       1.652   4.375  20.174  0.00  0.00    +0.000 C 
ATOM     28  C   UNL     1       0.758   3.063  19.949  0.00  0.00    +0.000 C 
ATOM     29  C   UNL     1       1.146   2.346  18.652  0.00  0.00    +0.000 C 
ATOM     30  C   UNL     1       2.574   1.862  18.863  0.00  0.00    +0.000 C 
ENDBRANCH  17  18
ENDBRANCH  16  17
ENDBRANCH   2  16
TORSDOF 5
ENDMDL
MODEL 8
REMARK VINA RESULT:      -8.8      6.092      7.874
REMARK  Name = 
REMARK  5 active torsions:
REMARK  status: ('A' for Active; 'I' for Inactive)
REMARK    1  A    between atoms: C_2  and  C_4
REMARK    2  A    between atoms: C_9  and  N_10
REMARK    3  A    between atoms: C_11  and  C_13
REMARK    4  A    between atoms: C_13  and  O_14
REMARK    5  A    between atoms: O_14  and  C_15
REMARK                            x       y       z     vdW  Elec       q    Type
REMARK                         _______ _______ _______ _____ _____    ______ ____
ROOT
ATOM      1  N   UNL     1       3.306   4.185  16.994  0.00  0.00    +0.000 N 
ATOM      2  C   UNL     1       2.333   4.423  17.985  0.00  0.00    +0.000 C 
ATOM      3  O   UNL     1       1.288   3.824  17.586  0.00  0.00    +0.000 OA
ATOM      4  H   UNL     1       2.842   3.609  16.284  0.00  0.00    +0.000 HD
ENDROOT
BRANCH   1  10
ATOM      5  C   UNL     1       5.869   4.469  17.451  0.00  0.00    +0.000 A 
ATOM      6  C   UNL     1       7.173   4.755  16.919  0.00  0.00    +0.000 A 
ATOM      7  C   UNL     1       7.371   4.786  15.549  0.00  0.00    +0.000 A 
ATOM      8  C   UNL     1       6.286   4.585  14.721  0.00  0.00    +0.000 A 
ATOM      9  C   UNL     1       4.973   4.406  15.227  0.00  0.00    +0.000 A 
ATOM     10  C   UNL     1       4.694   4.337  16.585  0.00  0.00    +0.000 A 
BRANCH   5  12
ATOM     11  N   UNL     1       5.335   3.254  19.554  0.00  0.00    +0.000 N 
ATOM     12  C   UNL     1       5.948   4.367  18.948  0.00  0.00    +0.000 C 
ATOM     13  O   UNL     1       6.540   5.160  19.625  0.00  0.00    +0.000 OA
ATOM     14  H   UNL     1       5.481   3.078  20.544  0.00  0.00    +0.000 HD
ATOM     15  H   UNL     1       4.712   2.601  19.079  0.00  0.00    +0.000 HD
ENDBRANCH   5  12
ENDBRANCH   1  10
BRANCH   2  16
ATOM     16  C   UNL     1       2.004   5.167  19.610  0.00  0.00    +0.000 C 
BRANCH  16  17
ATOM     17  O   UNL     1       1.822   6.344  20.513  0.00  0.00    +0.000 OA
BRANCH  17  18
ATOM     18  C   UNL     1       1.584   7.730  20.123  0.00  0.00    +0.000 A 
ATOM     19  C   UNL     1       1.930   8.277  18.881  0.00  0.00    +0.000 A 
ATOM     20  C   UNL     1       1.613   9.623  18.533  0.00  0.00    +0.000 A 
ATOM     21  C   UNL     1       0.863  10.364  19.447  0.00  0.00    +0.000 A 
ATOM     22  O   UNL     1      -0.235  11.059  19.055  0.00  0.00    +0.000 OA
ATOM     23  C   UNL     1      -0.951  11.386  20.175  0.00  0.00    +0.000 A 
ATOM     24  C   UNL     1      -0.051  11.408  21.232  0.00  0.00    +0.000 A 
ATOM     25  C   UNL     1       0.802  10.190  20.815  0.00  0.00    +0.000 A 
ATOM     26  C   UNL     1       0.946   8.708  21.061  0.00  0.00    +0.000 A 
ATOM     27  C   UNL     1       0.268  12.984  21.598  0.00  0.00    +0.000 C 
ATOM     28  C   UNL     1      -0.844  14.030  21.107  0.00  0.00    +0.000 C 
ATOM     29  C   UNL     1      -1.348  13.681  19.703  0.00  0.00    +0.000 C 
ATOM     30  C   UNL     1      -2.053  12.339  19.843  0.00  0.00    +0.000 C 
ENDBRANCH  17  18
ENDBRANCH  16  17
ENDBRANCH   2  16
TORSDOF 5
ENDMDL
MODEL 9
REMARK VINA RESULT:      -8.8      6.883      9.967
REMARK  Name = 
REMARK  5 active torsions:
REMARK  status: ('A' for Active; 'I' for Inactive)
REMARK    1  A    between atoms: C_2  and  C_4
REMARK    2  A    between atoms: C_9  and  N_10
REMARK    3  A    between atoms: C_11  and  C_13
REMARK    4  A    between atoms: C_13  and  O_14
REMARK    5  A    between atoms: O_14  and  C_15
REMARK                            x       y       z     vdW  Elec       q    Type
REMARK                         _______ _______ _______ _____ _____    ______ ____
ROOT
ATOM      1  N   UNL     1      -0.475  10.847  19.895  0.00  0.00    +0.000 N 
ATOM      2  C   UNL     1       0.427  10.096  20.674  0.00  0.00    +0.000 C 
ATOM      3  O   UNL     1       0.909  10.912  21.518  0.00  0.00    +0.000 OA
ATOM      4  H   UNL     1      -0.438  11.800  20.272  0.00  0.00    +0.000 HD
ENDROOT
BRANCH   1  10
ATOM      5  C   UNL     1      -2.743  11.585  18.815  0.00  0.00    +0.000 A 
ATOM      6  C   UNL     1      -3.721  11.377  17.782  0.00  0.00    +0.000 A 
ATOM      7  C   UNL     1      -3.432  10.547  16.711  0.00  0.00    +0.000 A 
ATOM      8  C   UNL     1      -2.216   9.897  16.690  0.00  0.00    +0.000 A 
ATOM      9  C   UNL     1      -1.282  10.007  17.752  0.00  0.00    +0.000 A 
ATOM     10  C   UNL     1      -1.484  10.836  18.847  0.00  0.00    +0.000 A 
BRANCH   5  12
ATOM     11  N   UNL     1      -4.597  12.999  19.678  0.00  0.00    +0.000 N 
ATOM     12  C   UNL     1      -3.247  12.618  19.783  0.00  0.00    +0.000 C 
ATOM     13  O   UNL     1      -2.564  13.085  20.651  0.00  0.00    +0.000 OA
ATOM     14  H   UNL     1      -5.009  13.590  20.395  0.00  0.00    +0.000 HD
ATOM     15  H   UNL     1      -5.215  12.751  18.905  0.00  0.00    +0.000 HD
ENDBRANCH   5  12
ENDBRANCH   1  10
BRANCH   2  16
ATOM     16  C   UNL     1       1.108   8.442  20.997  0.00  0.00    +0.000 C 
BRANCH  16  17
ATOM     17  O   UNL     1       1.086   6.953  20.862  0.00  0.00    +0.000 OA
BRANCH  17  18
ATOM     18  C   UNL     1       2.091   6.107  20.228  0.00  0.00    +0.000 A 
ATOM     19  C   UNL     1       2.258   4.740  20.485  0.00  0.00    +0.000 A 
ATOM     20  C   UNL     1       3.217   3.951  19.785  0.00  0.00    +0.000 A 
ATOM     21  C   UNL     1       3.936   4.570  18.762  0.00  0.00    +0.000 A 
ATOM     22  O   UNL     1       4.050   3.997  17.537  0.00  0.00    +0.000 OA
ATOM     23  C   UNL     1       4.488   4.954  16.661  0.00  0.00    +0.000 A 
ATOM     24  C   UNL     1       5.168   5.903  17.413  0.00  0.00    +0.000 A 
ATOM     25  C   UNL     1       4.234   5.913  18.644  0.00  0.00    +0.000 A 
ATOM     26  C   UNL     1       3.064   6.661  19.233  0.00  0.00    +0.000 A 
ATOM     27  C   UNL     1       6.784   5.676  17.178  0.00  0.00    +0.000 C 
ATOM     28  C   UNL     1       7.168   4.887  15.836  0.00  0.00    +0.000 C 
ATOM     29  C   UNL     1       6.212   3.716  15.592  0.00  0.00    +0.000 C 
ATOM     30  C   UNL     1       4.847   4.346  15.344  0.00  0.00    +0.000 C 
ENDBRANCH  17  18
ENDBRANCH  16  17
ENDBRANCH   2  16
TORSDOF 5
ENDMDL
