MODEL 1
REMARK VINA RESULT:      -8.5      0.000      0.000
REMARK  Name = 
REMARK  5 active torsions:
REMARK  status: ('A' for Active; 'I' for Inactive)
REMARK    1  A    between atoms: C_1  and  C_2
REMARK    2  A    between atoms: C_5  and  C_6
REMARK    3  A    between atoms: N_8  and  C_9
REMARK    4  A    between atoms: C_13  and  N_14
REMARK    5  A    between atoms: C_15  and  C_17
REMARK                            x       y       z     vdW  Elec       q    Type
REMARK                         _______ _______ _______ _____ _____    ______ ____
ROOT
ATOM      1  C   UNL     1       6.273   5.510  19.438  0.00  0.00    +0.000 C 
ATOM      2  C   UNL     1       6.298   5.389  17.938  0.00  0.00    +0.000 A 
ATOM      3  C   UNL     1       7.321   4.579  17.401  0.00  0.00    +0.000 A 
ATOM      4  C   UNL     1       7.426   4.352  16.040  0.00  0.00    +0.000 A 
ATOM      5  C   UNL     1       6.508   4.922  15.158  0.00  0.00    +0.000 A 
ATOM      6  C   UNL     1       5.482   5.750  15.685  0.00  0.00    +0.000 A 
ATOM      7  C   UNL     1       5.360   6.011  17.075  0.00  0.00    +0.000 A 
ENDROOT
BRANCH   5   8
ATOM      8  C   UNL     1       6.725   4.584  13.702  0.00  0.00    +0.000 C 
ATOM      9  O   UNL     1       7.490   5.276  13.029  0.00  0.00    +0.000 OA
ATOM     10  N   UNL     1       6.067   3.495  13.156  0.00  0.00    +0.000 N 
ATOM     11  H   UNL     1       5.481   2.910  13.733  0.00  0.00    +0.000 HD
BRANCH  10  12
ATOM     12  C   UNL     1       6.292   3.092  11.792  0.00  0.00    +0.000 C 
ATOM     13  C   UNL     1       5.786   1.764  11.300  0.00  0.00    +0.000 C 
ATOM     14  C   UNL     1       7.259   1.990  11.461  0.00  0.00    +0.000 C 
ENDBRANCH  10  12
ENDBRANCH   5   8
BRANCH   7  15
ATOM     15  N   UNL     1       4.327   6.855  17.651  0.00  0.00    +0.000 N 
ATOM     16  C   UNL     1       3.050   6.468  18.023  0.00  0.00    +0.000 C 
ATOM     17  O   UNL     1       2.600   5.335  17.862  0.00  0.00    +0.000 OA
ATOM     18  H   UNL     1       4.579   7.819  17.821  0.00  0.00    +0.000 HD
BRANCH  16  19
ATOM     19  C   UNL     1       2.178   7.460  18.779  0.00  0.00    +0.000 C 
ATOM     20  C   UNL     1       1.924   7.578  20.099  0.00  0.00    +0.000 C 
ATOM     21  C   UNL     1       1.149   8.782  20.525  0.00  0.00    +0.000 A 
ATOM     22  C   UNL     1       0.413   8.878  21.712  0.00  0.00    +0.000 A 
ATOM     23  C   UNL     1      -0.322  10.045  22.007  0.00  0.00    +0.000 A 
ATOM     24  C   UNL     1      -0.284  11.151  21.154  0.00  0.00    +0.000 A 
ATOM     25  C   UNL     1       0.478  11.091  19.995  0.00  0.00    +0.000 A 
ATOM     26  C   UNL     1       1.148   9.906  19.677  0.00  0.00    +0.000 A 
ATOM     27  O   UNL     1       1.787   9.863  18.463  0.00  0.00    +0.000 OA
ATOM     28  C   UNL     1       1.635   8.555  17.879  0.00  0.00    +0.000 C 
ENDBRANCH  16  19
ENDBRANCH   7  15
TORSDOF 4
ENDMDL
MODEL 2
REMARK VINA RESULT:      -8.4      2.251      3.574
REMARK  Name = 
REMARK  5 active torsions:
REMARK  status: ('A' for Active; 'I' for Inactive)
REMARK    1  A    between atoms: C_1  and  C_2
REMARK    2  A    between atoms: C_5  and  C_6
REMARK    3  A    between atoms: N_8  and  C_9
REMARK    4  A    between atoms: C_13  and  N_14
REMARK    5  A    between atoms: C_15  and  C_17
REMARK                            x       y       z     vdW  Elec       q    Type
REMARK                         _______ _______ _______ _____ _____    ______ ____
ROOT
ATOM      1  C   UNL     1       1.033   4.168  20.553  0.00  0.00    +0.000 C 
ATOM      2  C   UNL     1       2.257   4.341  19.696  0.00  0.00    +0.000 A 
ATOM      3  C   UNL     1       2.780   3.163  19.120  0.00  0.00    +0.000 A 
ATOM      4  C   UNL     1       3.877   3.194  18.277  0.00  0.00    +0.000 A 
ATOM      5  C   UNL     1       4.496   4.406  17.970  0.00  0.00    +0.000 A 
ATOM      6  C   UNL     1       3.987   5.597  18.554  0.00  0.00    +0.000 A 
ATOM      7  C   UNL     1       2.873   5.592  19.433  0.00  0.00    +0.000 A 
ENDROOT
BRANCH   5   8
ATOM      8  C   UNL     1       5.672   4.304  17.029  0.00  0.00    +0.000 C 
ATOM      9  O   UNL     1       6.814   4.410  17.476  0.00  0.00    +0.000 OA
ATOM     10  N   UNL     1       5.441   4.081  15.681  0.00  0.00    +0.000 N 
ATOM     11  H   UNL     1       4.501   3.949  15.339  0.00  0.00    +0.000 HD
BRANCH  10  12
ATOM     12  C   UNL     1       6.530   3.909  14.755  0.00  0.00    +0.000 C 
ATOM     13  C   UNL     1       6.897   5.013  13.802  0.00  0.00    +0.000 C 
ATOM     14  C   UNL     1       6.273   3.753  13.282  0.00  0.00    +0.000 C 
ENDBRANCH  10  12
ENDBRANCH   5   8
BRANCH   7  15
ATOM     15  N   UNL     1       2.327   6.787  20.053  0.00  0.00    +0.000 N 
ATOM     16  C   UNL     1       1.938   7.951  19.410  0.00  0.00    +0.000 C 
ATOM     17  O   UNL     1       2.056   8.143  18.201  0.00  0.00    +0.000 OA
ATOM     18  H   UNL     1       2.194   6.753  21.054  0.00  0.00    +0.000 HD
BRANCH  16  19
ATOM     19  C   UNL     1       1.219   9.024  20.216  0.00  0.00    +0.000 C 
ATOM     20  C   UNL     1       0.480  10.078  19.810  0.00  0.00    +0.000 C 
ATOM     21  C   UNL     1      -0.232  10.844  20.878  0.00  0.00    +0.000 A 
ATOM     22  C   UNL     1      -0.661  12.171  20.755  0.00  0.00    +0.000 A 
ATOM     23  C   UNL     1      -1.290  12.823  21.837  0.00  0.00    +0.000 A 
ATOM     24  C   UNL     1      -1.553  12.143  23.029  0.00  0.00    +0.000 A 
ATOM     25  C   UNL     1      -1.176  10.812  23.151  0.00  0.00    +0.000 A 
ATOM     26  C   UNL     1      -0.493  10.195  22.100  0.00  0.00    +0.000 A 
ATOM     27  O   UNL     1      -0.039   8.918  22.320  0.00  0.00    +0.000 OA
ATOM     28  C   UNL     1       1.252   8.747  21.707  0.00  0.00    +0.000 C 
ENDBRANCH  16  19
ENDBRANCH   7  15
TORSDOF 4
ENDMDL
MODEL 3
REMARK VINA RESULT:      -8.3      2.172      3.348
REMARK  Name = 
REMARK  5 active torsions:
REMARK  status: ('A' for Active; 'I' for Inactive)
REMARK    1  A    between atoms: C_1  and  C_2
REMARK    2  A    between atoms: C_5  and  C_6
REMARK    3  A    between atoms: N_8  and  C_9
REMARK    4  A    between atoms: C_13  and  N_14
REMARK    5  A    between atoms: C_15  and  C_17
REMARK                            x       y       z     vdW  Elec       q    Type
REMARK                         _______ _______ _______ _____ _____    ______ ____
ROOT
ATOM      1  C   UNL     1       1.096   4.019  20.725  0.00  0.00    +0.000 C 
ATOM      2  C   UNL     1       2.303   4.236  19.853  0.00  0.00    +0.000 A 
ATOM      3  C   UNL     1       2.897   3.072  19.319  0.00  0.00    +0.000 A 
ATOM      4  C   UNL     1       3.986   3.139  18.468  0.00  0.00    +0.000 A 
ATOM      5  C   UNL     1       4.524   4.375  18.110  0.00  0.00    +0.000 A 
ATOM      6  C   UNL     1       3.944   5.553  18.651  0.00  0.00    +0.000 A 
ATOM      7  C   UNL     1       2.836   5.513  19.538  0.00  0.00    +0.000 A 
ENDROOT
BRANCH   5   8
ATOM      8  C   UNL     1       5.700   4.311  17.164  0.00  0.00    +0.000 C 
ATOM      9  O   UNL     1       6.839   4.464  17.606  0.00  0.00    +0.000 OA
ATOM     10  N   UNL     1       5.473   4.068  15.820  0.00  0.00    +0.000 N 
ATOM     11  H   UNL     1       4.538   3.897  15.482  0.00  0.00    +0.000 HD
BRANCH  10  12
ATOM     12  C   UNL     1       6.564   3.931  14.890  0.00  0.00    +0.000 C 
ATOM     13  C   UNL     1       6.906   5.054  13.950  0.00  0.00    +0.000 C 
ATOM     14  C   UNL     1       6.309   3.786  13.416  0.00  0.00    +0.000 C 
ENDBRANCH  10  12
ENDBRANCH   5   8
BRANCH   7  15
ATOM     15  N   UNL     1       2.219   6.694  20.114  0.00  0.00    +0.000 N 
ATOM     16  C   UNL     1       1.936   7.884  19.463  0.00  0.00    +0.000 C 
ATOM     17  O   UNL     1       2.226   8.113  18.291  0.00  0.00    +0.000 OA
ATOM     18  H   UNL     1       1.944   6.628  21.084  0.00  0.00    +0.000 HD
BRANCH  16  19
ATOM     19  C   UNL     1       1.119   8.940  20.195  0.00  0.00    +0.000 C 
ATOM     20  C   UNL     1       0.660   8.970  21.464  0.00  0.00    +0.000 C 
ATOM     21  C   UNL     1       0.030  10.247  21.916  0.00  0.00    +0.000 A 
ATOM     22  C   UNL     1      -0.877  10.357  22.976  0.00  0.00    +0.000 A 
ATOM     23  C   UNL     1      -1.451  11.604  23.301  0.00  0.00    +0.000 A 
ATOM     24  C   UNL     1      -1.082  12.764  22.614  0.00  0.00    +0.000 A 
ATOM     25  C   UNL     1      -0.149  12.681  21.589  0.00  0.00    +0.000 A 
ATOM     26  C   UNL     1       0.363  11.431  21.230  0.00  0.00    +0.000 A 
ATOM     27  O   UNL     1       1.189  11.392  20.134  0.00  0.00    +0.000 OA
ATOM     28  C   UNL     1       0.930  10.199  19.371  0.00  0.00    +0.000 C 
ENDBRANCH  16  19
ENDBRANCH   7  15
TORSDOF 4
ENDMDL
MODEL 4
REMARK VINA RESULT:      -8.0      1.800      2.628
REMARK  Name = 
REMARK  5 active torsions:
REMARK  status: ('A' for Active; 'I' for Inactive)
REMARK    1  A    between atoms: C_1  and  C_2
REMARK    2  A    between atoms: C_5  and  C_6
REMARK    3  A    between atoms: N_8  and  C_9
REMARK    4  A    between atoms: C_13  and  N_14
REMARK    5  A    between atoms: C_15  and  C_17
REMARK                            x       y       z     vdW  Elec       q    Type
REMARK                         _______ _______ _______ _____ _____    ______ ____
ROOT
ATOM      1  C   UNL     1       1.353   3.771  18.908  0.00  0.00    +0.000 C 
ATOM      2  C   UNL     1       2.635   4.129  18.205  0.00  0.00    +0.000 A 
ATOM      3  C   UNL     1       3.242   3.095  17.462  0.00  0.00    +0.000 A 
ATOM      4  C   UNL     1       4.400   3.308  16.736  0.00  0.00    +0.000 A 
ATOM      5  C   UNL     1       4.998   4.569  16.716  0.00  0.00    +0.000 A 
ATOM      6  C   UNL     1       4.403   5.615  17.471  0.00  0.00    +0.000 A 
ATOM      7  C   UNL     1       3.224   5.420  18.237  0.00  0.00    +0.000 A 
ENDROOT
BRANCH   5   8
ATOM      8  C   UNL     1       6.247   4.672  15.875  0.00  0.00    +0.000 C 
ATOM      9  O   UNL     1       7.316   4.958  16.413  0.00  0.00    +0.000 OA
ATOM     10  N   UNL     1       6.166   4.431  14.513  0.00  0.00    +0.000 N 
ATOM     11  H   UNL     1       5.291   4.151  14.095  0.00  0.00    +0.000 HD
BRANCH  10  12
ATOM     12  C   UNL     1       7.339   4.451  13.679  0.00  0.00    +0.000 C 
ATOM     13  C   UNL     1       7.527   5.541  12.660  0.00  0.00    +0.000 C 
ATOM     14  C   UNL     1       7.249   4.138  12.211  0.00  0.00    +0.000 C 
ENDBRANCH  10  12
ENDBRANCH   5   8
BRANCH   7  15
ATOM     15  N   UNL     1       2.590   6.462  19.024  0.00  0.00    +0.000 N 
ATOM     16  C   UNL     1       2.305   7.755  18.613  0.00  0.00    +0.000 C 
ATOM     17  O   UNL     1       2.607   8.210  17.512  0.00  0.00    +0.000 OA
ATOM     18  H   UNL     1       2.303   6.208  19.959  0.00  0.00    +0.000 HD
BRANCH  16  19
ATOM     19  C   UNL     1       1.470   8.643  19.526  0.00  0.00    +0.000 C 
ATOM     20  C   UNL     1       1.174   8.522  20.837  0.00  0.00    +0.000 C 
ATOM     21  C   UNL     1       0.463   9.674  21.469  0.00  0.00    +0.000 A 
ATOM     22  C   UNL     1      -0.310   9.591  22.634  0.00  0.00    +0.000 A 
ATOM     23  C   UNL     1      -0.978  10.729  23.132  0.00  0.00    +0.000 A 
ATOM     24  C   UNL     1      -0.835  11.973  22.512  0.00  0.00    +0.000 A 
ATOM     25  C   UNL     1      -0.035  12.083  21.382  0.00  0.00    +0.000 A 
ATOM     26  C   UNL     1       0.568  10.937  20.857  0.00  0.00    +0.000 A 
ATOM     27  O   UNL     1       1.249  11.083  19.674  0.00  0.00    +0.000 OA
ATOM     28  C   UNL     1       1.035   9.927  18.843  0.00  0.00    +0.000 C 
ENDBRANCH  16  19
ENDBRANCH   7  15
TORSDOF 4
ENDMDL
MODEL 5
REMARK VINA RESULT:      -7.9      0.856      1.467
REMARK  Name = 
REMARK  5 active torsions:
REMARK  status: ('A' for Active; 'I' for Inactive)
REMARK    1  A    between atoms: C_1  and  C_2
REMARK    2  A    between atoms: C_5  and  C_6
REMARK    3  A    between atoms: N_8  and  C_9
REMARK    4  A    between atoms: C_13  and  N_14
REMARK    5  A    between atoms: C_15  and  C_17
REMARK                            x       y       z     vdW  Elec       q    Type
REMARK                         _______ _______ _______ _____ _____    ______ ____
ROOT
ATOM      1  C   UNL     1       6.243   5.542  19.459  0.00  0.00    +0.000 C 
ATOM      2  C   UNL     1       6.216   5.403  17.961  0.00  0.00    +0.000 A 
ATOM      3  C   UNL     1       7.149   4.501  17.406  0.00  0.00    +0.000 A 
ATOM      4  C   UNL     1       7.197   4.252  16.047  0.00  0.00    +0.000 A 
ATOM      5  C   UNL     1       6.308   4.891  15.182  0.00  0.00    +0.000 A 
ATOM      6  C   UNL     1       5.373   5.812  15.725  0.00  0.00    +0.000 A 
ATOM      7  C   UNL     1       5.312   6.097  17.115  0.00  0.00    +0.000 A 
ENDROOT
BRANCH   5   8
ATOM      8  C   UNL     1       6.454   4.522  13.725  0.00  0.00    +0.000 C 
ATOM      9  O   UNL     1       7.435   4.920  13.096  0.00  0.00    +0.000 OA
ATOM     10  N   UNL     1       5.487   3.730  13.129  0.00  0.00    +0.000 N 
ATOM     11  H   UNL     1       4.714   3.372  13.670  0.00  0.00    +0.000 HD
BRANCH  10  12
ATOM     12  C   UNL     1       5.615   3.295  11.762  0.00  0.00    +0.000 C 
ATOM     13  C   UNL     1       4.444   2.673  11.051  0.00  0.00    +0.000 C 
ATOM     14  C   UNL     1       5.630   1.832  11.415  0.00  0.00    +0.000 C 
ENDBRANCH  10  12
ENDBRANCH   5   8
BRANCH   7  15
ATOM     15  N   UNL     1       4.374   7.034  17.707  0.00  0.00    +0.000 N 
ATOM     16  C   UNL     1       3.067   6.772  18.087  0.00  0.00    +0.000 C 
ATOM     17  O   UNL     1       2.505   5.692  17.919  0.00  0.00    +0.000 OA
ATOM     18  H   UNL     1       4.722   7.966  17.885  0.00  0.00    +0.000 HD
BRANCH  16  19
ATOM     19  C   UNL     1       2.304   7.840  18.859  0.00  0.00    +0.000 C 
ATOM     20  C   UNL     1       1.615   8.914  18.422  0.00  0.00    +0.000 C 
ATOM     21  C   UNL     1       0.834   9.669  19.448  0.00  0.00    +0.000 A 
ATOM     22  C   UNL     1       0.436  11.005  19.324  0.00  0.00    +0.000 A 
ATOM     23  C   UNL     1      -0.265  11.644  20.368  0.00  0.00    +0.000 A 
ATOM     24  C   UNL     1      -0.630  10.943  21.520  0.00  0.00    +0.000 A 
ATOM     25  C   UNL     1      -0.284   9.603  21.641  0.00  0.00    +0.000 A 
ATOM     26  C   UNL     1       0.469   8.998  20.631  0.00  0.00    +0.000 A 
ATOM     27  O   UNL     1       0.884   7.709  20.857  0.00  0.00    +0.000 OA
ATOM     28  C   UNL     1       2.217   7.529  20.342  0.00  0.00    +0.000 C 
ENDBRANCH  16  19
ENDBRANCH   7  15
TORSDOF 4
ENDMDL
MODEL 6
REMARK VINA RESULT:      -7.7      2.009      9.264
REMARK  Name = 
REMARK  5 active torsions:
REMARK  status: ('A' for Active; 'I' for Inactive)
REMARK    1  A    between atoms: C_1  and  C_2
REMARK    2  A    between atoms: C_5  and  C_6
REMARK    3  A    between atoms: N_8  and  C_9
REMARK    4  A    between atoms: C_13  and  N_14
REMARK    5  A    between atoms: C_15  and  C_17
REMARK                            x       y       z     vdW  Elec       q    Type
REMARK                         _______ _______ _______ _____ _____    ______ ____
ROOT
ATOM      1  C   UNL     1       2.866   3.258  19.458  0.00  0.00    +0.000 C 
ATOM      2  C   UNL     1       2.473   4.689  19.702  0.00  0.00    +0.000 A 
ATOM      3  C   UNL     1       1.725   4.934  20.874  0.00  0.00    +0.000 A 
ATOM      4  C   UNL     1       1.340   6.212  21.235  0.00  0.00    +0.000 A 
ATOM      5  C   UNL     1       1.691   7.304  20.440  0.00  0.00    +0.000 A 
ATOM      6  C   UNL     1       2.431   7.071  19.251  0.00  0.00    +0.000 A 
ATOM      7  C   UNL     1       2.827   5.767  18.850  0.00  0.00    +0.000 A 
ENDROOT
BRANCH   5   8
ATOM      8  C   UNL     1       1.221   8.645  20.951  0.00  0.00    +0.000 C 
ATOM      9  O   UNL     1       1.271   8.882  22.159  0.00  0.00    +0.000 OA
ATOM     10  N   UNL     1       0.756   9.587  20.049  0.00  0.00    +0.000 N 
ATOM     11  H   UNL     1       0.766   9.395  19.059  0.00  0.00    +0.000 HD
BRANCH  10  12
ATOM     12  C   UNL     1       0.360  10.903  20.479  0.00  0.00    +0.000 C 
ATOM     13  C   UNL     1      -0.113  11.919  19.475  0.00  0.00    +0.000 C 
ATOM     14  C   UNL     1       1.206  12.106  20.164  0.00  0.00    +0.000 C 
ENDBRANCH  10  12
ENDBRANCH   5   8
BRANCH   7  15
ATOM     15  N   UNL     1       3.580   5.488  17.640  0.00  0.00    +0.000 N 
ATOM     16  C   UNL     1       4.950   5.310  17.538  0.00  0.00    +0.000 C 
ATOM     17  O   UNL     1       5.731   5.420  18.481  0.00  0.00    +0.000 OA
ATOM     18  H   UNL     1       3.042   5.386  16.790  0.00  0.00    +0.000 HD
BRANCH  16  19
ATOM     19  C   UNL     1       5.528   4.844  16.209  0.00  0.00    +0.000 C 
ATOM     20  C   UNL     1       4.915   4.378  15.100  0.00  0.00    +0.000 C 
ATOM     21  C   UNL     1       5.778   4.167  13.899  0.00  0.00    +0.000 A 
ATOM     22  C   UNL     1       5.470   3.307  12.838  0.00  0.00    +0.000 A 
ATOM     23  C   UNL     1       6.371   3.144  11.765  0.00  0.00    +0.000 A 
ATOM     24  C   UNL     1       7.558   3.880  11.706  0.00  0.00    +0.000 A 
ATOM     25  C   UNL     1       7.857   4.772  12.727  0.00  0.00    +0.000 A 
ATOM     26  C   UNL     1       6.991   4.876  13.819  0.00  0.00    +0.000 A 
ATOM     27  O   UNL     1       7.395   5.683  14.855  0.00  0.00    +0.000 OA
ATOM     28  C   UNL     1       7.023   5.086  16.111  0.00  0.00    +0.000 C 
ENDBRANCH  16  19
ENDBRANCH   7  15
TORSDOF 4
ENDMDL
MODEL 7
REMARK VINA RESULT:      -7.6      4.351      6.402
REMARK  Name = 
REMARK  5 active torsions:
REMARK  status: ('A' for Active; 'I' for Inactive)
REMARK    1  A    between atoms: C_1  and  C_2
REMARK    2  A    between atoms: C_5  and  C_6
REMARK    3  A    between atoms: N_8  and  C_9
REMARK    4  A    between atoms: C_13  and  N_14
REMARK    5  A    between atoms: C_15  and  C_17
REMARK                            x       y       z     vdW  Elec       q    Type
REMARK                         _______ _______ _______ _____ _____    ______ ____
ROOT
ATOM      1  C   UNL     1       1.771  10.486  17.989  0.00  0.00    +0.000 C 
ATOM      2  C   UNL     1       1.903   9.099  18.557  0.00  0.00    +0.000 A 
ATOM      3  C   UNL     1       2.757   8.222  17.856  0.00  0.00    +0.000 A 
ATOM      4  C   UNL     1       2.997   6.935  18.301  0.00  0.00    +0.000 A 
ATOM      5  C   UNL     1       2.396   6.469  19.470  0.00  0.00    +0.000 A 
ATOM      6  C   UNL     1       1.523   7.337  20.178  0.00  0.00    +0.000 A 
ATOM      7  C   UNL     1       1.247   8.659  19.737  0.00  0.00    +0.000 A 
ENDROOT
BRANCH   5   8
ATOM      8  C   UNL     1       2.751   5.053  19.853  0.00  0.00    +0.000 C 
ATOM      9  O   UNL     1       2.580   4.679  21.014  0.00  0.00    +0.000 OA
ATOM     10  N   UNL     1       3.251   4.197  18.886  0.00  0.00    +0.000 N 
ATOM     11  H   UNL     1       3.340   4.504  17.929  0.00  0.00    +0.000 HD
BRANCH  10  12
ATOM     12  C   UNL     1       3.542   2.819  19.184  0.00  0.00    +0.000 C 
ATOM     13  C   UNL     1       3.568   1.793  18.084  0.00  0.00    +0.000 C 
ATOM     14  C   UNL     1       2.470   1.768  19.104  0.00  0.00    +0.000 C 
ENDBRANCH  10  12
ENDBRANCH   5   8
BRANCH   7  15
ATOM     15  N   UNL     1       0.358   9.573  20.430  0.00  0.00    +0.000 N 
ATOM     16  C   UNL     1       0.557  10.137  21.680  0.00  0.00    +0.000 C 
ATOM     17  O   UNL     1       1.519   9.886  22.403  0.00  0.00    +0.000 OA
ATOM     18  H   UNL     1      -0.480   9.847  19.935  0.00  0.00    +0.000 HD
BRANCH  16  19
ATOM     19  C   UNL     1      -0.405  11.216  22.156  0.00  0.00    +0.000 C 
ATOM     20  C   UNL     1      -1.454  11.145  23.003  0.00  0.00    +0.000 C 
ATOM     21  C   UNL     1      -2.088  12.442  23.389  0.00  0.00    +0.000 A 
ATOM     22  C   UNL     1      -3.399  12.578  23.862  0.00  0.00    +0.000 A 
ATOM     23  C   UNL     1      -3.923  13.853  24.163  0.00  0.00    +0.000 A 
ATOM     24  C   UNL     1      -3.130  14.998  24.054  0.00  0.00    +0.000 A 
ATOM     25  C   UNL     1      -1.812  14.876  23.630  0.00  0.00    +0.000 A 
ATOM     26  C   UNL     1      -1.324  13.618  23.270  0.00  0.00    +0.000 A 
ATOM     27  O   UNL     1      -0.055  13.573  22.745  0.00  0.00    +0.000 OA
ATOM     28  C   UNL     1      -0.001  12.601  21.685  0.00  0.00    +0.000 C 
ENDBRANCH  16  19
ENDBRANCH   7  15
TORSDOF 4
ENDMDL
MODEL 8
REMARK VINA RESULT:      -7.6      4.485      8.915
REMARK  Name = 
REMARK  5 active torsions:
REMARK  status: ('A' for Active; 'I' for Inactive)
REMARK    1  A    between atoms: C_1  and  C_2
REMARK    2  A    between atoms: C_5  and  C_6
REMARK    3  A    between atoms: N_8  and  C_9
REMARK    4  A    between atoms: C_13  and  N_14
REMARK    5  A    between atoms: C_15  and  C_17
REMARK                            x       y       z     vdW  Elec       q    Type
REMARK                         _______ _______ _______ _____ _____    ______ ____
ROOT
ATOM      1  C   UNL     1      -1.485  10.337  18.950  0.00  0.00    +0.000 C 
ATOM      2  C   UNL     1      -0.306  11.253  18.761  0.00  0.00    +0.000 A 
ATOM      3  C   UNL     1      -0.610  12.603  18.482  0.00  0.00    +0.000 A 
ATOM      4  C   UNL     1       0.383  13.553  18.331  0.00  0.00    +0.000 A 
ATOM      5  C   UNL     1       1.726  13.195  18.457  0.00  0.00    +0.000 A 
ATOM      6  C   UNL     1       2.046  11.837  18.724  0.00  0.00    +0.000 A 
ATOM      7  C   UNL     1       1.047  10.839  18.870  0.00  0.00    +0.000 A 
ENDROOT
BRANCH   5   8
ATOM      8  C   UNL     1       2.710  14.327  18.284  0.00  0.00    +0.000 C 
ATOM      9  O   UNL     1       2.348  15.482  18.512  0.00  0.00    +0.000 OA
ATOM     10  N   UNL     1       4.004  14.042  17.883  0.00  0.00    +0.000 N 
ATOM     11  H   UNL     1       4.298  13.087  17.747  0.00  0.00    +0.000 HD
BRANCH  10  12
ATOM     12  C   UNL     1       4.997  15.078  17.768  0.00  0.00    +0.000 C 
ATOM     13  C   UNL     1       6.461  14.737  17.831  0.00  0.00    +0.000 C 
ATOM     14  C   UNL     1       5.820  15.495  18.955  0.00  0.00    +0.000 C 
ENDBRANCH  10  12
ENDBRANCH   5   8
BRANCH   7  15
ATOM     15  N   UNL     1       1.335   9.441  19.139  0.00  0.00    +0.000 N 
ATOM     16  C   UNL     1       2.038   8.567  18.325  0.00  0.00    +0.000 C 
ATOM     17  O   UNL     1       2.477   8.862  17.215  0.00  0.00    +0.000 OA
ATOM     18  H   UNL     1       1.011   9.078  20.024  0.00  0.00    +0.000 HD
BRANCH  16  19
ATOM     19  C   UNL     1       2.391   7.189  18.868  0.00  0.00    +0.000 C 
ATOM     20  C   UNL     1       1.813   6.455  19.840  0.00  0.00    +0.000 C 
ATOM     21  C   UNL     1       2.313   5.057  20.008  0.00  0.00    +0.000 A 
ATOM     22  C   UNL     1       2.193   4.302  21.181  0.00  0.00    +0.000 A 
ATOM     23  C   UNL     1       2.735   3.002  21.255  0.00  0.00    +0.000 A 
ATOM     24  C   UNL     1       3.348   2.417  20.144  0.00  0.00    +0.000 A 
ATOM     25  C   UNL     1       3.435   3.133  18.957  0.00  0.00    +0.000 A 
ATOM     26  C   UNL     1       2.955   4.445  18.915  0.00  0.00    +0.000 A 
ATOM     27  O   UNL     1       3.174   5.147  17.754  0.00  0.00    +0.000 OA
ATOM     28  C   UNL     1       3.490   6.516  18.066  0.00  0.00    +0.000 C 
ENDBRANCH  16  19
ENDBRANCH   7  15
TORSDOF 4
ENDMDL
MODEL 9
REMARK VINA RESULT:      -7.5      1.889      9.558
REMARK  Name = 
REMARK  5 active torsions:
REMARK  status: ('A' for Active; 'I' for Inactive)
REMARK    1  A    between atoms: C_1  and  C_2
REMARK    2  A    between atoms: C_5  and  C_6
REMARK    3  A    between atoms: N_8  and  C_9
REMARK    4  A    between atoms: C_13  and  N_14
REMARK    5  A    between atoms: C_15  and  C_17
REMARK                            x       y       z     vdW  Elec       q    Type
REMARK                         _______ _______ _______ _____ _____    ______ ____
ROOT
ATOM      1  C   UNL     1       2.845   4.020  19.668  0.00  0.00    +0.000 C 
ATOM      2  C   UNL     1       2.417   5.461  19.722  0.00  0.00    +0.000 A 
ATOM      3  C   UNL     1       1.679   5.844  20.863  0.00  0.00    +0.000 A 
ATOM      4  C   UNL     1       1.264   7.149  21.053  0.00  0.00    +0.000 A 
ATOM      5  C   UNL     1       1.574   8.131  20.111  0.00  0.00    +0.000 A 
ATOM      6  C   UNL     1       2.304   7.756  18.953  0.00  0.00    +0.000 A 
ATOM      7  C   UNL     1       2.730   6.421  18.725  0.00  0.00    +0.000 A 
ENDROOT
BRANCH   5   8
ATOM      8  C   UNL     1       1.075   9.517  20.444  0.00  0.00    +0.000 C 
ATOM      9  O   UNL     1       1.163  10.410  19.601  0.00  0.00    +0.000 OA
ATOM     10  N   UNL     1       0.517   9.753  21.690  0.00  0.00    +0.000 N 
ATOM     11  H   UNL     1       0.409   9.000  22.352  0.00  0.00    +0.000 HD
BRANCH  10  12
ATOM     12  C   UNL     1      -0.033  11.039  22.031  0.00  0.00    +0.000 C 
ATOM     13  C   UNL     1      -1.189  11.140  22.988  0.00  0.00    +0.000 C 
ATOM     14  C   UNL     1      -1.390  11.455  21.537  0.00  0.00    +0.000 C 
ENDBRANCH  10  12
ENDBRANCH   5   8
BRANCH   7  15
ATOM     15  N   UNL     1       3.473   5.999  17.552  0.00  0.00    +0.000 N 
ATOM     16  C   UNL     1       4.830   5.727  17.483  0.00  0.00    +0.000 C 
ATOM     17  O   UNL     1       5.608   5.861  18.425  0.00  0.00    +0.000 OA
ATOM     18  H   UNL     1       2.938   5.864  16.705  0.00  0.00    +0.000 HD
BRANCH  16  19
ATOM     19  C   UNL     1       5.389   5.119  16.203  0.00  0.00    +0.000 C 
ATOM     20  C   UNL     1       4.757   4.642  15.110  0.00  0.00    +0.000 C 
ATOM     21  C   UNL     1       5.621   4.270  13.949  0.00  0.00    +0.000 A 
ATOM     22  C   UNL     1       5.254   3.376  12.937  0.00  0.00    +0.000 A 
ATOM     23  C   UNL     1       6.157   3.056  11.902  0.00  0.00    +0.000 A 
ATOM     24  C   UNL     1       7.411   3.669  11.829  0.00  0.00    +0.000 A 
ATOM     25  C   UNL     1       7.774   4.594  12.800  0.00  0.00    +0.000 A 
ATOM     26  C   UNL     1       6.899   4.853  13.858  0.00  0.00    +0.000 A 
ATOM     27  O   UNL     1       7.358   5.684  14.851  0.00  0.00    +0.000 OA
ATOM     28  C   UNL     1       6.902   5.210  16.132  0.00  0.00    +0.000 C 
ENDBRANCH  16  19
ENDBRANCH   7  15
TORSDOF 4
ENDMDL
