MODEL 1
REMARK VINA RESULT:      -8.1      0.000      0.000
REMARK  Name = 
REMARK  6 active torsions:
REMARK  status: ('A' for Active; 'I' for Inactive)
REMARK    1  A    between atoms: S_2  and  N_4
REMARK    2  A    between atoms: S_2  and  C_17
REMARK    3  A    between atoms: N_4  and  C_5
REMARK    4  A    between atoms: C_11  and  N_12
REMARK    5  A    between atoms: C_20  and  S_21
REMARK    6  A    between atoms: S_21  and  N_24
REMARK                            x       y       z     vdW  Elec       q    Type
REMARK                         _______ _______ _______ _____ _____    ______ ____
ROOT
ATOM      1  O   UNL     1       4.000   7.391  17.295  0.00  0.00    +0.000 OA
ATOM      2  S   UNL     1       3.000   6.844  18.186  0.00  0.00    +0.000 S 
ATOM      3  O   UNL     1       2.061   5.837  17.739  0.00  0.00    +0.000 OA
ENDROOT
BRANCH   2   4
ATOM      4  C   UNL     1       2.028   8.199  18.816  0.00  0.00    +0.000 A 
ATOM      5  C   UNL     1       1.528   9.149  17.920  0.00  0.00    +0.000 A 
ATOM      6  C   UNL     1       0.657  10.142  18.375  0.00  0.00    +0.000 A 
ATOM      7  C   UNL     1       0.275  10.172  19.724  0.00  0.00    +0.000 A 
ATOM      8  C   UNL     1       0.815   9.247  20.627  0.00  0.00    +0.000 A 
ATOM      9  C   UNL     1       1.670   8.238  20.168  0.00  0.00    +0.000 A 
BRANCH   7  10
ATOM     10  S   UNL     1      -0.826  11.457  20.299  0.00  0.00    +0.000 S 
ATOM     11  O   UNL     1      -1.903  11.542  19.331  0.00  0.00    +0.000 OA
ATOM     12  O   UNL     1      -1.104  11.186  21.694  0.00  0.00    +0.000 OA
BRANCH  10  13
ATOM     13  N   UNL     1       0.060  12.885  20.233  0.00  0.00    +0.000 NA
ATOM     14  C   UNL     1      -0.029  13.779  19.074  0.00  0.00    +0.000 C 
ATOM     15  C   UNL     1       1.359  13.728  18.468  0.00  0.00    +0.000 C 
ATOM     16  C   UNL     1       2.281  13.577  19.667  0.00  0.00    +0.000 C 
ATOM     17  C   UNL     1       1.437  12.925  20.763  0.00  0.00    +0.000 C 
ENDBRANCH  10  13
ENDBRANCH   7  10
ENDBRANCH   2   4
BRANCH   2  18
ATOM     18  N   UNL     1       3.757   6.217  19.570  0.00  0.00    +0.000 N 
ATOM     19  H   UNL     1       3.422   6.786  20.360  0.00  0.00    +0.000 HD
BRANCH  18  20
ATOM     20  C   UNL     1       3.659   4.804  19.810  0.00  0.00    +0.000 A 
ATOM     21  C   UNL     1       2.650   4.378  20.683  0.00  0.00    +0.000 A 
ATOM     22  C   UNL     1       2.467   3.019  20.937  0.00  0.00    +0.000 A 
ATOM     23 CL   UNL     1       1.208   2.506  21.988  0.00  0.00    +0.000 Cl
ATOM     24  C   UNL     1       3.287   2.070  20.334  0.00  0.00    +0.000 A 
ATOM     25  C   UNL     1       4.332   2.484  19.506  0.00  0.00    +0.000 A 
ATOM     26  C   UNL     1       4.539   3.853  19.250  0.00  0.00    +0.000 A 
BRANCH  26  27
ATOM     27  N   UNL     1       5.633   4.233  18.426  0.00  0.00    +0.000 N 
ATOM     28  C   UNL     1       5.719   4.191  17.053  0.00  0.00    +0.000 A 
ATOM     29  N   UNL     1       6.889   4.627  16.648  0.00  0.00    +0.000 NA
ATOM     30  C   UNL     1       7.517   4.922  17.820  0.00  0.00    +0.000 A 
ATOM     31  N   UNL     1       6.796   4.726  18.929  0.00  0.00    +0.000 NA
ENDBRANCH  26  27
ENDBRANCH  18  20
ENDBRANCH   2  18
TORSDOF 6
ENDMDL
MODEL 2
REMARK VINA RESULT:      -7.9      0.716      1.393
REMARK  Name = 
REMARK  6 active torsions:
REMARK  status: ('A' for Active; 'I' for Inactive)
REMARK    1  A    between atoms: S_2  and  N_4
REMARK    2  A    between atoms: S_2  and  C_17
REMARK    3  A    between atoms: N_4  and  C_5
REMARK    4  A    between atoms: C_11  and  N_12
REMARK    5  A    between atoms: C_20  and  S_21
REMARK    6  A    between atoms: S_21  and  N_24
REMARK                            x       y       z     vdW  Elec       q    Type
REMARK                         _______ _______ _______ _____ _____    ______ ____
ROOT
ATOM      1  O   UNL     1       4.020   7.346  17.305  0.00  0.00    +0.000 OA
ATOM      2  S   UNL     1       2.997   6.830  18.188  0.00  0.00    +0.000 S 
ATOM      3  O   UNL     1       2.054   5.825  17.745  0.00  0.00    +0.000 OA
ENDROOT
BRANCH   2   4
ATOM      4  C   UNL     1       2.031   8.210  18.771  0.00  0.00    +0.000 A 
ATOM      5  C   UNL     1       1.596   8.220  20.100  0.00  0.00    +0.000 A 
ATOM      6  C   UNL     1       0.953   9.350  20.611  0.00  0.00    +0.000 A 
ATOM      7  C   UNL     1       0.760  10.474  19.796  0.00  0.00    +0.000 A 
ATOM      8  C   UNL     1       1.156  10.442  18.452  0.00  0.00    +0.000 A 
ATOM      9  C   UNL     1       1.821   9.320  17.945  0.00  0.00    +0.000 A 
BRANCH   7  10
ATOM     10  S   UNL     1      -0.080  11.908  20.454  0.00  0.00    +0.000 S 
ATOM     11  O   UNL     1      -1.477  11.770  20.091  0.00  0.00    +0.000 OA
ATOM     12  O   UNL     1       0.317  12.032  21.841  0.00  0.00    +0.000 OA
BRANCH  10  13
ATOM     13  N   UNL     1       0.555  13.230  19.631  0.00  0.00    +0.000 NA
ATOM     14  C   UNL     1       1.441  14.185  20.303  0.00  0.00    +0.000 C 
ATOM     15  C   UNL     1       0.647  15.477  20.308  0.00  0.00    +0.000 C 
ATOM     16  C   UNL     1      -0.134  15.435  19.005  0.00  0.00    +0.000 C 
ATOM     17  C   UNL     1      -0.273  13.955  18.648  0.00  0.00    +0.000 C 
ENDBRANCH  10  13
ENDBRANCH   7  10
ENDBRANCH   2   4
BRANCH   2  18
ATOM     18  N   UNL     1       3.721   6.223  19.599  0.00  0.00    +0.000 N 
ATOM     19  H   UNL     1       3.348   6.788  20.375  0.00  0.00    +0.000 HD
BRANCH  18  20
ATOM     20  C   UNL     1       3.644   4.810  19.842  0.00  0.00    +0.000 A 
ATOM     21  C   UNL     1       2.628   4.368  20.698  0.00  0.00    +0.000 A 
ATOM     22  C   UNL     1       2.465   3.006  20.953  0.00  0.00    +0.000 A 
ATOM     23 CL   UNL     1       1.198   2.473  21.984  0.00  0.00    +0.000 Cl
ATOM     24  C   UNL     1       3.312   2.071  20.368  0.00  0.00    +0.000 A 
ATOM     25  C   UNL     1       4.363   2.502  19.556  0.00  0.00    +0.000 A 
ATOM     26  C   UNL     1       4.551   3.873  19.299  0.00  0.00    +0.000 A 
BRANCH  26  27
ATOM     27  N   UNL     1       5.651   4.270  18.493  0.00  0.00    +0.000 N 
ATOM     28  C   UNL     1       5.773   4.198  17.124  0.00  0.00    +0.000 A 
ATOM     29  N   UNL     1       6.938   4.665  16.737  0.00  0.00    +0.000 NA
ATOM     30  C   UNL     1       7.525   5.009  17.917  0.00  0.00    +0.000 A 
ATOM     31  N   UNL     1       6.784   4.815  19.012  0.00  0.00    +0.000 NA
ENDBRANCH  26  27
ENDBRANCH  18  20
ENDBRANCH   2  18
TORSDOF 6
ENDMDL
MODEL 3
REMARK VINA RESULT:      -7.8      3.117      8.962
REMARK  Name = 
REMARK  6 active torsions:
REMARK  status: ('A' for Active; 'I' for Inactive)
REMARK    1  A    between atoms: S_2  and  N_4
REMARK    2  A    between atoms: S_2  and  C_17
REMARK    3  A    between atoms: N_4  and  C_5
REMARK    4  A    between atoms: C_11  and  N_12
REMARK    5  A    between atoms: C_20  and  S_21
REMARK    6  A    between atoms: S_21  and  N_24
REMARK                            x       y       z     vdW  Elec       q    Type
REMARK                         _______ _______ _______ _____ _____    ______ ____
ROOT
ATOM      1  O   UNL     1       1.578   9.598  22.108  0.00  0.00    +0.000 OA
ATOM      2  S   UNL     1       0.801   9.161  20.968  0.00  0.00    +0.000 S 
ATOM      3  O   UNL     1      -0.569   8.717  21.116  0.00  0.00    +0.000 OA
ENDROOT
BRANCH   2   4
ATOM      4  C   UNL     1       1.684   7.826  20.184  0.00  0.00    +0.000 A 
ATOM      5  C   UNL     1       2.256   8.038  18.926  0.00  0.00    +0.000 A 
ATOM      6  C   UNL     1       3.062   7.051  18.354  0.00  0.00    +0.000 A 
ATOM      7  C   UNL     1       3.309   5.860  19.050  0.00  0.00    +0.000 A 
ATOM      8  C   UNL     1       2.696   5.632  20.289  0.00  0.00    +0.000 A 
ATOM      9  C   UNL     1       1.907   6.629  20.874  0.00  0.00    +0.000 A 
BRANCH   7  10
ATOM     10  S   UNL     1       4.327   4.596  18.301  0.00  0.00    +0.000 S 
ATOM     11  O   UNL     1       4.715   5.097  16.997  0.00  0.00    +0.000 OA
ATOM     12  O   UNL     1       5.328   4.223  19.279  0.00  0.00    +0.000 OA
BRANCH  10  13
ATOM     13  N   UNL     1       3.321   3.265  18.082  0.00  0.00    +0.000 NA
ATOM     14  C   UNL     1       1.994   3.412  17.475  0.00  0.00    +0.000 C 
ATOM     15  C   UNL     1       1.040   3.048  18.595  0.00  0.00    +0.000 C 
ATOM     16  C   UNL     1       1.777   1.970  19.373  0.00  0.00    +0.000 C 
ATOM     17  C   UNL     1       3.264   2.206  19.107  0.00  0.00    +0.000 C 
ENDBRANCH  10  13
ENDBRANCH   7  10
ENDBRANCH   2   4
BRANCH   2  18
ATOM     18  N   UNL     1       0.789  10.381  19.789  0.00  0.00    +0.000 N 
ATOM     19  H   UNL     1       1.441  10.073  19.055  0.00  0.00    +0.000 HD
BRANCH  18  20
ATOM     20  C   UNL     1      -0.482  10.807  19.272  0.00  0.00    +0.000 A 
ATOM     21  C   UNL     1      -0.933  10.180  18.103  0.00  0.00    +0.000 A 
ATOM     22  C   UNL     1      -2.175  10.512  17.562  0.00  0.00    +0.000 A 
ATOM     23 CL   UNL     1      -2.730   9.717  16.142  0.00  0.00    +0.000 Cl
ATOM     24  C   UNL     1      -2.977  11.472  18.169  0.00  0.00    +0.000 A 
ATOM     25  C   UNL     1      -2.516  12.143  19.302  0.00  0.00    +0.000 A 
ATOM     26  C   UNL     1      -1.259  11.831  19.854  0.00  0.00    +0.000 A 
BRANCH  26  27
ATOM     27  N   UNL     1      -0.815  12.560  20.990  0.00  0.00    +0.000 N 
ATOM     28  C   UNL     1      -1.186  12.396  22.305  0.00  0.00    +0.000 A 
ATOM     29  N   UNL     1      -0.559  13.256  23.075  0.00  0.00    +0.000 NA
ATOM     30  C   UNL     1       0.194  13.957  22.182  0.00  0.00    +0.000 A 
ATOM     31  N   UNL     1       0.098  13.565  20.908  0.00  0.00    +0.000 NA
ENDBRANCH  26  27
ENDBRANCH  18  20
ENDBRANCH   2  18
TORSDOF 6
ENDMDL
MODEL 4
REMARK VINA RESULT:      -7.8      1.393      1.836
REMARK  Name = 
REMARK  6 active torsions:
REMARK  status: ('A' for Active; 'I' for Inactive)
REMARK    1  A    between atoms: S_2  and  N_4
REMARK    2  A    between atoms: S_2  and  C_17
REMARK    3  A    between atoms: N_4  and  C_5
REMARK    4  A    between atoms: C_11  and  N_12
REMARK    5  A    between atoms: C_20  and  S_21
REMARK    6  A    between atoms: S_21  and  N_24
REMARK                            x       y       z     vdW  Elec       q    Type
REMARK                         _______ _______ _______ _____ _____    ______ ____
ROOT
ATOM      1  O   UNL     1       4.040   7.279  17.351  0.00  0.00    +0.000 OA
ATOM      2  S   UNL     1       2.979   6.851  18.237  0.00  0.00    +0.000 S 
ATOM      3  O   UNL     1       1.990   5.881  17.816  0.00  0.00    +0.000 OA
ENDROOT
BRANCH   2   4
ATOM      4  C   UNL     1       2.079   8.301  18.753  0.00  0.00    +0.000 A 
ATOM      5  C   UNL     1       1.850   9.323  17.826  0.00  0.00    +0.000 A 
ATOM      6  C   UNL     1       1.036  10.404  18.171  0.00  0.00    +0.000 A 
ATOM      7  C   UNL     1       0.439  10.453  19.439  0.00  0.00    +0.000 A 
ATOM      8  C   UNL     1       0.709   9.451  20.380  0.00  0.00    +0.000 A 
ATOM      9  C   UNL     1       1.506   8.356  20.028  0.00  0.00    +0.000 A 
BRANCH   7  10
ATOM     10  S   UNL     1      -0.586  11.850  19.877  0.00  0.00    +0.000 S 
ATOM     11  O   UNL     1      -0.015  13.006  19.212  0.00  0.00    +0.000 OA
ATOM     12  O   UNL     1      -1.960  11.461  19.636  0.00  0.00    +0.000 OA
BRANCH  10  13
ATOM     13  N   UNL     1      -0.405  12.049  21.538  0.00  0.00    +0.000 NA
ATOM     14  C   UNL     1      -1.154  11.218  22.485  0.00  0.00    +0.000 C 
ATOM     15  C   UNL     1      -2.068  12.202  23.189  0.00  0.00    +0.000 C 
ATOM     16  C   UNL     1      -1.249  13.480  23.261  0.00  0.00    +0.000 C 
ATOM     17  C   UNL     1      -0.249  13.401  22.107  0.00  0.00    +0.000 C 
ENDBRANCH  10  13
ENDBRANCH   7  10
ENDBRANCH   2   4
BRANCH   2  18
ATOM     18  N   UNL     1       3.649   6.261  19.681  0.00  0.00    +0.000 N 
ATOM     19  H   UNL     1       3.225   6.814  20.438  0.00  0.00    +0.000 HD
BRANCH  18  20
ATOM     20  C   UNL     1       3.598   4.845  19.919  0.00  0.00    +0.000 A 
ATOM     21  C   UNL     1       2.583   4.382  20.765  0.00  0.00    +0.000 A 
ATOM     22  C   UNL     1       2.444   3.016  21.014  0.00  0.00    +0.000 A 
ATOM     23 CL   UNL     1       1.178   2.456  22.032  0.00  0.00    +0.000 Cl
ATOM     24  C   UNL     1       3.314   2.099  20.434  0.00  0.00    +0.000 A 
ATOM     25  C   UNL     1       4.364   2.553  19.633  0.00  0.00    +0.000 A 
ATOM     26  C   UNL     1       4.527   3.928  19.382  0.00  0.00    +0.000 A 
BRANCH  26  27
ATOM     27  N   UNL     1       5.627   4.349  18.587  0.00  0.00    +0.000 N 
ATOM     28  C   UNL     1       5.783   4.239  17.224  0.00  0.00    +0.000 A 
ATOM     29  N   UNL     1       6.934   4.745  16.847  0.00  0.00    +0.000 NA
ATOM     30  C   UNL     1       7.479   5.153  18.027  0.00  0.00    +0.000 A 
ATOM     31  N   UNL     1       6.722   4.961  19.112  0.00  0.00    +0.000 NA
ENDBRANCH  26  27
ENDBRANCH  18  20
ENDBRANCH   2  18
TORSDOF 6
ENDMDL
MODEL 5
REMARK VINA RESULT:      -7.7      3.216      9.092
REMARK  Name = 
REMARK  6 active torsions:
REMARK  status: ('A' for Active; 'I' for Inactive)
REMARK    1  A    between atoms: S_2  and  N_4
REMARK    2  A    between atoms: S_2  and  C_17
REMARK    3  A    between atoms: N_4  and  C_5
REMARK    4  A    between atoms: C_11  and  N_12
REMARK    5  A    between atoms: C_20  and  S_21
REMARK    6  A    between atoms: S_21  and  N_24
REMARK                            x       y       z     vdW  Elec       q    Type
REMARK                         _______ _______ _______ _____ _____    ______ ____
ROOT
ATOM      1  O   UNL     1       1.310  10.141  21.904  0.00  0.00    +0.000 OA
ATOM      2  S   UNL     1       0.592   9.594  20.773  0.00  0.00    +0.000 S 
ATOM      3  O   UNL     1      -0.699   8.959  20.935  0.00  0.00    +0.000 OA
ENDROOT
BRANCH   2   4
ATOM      4  C   UNL     1       1.649   8.399  19.979  0.00  0.00    +0.000 A 
ATOM      5  C   UNL     1       1.964   7.216  20.656  0.00  0.00    +0.000 A 
ATOM      6  C   UNL     1       2.680   6.211  20.001  0.00  0.00    +0.000 A 
ATOM      7  C   UNL     1       3.066   6.385  18.665  0.00  0.00    +0.000 A 
ATOM      8  C   UNL     1       2.789   7.589  18.006  0.00  0.00    +0.000 A 
ATOM      9  C   UNL     1       2.052   8.588  18.652  0.00  0.00    +0.000 A 
BRANCH   7  10
ATOM     10  S   UNL     1       3.997   5.100  17.843  0.00  0.00    +0.000 S 
ATOM     11  O   UNL     1       4.457   5.663  16.588  0.00  0.00    +0.000 OA
ATOM     12  O   UNL     1       4.939   4.573  18.808  0.00  0.00    +0.000 OA
BRANCH  10  13
ATOM     13  N   UNL     1       2.892   3.878  17.503  0.00  0.00    +0.000 NA
ATOM     14  C   UNL     1       1.450   4.097  17.655  0.00  0.00    +0.000 C 
ATOM     15  C   UNL     1       1.056   3.160  18.779  0.00  0.00    +0.000 C 
ATOM     16  C   UNL     1       1.969   1.958  18.595  0.00  0.00    +0.000 C 
ATOM     17  C   UNL     1       3.203   2.480  17.859  0.00  0.00    +0.000 C 
ENDBRANCH  10  13
ENDBRANCH   7  10
ENDBRANCH   2   4
BRANCH   2  18
ATOM     18  N   UNL     1       0.392  10.799  19.593  0.00  0.00    +0.000 N 
ATOM     19  H   UNL     1       1.091  10.600  18.864  0.00  0.00    +0.000 HD
BRANCH  18  20
ATOM     20  C   UNL     1      -0.927  11.015  19.067  0.00  0.00    +0.000 A 
ATOM     21  C   UNL     1      -1.253  10.349  17.879  0.00  0.00    +0.000 A 
ATOM     22  C   UNL     1      -2.527  10.478  17.327  0.00  0.00    +0.000 A 
ATOM     23 CL   UNL     1      -2.925   9.635  15.884  0.00  0.00    +0.000 Cl
ATOM     24  C   UNL     1      -3.487  11.276  17.942  0.00  0.00    +0.000 A 
ATOM     25  C   UNL     1      -3.158  11.988  19.096  0.00  0.00    +0.000 A 
ATOM     26  C   UNL     1      -1.872  11.880  19.660  0.00  0.00    +0.000 A 
BRANCH  26  27
ATOM     27  N   UNL     1      -1.570  12.647  20.817  0.00  0.00    +0.000 N 
ATOM     28  C   UNL     1      -1.280  13.990  20.896  0.00  0.00    +0.000 A 
ATOM     29  N   UNL     1      -1.057  14.344  22.141  0.00  0.00    +0.000 NA
ATOM     30  C   UNL     1      -1.207  13.169  22.814  0.00  0.00    +0.000 A 
ATOM     31  N   UNL     1      -1.542  12.112  22.067  0.00  0.00    +0.000 NA
ENDBRANCH  26  27
ENDBRANCH  18  20
ENDBRANCH   2  18
TORSDOF 6
ENDMDL
MODEL 6
REMARK VINA RESULT:      -7.6      3.025      9.001
REMARK  Name = 
REMARK  6 active torsions:
REMARK  status: ('A' for Active; 'I' for Inactive)
REMARK    1  A    between atoms: S_2  and  N_4
REMARK    2  A    between atoms: S_2  and  C_17
REMARK    3  A    between atoms: N_4  and  C_5
REMARK    4  A    between atoms: C_11  and  N_12
REMARK    5  A    between atoms: C_20  and  S_21
REMARK    6  A    between atoms: S_21  and  N_24
REMARK                            x       y       z     vdW  Elec       q    Type
REMARK                         _______ _______ _______ _____ _____    ______ ____
ROOT
ATOM      1  O   UNL     1       1.457  10.416  21.615  0.00  0.00    +0.000 OA
ATOM      2  S   UNL     1       0.658   9.707  20.639  0.00  0.00    +0.000 S 
ATOM      3  O   UNL     1      -0.641   9.165  20.979  0.00  0.00    +0.000 OA
ENDROOT
BRANCH   2   4
ATOM      4  C   UNL     1       1.629   8.348  20.020  0.00  0.00    +0.000 A 
ATOM      5  C   UNL     1       1.720   7.177  20.780  0.00  0.00    +0.000 A 
ATOM      6  C   UNL     1       2.365   6.056  20.253  0.00  0.00    +0.000 A 
ATOM      7  C   UNL     1       2.903   6.102  18.960  0.00  0.00    +0.000 A 
ATOM      8  C   UNL     1       2.851   7.290  18.220  0.00  0.00    +0.000 A 
ATOM      9  C   UNL     1       2.185   8.408  18.737  0.00  0.00    +0.000 A 
BRANCH   7  10
ATOM     10  S   UNL     1       3.742   4.667  18.302  0.00  0.00    +0.000 S 
ATOM     11  O   UNL     1       4.182   3.887  19.444  0.00  0.00    +0.000 OA
ATOM     12  O   UNL     1       2.871   4.087  17.301  0.00  0.00    +0.000 OA
BRANCH  10  13
ATOM     13  N   UNL     1       5.101   5.255  17.504  0.00  0.00    +0.000 NA
ATOM     14  C   UNL     1       5.219   5.166  16.045  0.00  0.00    +0.000 C 
ATOM     15  C   UNL     1       6.385   4.221  15.831  0.00  0.00    +0.000 C 
ATOM     16  C   UNL     1       7.320   4.520  16.991  0.00  0.00    +0.000 C 
ATOM     17  C   UNL     1       6.439   5.089  18.103  0.00  0.00    +0.000 C 
ENDBRANCH  10  13
ENDBRANCH   7  10
ENDBRANCH   2   4
BRANCH   2  18
ATOM     18  N   UNL     1       0.428  10.691  19.274  0.00  0.00    +0.000 N 
ATOM     19  H   UNL     1       1.027  10.295  18.536  0.00  0.00    +0.000 HD
BRANCH  18  20
ATOM     20  C   UNL     1      -0.918  10.936  18.839  0.00  0.00    +0.000 A 
ATOM     21  C   UNL     1      -1.318  10.326  17.642  0.00  0.00    +0.000 A 
ATOM     22  C   UNL     1      -2.622  10.485  17.174  0.00  0.00    +0.000 A 
ATOM     23 CL   UNL     1      -3.110   9.711  15.719  0.00  0.00    +0.000 Cl
ATOM     24  C   UNL     1      -3.539  11.256  17.881  0.00  0.00    +0.000 A 
ATOM     25  C   UNL     1      -3.138  11.913  19.045  0.00  0.00    +0.000 A 
ATOM     26  C   UNL     1      -1.822  11.775  19.526  0.00  0.00    +0.000 A 
BRANCH  26  27
ATOM     27  N   UNL     1      -1.447  12.486  20.697  0.00  0.00    +0.000 N 
ATOM     28  C   UNL     1      -2.035  12.449  21.940  0.00  0.00    +0.000 A 
ATOM     29  N   UNL     1      -1.405  13.242  22.775  0.00  0.00    +0.000 NA
ATOM     30  C   UNL     1      -0.424  13.774  21.995  0.00  0.00    +0.000 A 
ATOM     31  N   UNL     1      -0.385  13.334  20.733  0.00  0.00    +0.000 NA
ENDBRANCH  26  27
ENDBRANCH  18  20
ENDBRANCH   2  18
TORSDOF 6
ENDMDL
MODEL 7
REMARK VINA RESULT:      -7.6      1.317      2.066
REMARK  Name = 
REMARK  6 active torsions:
REMARK  status: ('A' for Active; 'I' for Inactive)
REMARK    1  A    between atoms: S_2  and  N_4
REMARK    2  A    between atoms: S_2  and  C_17
REMARK    3  A    between atoms: N_4  and  C_5
REMARK    4  A    between atoms: C_11  and  N_12
REMARK    5  A    between atoms: C_20  and  S_21
REMARK    6  A    between atoms: S_21  and  N_24
REMARK                            x       y       z     vdW  Elec       q    Type
REMARK                         _______ _______ _______ _____ _____    ______ ____
ROOT
ATOM      1  O   UNL     1       4.059   7.124  17.191  0.00  0.00    +0.000 OA
ATOM      2  S   UNL     1       3.031   6.734  18.132  0.00  0.00    +0.000 S 
ATOM      3  O   UNL     1       1.997   5.789  17.769  0.00  0.00    +0.000 OA
ENDROOT
BRANCH   2   4
ATOM      4  C   UNL     1       2.199   8.212  18.678  0.00  0.00    +0.000 A 
ATOM      5  C   UNL     1       1.688   8.261  19.979  0.00  0.00    +0.000 A 
ATOM      6  C   UNL     1       1.152   9.454  20.469  0.00  0.00    +0.000 A 
ATOM      7  C   UNL     1       1.141  10.600  19.663  0.00  0.00    +0.000 A 
ATOM      8  C   UNL     1       1.611  10.534  18.344  0.00  0.00    +0.000 A 
ATOM      9  C   UNL     1       2.170   9.346  17.859  0.00  0.00    +0.000 A 
BRANCH   7  10
ATOM     10  S   UNL     1       0.436  12.116  20.293  0.00  0.00    +0.000 S 
ATOM     11  O   UNL     1       0.221  11.912  21.713  0.00  0.00    +0.000 OA
ATOM     12  O   UNL     1       1.268  13.202  19.819  0.00  0.00    +0.000 OA
BRANCH  10  13
ATOM     13  N   UNL     1      -1.064  12.271  19.546  0.00  0.00    +0.000 NA
ATOM     14  C   UNL     1      -2.125  11.284  19.767  0.00  0.00    +0.000 C 
ATOM     15  C   UNL     1      -2.313  10.641  18.407  0.00  0.00    +0.000 C 
ATOM     16  C   UNL     1      -2.054  11.772  17.425  0.00  0.00    +0.000 C 
ATOM     17  C   UNL     1      -1.149  12.762  18.157  0.00  0.00    +0.000 C 
ENDBRANCH  10  13
ENDBRANCH   7  10
ENDBRANCH   2   4
BRANCH   2  18
ATOM     18  N   UNL     1       3.756   6.136  19.546  0.00  0.00    +0.000 N 
ATOM     19  H   UNL     1       3.395   6.715  20.317  0.00  0.00    +0.000 HD
BRANCH  18  20
ATOM     20  C   UNL     1       3.663   4.726  19.807  0.00  0.00    +0.000 A 
ATOM     21  C   UNL     1       2.656   4.310  20.688  0.00  0.00    +0.000 A 
ATOM     22  C   UNL     1       2.478   2.955  20.962  0.00  0.00    +0.000 A 
ATOM     23 CL   UNL     1       1.222   2.453  22.023  0.00  0.00    +0.000 Cl
ATOM     24  C   UNL     1       3.300   2.000  20.372  0.00  0.00    +0.000 A 
ATOM     25  C   UNL     1       4.342   2.404  19.536  0.00  0.00    +0.000 A 
ATOM     26  C   UNL     1       4.545   3.770  19.260  0.00  0.00    +0.000 A 
BRANCH  26  27
ATOM     27  N   UNL     1       5.636   4.140  18.428  0.00  0.00    +0.000 N 
ATOM     28  C   UNL     1       5.731   4.051  17.059  0.00  0.00    +0.000 A 
ATOM     29  N   UNL     1       6.895   4.494  16.645  0.00  0.00    +0.000 NA
ATOM     30  C   UNL     1       7.510   4.843  17.809  0.00  0.00    +0.000 A 
ATOM     31  N   UNL     1       6.786   4.673  18.920  0.00  0.00    +0.000 NA
ENDBRANCH  26  27
ENDBRANCH  18  20
ENDBRANCH   2  18
TORSDOF 6
ENDMDL
MODEL 8
REMARK VINA RESULT:      -7.6      3.519      9.453
REMARK  Name = 
REMARK  6 active torsions:
REMARK  status: ('A' for Active; 'I' for Inactive)
REMARK    1  A    between atoms: S_2  and  N_4
REMARK    2  A    between atoms: S_2  and  C_17
REMARK    3  A    between atoms: N_4  and  C_5
REMARK    4  A    between atoms: C_11  and  N_12
REMARK    5  A    between atoms: C_20  and  S_21
REMARK    6  A    between atoms: S_21  and  N_24
REMARK                            x       y       z     vdW  Elec       q    Type
REMARK                         _______ _______ _______ _____ _____    ______ ____
ROOT
ATOM      1  O   UNL     1       0.300  11.709  18.402  0.00  0.00    +0.000 OA
ATOM      2  S   UNL     1       0.077  10.816  19.518  0.00  0.00    +0.000 S 
ATOM      3  O   UNL     1       0.250  11.260  20.885  0.00  0.00    +0.000 OA
ENDROOT
BRANCH   2   4
ATOM      4  C   UNL     1       1.139   9.400  19.306  0.00  0.00    +0.000 A 
ATOM      5  C   UNL     1       1.340   8.535  20.386  0.00  0.00    +0.000 A 
ATOM      6  C   UNL     1       2.059   7.352  20.203  0.00  0.00    +0.000 A 
ATOM      7  C   UNL     1       2.564   7.029  18.936  0.00  0.00    +0.000 A 
ATOM      8  C   UNL     1       2.402   7.921  17.868  0.00  0.00    +0.000 A 
ATOM      9  C   UNL     1       1.661   9.096  18.044  0.00  0.00    +0.000 A 
BRANCH   7  10
ATOM     10  S   UNL     1       3.499   5.521  18.718  0.00  0.00    +0.000 S 
ATOM     11  O   UNL     1       3.601   5.303  17.287  0.00  0.00    +0.000 OA
ATOM     12  O   UNL     1       4.688   5.636  19.536  0.00  0.00    +0.000 OA
BRANCH  10  13
ATOM     13  N   UNL     1       2.554   4.295  19.376  0.00  0.00    +0.000 NA
ATOM     14  C   UNL     1       3.165   3.076  19.914  0.00  0.00    +0.000 C 
ATOM     15  C   UNL     1       2.670   1.982  18.988  0.00  0.00    +0.000 C 
ATOM     16  C   UNL     1       1.269   2.429  18.604  0.00  0.00    +0.000 C 
ATOM     17  C   UNL     1       1.258   3.950  18.761  0.00  0.00    +0.000 C 
ENDBRANCH  10  13
ENDBRANCH   7  10
ENDBRANCH   2   4
BRANCH   2  18
ATOM     18  N   UNL     1      -1.486  10.162  19.417  0.00  0.00    +0.000 N 
ATOM     19  H   UNL     1      -1.925  10.332  20.333  0.00  0.00    +0.000 HD
BRANCH  18  20
ATOM     20  C   UNL     1      -2.314  10.561  18.312  0.00  0.00    +0.000 A 
ATOM     21  C   UNL     1      -2.046   9.967  17.073  0.00  0.00    +0.000 A 
ATOM     22  C   UNL     1      -2.831  10.274  15.961  0.00  0.00    +0.000 A 
ATOM     23 CL   UNL     1      -2.510   9.518  14.451  0.00  0.00    +0.000 Cl
ATOM     24  C   UNL     1      -3.882  11.179  16.066  0.00  0.00    +0.000 A 
ATOM     25  C   UNL     1      -4.125  11.820  17.282  0.00  0.00    +0.000 A 
ATOM     26  C   UNL     1      -3.334  11.532  18.411  0.00  0.00    +0.000 A 
BRANCH  26  27
ATOM     27  N   UNL     1      -3.595  12.230  19.620  0.00  0.00    +0.000 N 
ATOM     28  C   UNL     1      -4.772  12.291  20.330  0.00  0.00    +0.000 A 
ATOM     29  N   UNL     1      -4.629  13.034  21.403  0.00  0.00    +0.000 NA
ATOM     30  C   UNL     1      -3.330  13.434  21.315  0.00  0.00    +0.000 A 
ATOM     31  N   UNL     1      -2.647  12.958  20.268  0.00  0.00    +0.000 NA
ENDBRANCH  26  27
ENDBRANCH  18  20
ENDBRANCH   2  18
TORSDOF 6
ENDMDL
MODEL 9
REMARK VINA RESULT:      -7.6      2.862      8.855
REMARK  Name = 
REMARK  6 active torsions:
REMARK  status: ('A' for Active; 'I' for Inactive)
REMARK    1  A    between atoms: S_2  and  N_4
REMARK    2  A    between atoms: S_2  and  C_17
REMARK    3  A    between atoms: N_4  and  C_5
REMARK    4  A    between atoms: C_11  and  N_12
REMARK    5  A    between atoms: C_20  and  S_21
REMARK    6  A    between atoms: S_21  and  N_24
REMARK                            x       y       z     vdW  Elec       q    Type
REMARK                         _______ _______ _______ _____ _____    ______ ____
ROOT
ATOM      1  O   UNL     1       1.720   9.450  22.361  0.00  0.00    +0.000 OA
ATOM      2  S   UNL     1       0.834   9.150  21.257  0.00  0.00    +0.000 S 
ATOM      3  O   UNL     1      -0.562   8.831  21.476  0.00  0.00    +0.000 OA
ENDROOT
BRANCH   2   4
ATOM      4  C   UNL     1       1.531   7.783  20.352  0.00  0.00    +0.000 A 
ATOM      5  C   UNL     1       2.159   8.030  19.127  0.00  0.00    +0.000 A 
ATOM      6  C   UNL     1       2.826   6.995  18.468  0.00  0.00    +0.000 A 
ATOM      7  C   UNL     1       2.876   5.717  19.042  0.00  0.00    +0.000 A 
ATOM      8  C   UNL     1       2.205   5.463  20.245  0.00  0.00    +0.000 A 
ATOM      9  C   UNL     1       1.556   6.504  20.919  0.00  0.00    +0.000 A 
BRANCH   7  10
ATOM     10  S   UNL     1       3.716   4.395  18.181  0.00  0.00    +0.000 S 
ATOM     11  O   UNL     1       4.212   3.489  19.199  0.00  0.00    +0.000 OA
ATOM     12  O   UNL     1       2.820   3.926  17.145  0.00  0.00    +0.000 OA
BRANCH  10  13
ATOM     13  N   UNL     1       5.035   5.110  17.418  0.00  0.00    +0.000 NA
ATOM     14  C   UNL     1       5.198   5.036  15.963  0.00  0.00    +0.000 C 
ATOM     15  C   UNL     1       6.452   4.204  15.779  0.00  0.00    +0.000 C 
ATOM     16  C   UNL     1       7.326   4.587  16.963  0.00  0.00    +0.000 C 
ATOM     17  C   UNL     1       6.366   5.068  18.051  0.00  0.00    +0.000 C 
ENDBRANCH  10  13
ENDBRANCH   7  10
ENDBRANCH   2   4
BRANCH   2  18
ATOM     18  N   UNL     1       0.867  10.429  20.141  0.00  0.00    +0.000 N 
ATOM     19  H   UNL     1       1.508  10.135  19.391  0.00  0.00    +0.000 HD
BRANCH  18  20
ATOM     20  C   UNL     1      -0.387  10.927  19.649  0.00  0.00    +0.000 A 
ATOM     21  C   UNL     1      -1.043  10.150  18.686  0.00  0.00    +0.000 A 
ATOM     22  C   UNL     1      -2.284  10.547  18.187  0.00  0.00    +0.000 A 
ATOM     23 CL   UNL     1      -3.093   9.572  17.026  0.00  0.00    +0.000 Cl
ATOM     24  C   UNL     1      -2.881  11.723  18.632  0.00  0.00    +0.000 A 
ATOM     25  C   UNL     1      -2.212  12.534  19.550  0.00  0.00    +0.000 A 
ATOM     26  C   UNL     1      -0.953  12.155  20.053  0.00  0.00    +0.000 A 
BRANCH  26  27
ATOM     27  N   UNL     1      -0.294  13.026  20.962  0.00  0.00    +0.000 N 
ATOM     28  C   UNL     1      -0.700  13.411  22.218  0.00  0.00    +0.000 A 
ATOM     29  N   UNL     1       0.176  14.225  22.760  0.00  0.00    +0.000 NA
ATOM     30  C   UNL     1       1.121  14.334  21.786  0.00  0.00    +0.000 A 
ATOM     31  N   UNL     1       0.902  13.610  20.683  0.00  0.00    +0.000 NA
ENDBRANCH  26  27
ENDBRANCH  18  20
ENDBRANCH   2  18
TORSDOF 6
ENDMDL
