MODEL 1
REMARK VINA RESULT:      -8.2      0.000      0.000
REMARK  Name = 
REMARK  7 active torsions:
REMARK  status: ('A' for Active; 'I' for Inactive)
REMARK    1  A    between atoms: C_1  and  C_2
REMARK    2  A    between atoms: C_6  and  N_7
REMARK    3  A    between atoms: C_11  and  S_12
REMARK    4  A    between atoms: S_12  and  C_13
REMARK    5  A    between atoms: C_13  and  C_14
REMARK    6  A    between atoms: N_16  and  C_17
REMARK    7  A    between atoms: C_17  and  C_18
REMARK                            x       y       z     vdW  Elec       q    Type
REMARK                         _______ _______ _______ _____ _____    ______ ____
ROOT
ATOM      1  C   UNL     1       3.426   3.278  17.684  0.00  0.00    +0.000 C 
ENDROOT
BRANCH   1   2
ATOM      2  C   UNL     1       2.468   3.780  18.750  0.00  0.00    +0.000 C 
ATOM      3  O   UNL     1       1.314   3.378  18.845  0.00  0.00    +0.000 OA
ATOM      4  N   UNL     1       3.015   4.717  19.599  0.00  0.00    +0.000 N 
ATOM      5  H   UNL     1       3.840   5.223  19.282  0.00  0.00    +0.000 HD
BRANCH   4   6
ATOM      6  C   UNL     1       2.249   5.315  20.667  0.00  0.00    +0.000 C 
BRANCH   6   7
ATOM      7  C   UNL     1       1.921   6.744  20.324  0.00  0.00    +0.000 A 
ATOM      8  C   UNL     1       1.138   7.530  21.200  0.00  0.00    +0.000 A 
ATOM      9  C   UNL     1       0.779   8.839  20.863  0.00  0.00    +0.000 A 
ATOM     10  C   UNL     1       1.209   9.331  19.650  0.00  0.00    +0.000 A 
ATOM     11  C   UNL     1       1.969   8.575  18.790  0.00  0.00    +0.000 A 
ATOM     12  C   UNL     1       2.338   7.282  19.094  0.00  0.00    +0.000 A 
ATOM     13  O   UNL     1       2.282   9.244  17.648  0.00  0.00    +0.000 OA
ATOM     14  C   UNL     1       1.632  10.509  17.889  0.00  0.00    +0.000 C 
ATOM     15  O   UNL     1       0.946  10.572  19.157  0.00  0.00    +0.000 OA
ENDBRANCH   6   7
ENDBRANCH   4   6
ENDBRANCH   1   2
BRANCH   1  16
ATOM     16  S   UNL     1       4.093   4.640  16.702  0.00  0.00    +0.000 S 
BRANCH  16  21
ATOM     17  N   UNL     1       6.836   4.431  16.157  0.00  0.00    +0.000 N 
ATOM     18  N   UNL     1       7.970   4.297  16.907  0.00  0.00    +0.000 NA
ATOM     19  N   UNL     1       7.610   4.414  18.174  0.00  0.00    +0.000 NA
ATOM     20  N   UNL     1       6.264   4.593  18.289  0.00  0.00    +0.000 NA
ATOM     21  C   UNL     1       5.785   4.578  17.062  0.00  0.00    +0.000 A 
BRANCH  17  27
ATOM     22  C   UNL     1       5.491   2.577  11.725  0.00  0.00    +0.000 C 
ATOM     23  C   UNL     1       6.298   3.552  12.533  0.00  0.00    +0.000 A 
ATOM     24  C   UNL     1       7.143   4.477  11.921  0.00  0.00    +0.000 A 
ATOM     25  C   UNL     1       7.870   5.376  12.698  0.00  0.00    +0.000 A 
ATOM     26  C   UNL     1       7.765   5.350  14.092  0.00  0.00    +0.000 A 
ATOM     27  C   UNL     1       6.922   4.422  14.732  0.00  0.00    +0.000 A 
ATOM     28  C   UNL     1       6.186   3.538  13.933  0.00  0.00    +0.000 A 
ENDBRANCH  17  27
ENDBRANCH  16  21
ENDBRANCH   1  16
TORSDOF 6
ENDMDL
MODEL 2
REMARK VINA RESULT:      -8.2      5.814      7.726
REMARK  Name = 
REMARK  7 active torsions:
REMARK  status: ('A' for Active; 'I' for Inactive)
REMARK    1  A    between atoms: C_1  and  C_2
REMARK    2  A    between atoms: C_6  and  N_7
REMARK    3  A    between atoms: C_11  and  S_12
REMARK    4  A    between atoms: S_12  and  C_13
REMARK    5  A    between atoms: C_13  and  C_14
REMARK    6  A    between atoms: N_16  and  C_17
REMARK    7  A    between atoms: C_17  and  C_18
REMARK                            x       y       z     vdW  Elec       q    Type
REMARK                         _______ _______ _______ _____ _____    ______ ____
ROOT
ATOM      1  C   UNL     1       8.018   6.320  18.638  0.00  0.00    +0.000 C 
ENDROOT
BRANCH   1   2
ATOM      2  C   UNL     1       7.816   7.594  17.836  0.00  0.00    +0.000 C 
ATOM      3  O   UNL     1       7.201   7.617  16.776  0.00  0.00    +0.000 OA
ATOM      4  N   UNL     1       8.377   8.713  18.410  0.00  0.00    +0.000 N 
ATOM      5  H   UNL     1       9.117   8.576  19.095  0.00  0.00    +0.000 HD
BRANCH   4   6
ATOM      6  C   UNL     1       8.294  10.011  17.783  0.00  0.00    +0.000 C 
BRANCH   6   7
ATOM      7  C   UNL     1       9.189  10.985  18.503  0.00  0.00    +0.000 A 
ATOM      8  C   UNL     1       9.556  10.763  19.850  0.00  0.00    +0.000 A 
ATOM      9  C   UNL     1      10.338  11.691  20.544  0.00  0.00    +0.000 A 
ATOM     10  C   UNL     1      10.732  12.829  19.873  0.00  0.00    +0.000 A 
ATOM     11  C   UNL     1      10.380  13.056  18.565  0.00  0.00    +0.000 A 
ATOM     12  C   UNL     1       9.610  12.159  17.855  0.00  0.00    +0.000 A 
ATOM     13  O   UNL     1      10.865  14.235  18.093  0.00  0.00    +0.000 OA
ATOM     14  C   UNL     1      11.564  14.725  19.257  0.00  0.00    +0.000 C 
ATOM     15  O   UNL     1      11.482  13.838  20.393  0.00  0.00    +0.000 OA
ENDBRANCH   6   7
ENDBRANCH   4   6
ENDBRANCH   1   2
BRANCH   1  16
ATOM     16  S   UNL     1       6.439   5.571  19.094  0.00  0.00    +0.000 S 
BRANCH  16  21
ATOM     17  N   UNL     1       4.849   3.944  17.453  0.00  0.00    +0.000 N 
ATOM     18  N   UNL     1       5.018   3.308  16.256  0.00  0.00    +0.000 NA
ATOM     19  N   UNL     1       6.189   3.695  15.776  0.00  0.00    +0.000 NA
ATOM     20  N   UNL     1       6.816   4.546  16.636  0.00  0.00    +0.000 NA
ATOM     21  C   UNL     1       6.013   4.680  17.672  0.00  0.00    +0.000 A 
BRANCH  17  27
ATOM     22  C   UNL     1       2.400   2.786  21.642  0.00  0.00    +0.000 C 
ATOM     23  C   UNL     1       2.379   3.221  20.205  0.00  0.00    +0.000 A 
ATOM     24  C   UNL     1       1.181   3.483  19.543  0.00  0.00    +0.000 A 
ATOM     25  C   UNL     1       1.196   3.895  18.213  0.00  0.00    +0.000 A 
ATOM     26  C   UNL     1       2.409   4.040  17.533  0.00  0.00    +0.000 A 
ATOM     27  C   UNL     1       3.632   3.778  18.180  0.00  0.00    +0.000 A 
ATOM     28  C   UNL     1       3.596   3.380  19.521  0.00  0.00    +0.000 A 
ENDBRANCH  17  27
ENDBRANCH  16  21
ENDBRANCH   1  16
TORSDOF 6
ENDMDL
MODEL 3
REMARK VINA RESULT:      -8.1      1.746      2.538
REMARK  Name = 
REMARK  7 active torsions:
REMARK  status: ('A' for Active; 'I' for Inactive)
REMARK    1  A    between atoms: C_1  and  C_2
REMARK    2  A    between atoms: C_6  and  N_7
REMARK    3  A    between atoms: C_11  and  S_12
REMARK    4  A    between atoms: S_12  and  C_13
REMARK    5  A    between atoms: C_13  and  C_14
REMARK    6  A    between atoms: N_16  and  C_17
REMARK    7  A    between atoms: C_17  and  C_18
REMARK                            x       y       z     vdW  Elec       q    Type
REMARK                         _______ _______ _______ _____ _____    ______ ____
ROOT
ATOM      1  C   UNL     1       3.675   6.186  17.756  0.00  0.00    +0.000 C 
ENDROOT
BRANCH   1   2
ATOM      2  C   UNL     1       2.782   5.991  18.969  0.00  0.00    +0.000 C 
ATOM      3  O   UNL     1       2.339   4.895  19.294  0.00  0.00    +0.000 OA
ATOM      4  N   UNL     1       2.524   7.149  19.668  0.00  0.00    +0.000 N 
ATOM      5  H   UNL     1       2.652   8.035  19.184  0.00  0.00    +0.000 HD
BRANCH   4   6
ATOM      6  C   UNL     1       1.686   7.157  20.843  0.00  0.00    +0.000 C 
BRANCH   6   7
ATOM      7  C   UNL     1       0.985   8.484  20.964  0.00  0.00    +0.000 A 
ATOM      8  C   UNL     1       0.940   9.374  19.866  0.00  0.00    +0.000 A 
ATOM      9  C   UNL     1       0.342  10.633  19.986  0.00  0.00    +0.000 A 
ATOM     10  C   UNL     1      -0.193  10.976  21.208  0.00  0.00    +0.000 A 
ATOM     11  C   UNL     1      -0.153  10.119  22.282  0.00  0.00    +0.000 A 
ATOM     12  C   UNL     1       0.428   8.873  22.194  0.00  0.00    +0.000 A 
ATOM     13  O   UNL     1      -0.731  10.651  23.393  0.00  0.00    +0.000 OA
ATOM     14  C   UNL     1      -1.140  11.942  22.893  0.00  0.00    +0.000 C 
ATOM     15  O   UNL     1      -0.800  12.156  21.507  0.00  0.00    +0.000 OA
ENDBRANCH   6   7
ENDBRANCH   4   6
ENDBRANCH   1   2
BRANCH   1  16
ATOM     16  S   UNL     1       4.170   4.602  17.040  0.00  0.00    +0.000 S 
BRANCH  16  21
ATOM     17  N   UNL     1       6.888   4.457  16.363  0.00  0.00    +0.000 N 
ATOM     18  N   UNL     1       8.059   4.342  17.056  0.00  0.00    +0.000 NA
ATOM     19  N   UNL     1       7.758   4.442  18.341  0.00  0.00    +0.000 NA
ATOM     20  N   UNL     1       6.415   4.590  18.521  0.00  0.00    +0.000 NA
ATOM     21  C   UNL     1       5.879   4.575  17.318  0.00  0.00    +0.000 A 
BRANCH  17  27
ATOM     22  C   UNL     1       5.049   2.939  11.981  0.00  0.00    +0.000 C 
ATOM     23  C   UNL     1       6.045   3.749  12.760  0.00  0.00    +0.000 A 
ATOM     24  C   UNL     1       7.004   4.532  12.118  0.00  0.00    +0.000 A 
ATOM     25  C   UNL     1       7.907   5.282  12.869  0.00  0.00    +0.000 A 
ATOM     26  C   UNL     1       7.862   5.247  14.266  0.00  0.00    +0.000 A 
ATOM     27  C   UNL     1       6.905   4.461  14.936  0.00  0.00    +0.000 A 
ATOM     28  C   UNL     1       5.996   3.728  14.164  0.00  0.00    +0.000 A 
ENDBRANCH  17  27
ENDBRANCH  16  21
ENDBRANCH   1  16
TORSDOF 6
ENDMDL
MODEL 4
REMARK VINA RESULT:      -8.0      5.731      6.516
REMARK  Name = 
REMARK  7 active torsions:
REMARK  status: ('A' for Active; 'I' for Inactive)
REMARK    1  A    between atoms: C_1  and  C_2
REMARK    2  A    between atoms: C_6  and  N_7
REMARK    3  A    between atoms: C_11  and  S_12
REMARK    4  A    between atoms: S_12  and  C_13
REMARK    5  A    between atoms: C_13  and  C_14
REMARK    6  A    between atoms: N_16  and  C_17
REMARK    7  A    between atoms: C_17  and  C_18
REMARK                            x       y       z     vdW  Elec       q    Type
REMARK                         _______ _______ _______ _____ _____    ______ ____
ROOT
ATOM      1  C   UNL     1       7.764   6.209  18.799  0.00  0.00    +0.000 C 
ENDROOT
BRANCH   1   2
ATOM      2  C   UNL     1       7.719   7.435  17.904  0.00  0.00    +0.000 C 
ATOM      3  O   UNL     1       7.149   7.441  16.819  0.00  0.00    +0.000 OA
ATOM      4  N   UNL     1       8.367   8.534  18.424  0.00  0.00    +0.000 N 
ATOM      5  H   UNL     1       9.063   8.376  19.149  0.00  0.00    +0.000 HD
BRANCH   4   6
ATOM      6  C   UNL     1       8.436   9.785  17.708  0.00  0.00    +0.000 C 
BRANCH   6   7
ATOM      7  C   UNL     1       9.256  10.778  18.489  0.00  0.00    +0.000 A 
ATOM      8  C   UNL     1       9.348  10.683  19.896  0.00  0.00    +0.000 A 
ATOM      9  C   UNL     1      10.060  11.633  20.636  0.00  0.00    +0.000 A 
ATOM     10  C   UNL     1      10.659  12.666  19.947  0.00  0.00    +0.000 A 
ATOM     11  C   UNL     1      10.574  12.769  18.579  0.00  0.00    +0.000 A 
ATOM     12  C   UNL     1       9.880  11.847  17.824  0.00  0.00    +0.000 A 
ATOM     13  O   UNL     1      11.228  13.859  18.098  0.00  0.00    +0.000 OA
ATOM     14  C   UNL     1      11.737  14.431  19.322  0.00  0.00    +0.000 C 
ATOM     15  O   UNL     1      11.377  13.680  20.501  0.00  0.00    +0.000 OA
ENDBRANCH   6   7
ENDBRANCH   4   6
ENDBRANCH   1   2
BRANCH   1  16
ATOM     16  S   UNL     1       7.756   4.685  17.829  0.00  0.00    +0.000 S 
BRANCH  16  21
ATOM     17  N   UNL     1       5.463   4.366  16.245  0.00  0.00    +0.000 N 
ATOM     18  N   UNL     1       4.118   4.323  16.477  0.00  0.00    +0.000 NA
ATOM     19  N   UNL     1       3.953   4.328  17.791  0.00  0.00    +0.000 NA
ATOM     20  N   UNL     1       5.151   4.403  18.436  0.00  0.00    +0.000 NA
ATOM     21  C   UNL     1       6.073   4.452  17.496  0.00  0.00    +0.000 A 
BRANCH  17  27
ATOM     22  C   UNL     1       5.077   2.755  11.539  0.00  0.00    +0.000 C 
ATOM     23  C   UNL     1       5.817   3.538  12.587  0.00  0.00    +0.000 A 
ATOM     24  C   UNL     1       6.992   4.224  12.285  0.00  0.00    +0.000 A 
ATOM     25  C   UNL     1       7.648   4.950  13.277  0.00  0.00    +0.000 A 
ATOM     26  C   UNL     1       7.138   4.987  14.578  0.00  0.00    +0.000 A 
ATOM     27  C   UNL     1       5.955   4.298  14.907  0.00  0.00    +0.000 A 
ATOM     28  C   UNL     1       5.301   3.589  13.893  0.00  0.00    +0.000 A 
ENDBRANCH  17  27
ENDBRANCH  16  21
ENDBRANCH   1  16
TORSDOF 6
ENDMDL
MODEL 5
REMARK VINA RESULT:      -8.0      5.344      6.942
REMARK  Name = 
REMARK  7 active torsions:
REMARK  status: ('A' for Active; 'I' for Inactive)
REMARK    1  A    between atoms: C_1  and  C_2
REMARK    2  A    between atoms: C_6  and  N_7
REMARK    3  A    between atoms: C_11  and  S_12
REMARK    4  A    between atoms: S_12  and  C_13
REMARK    5  A    between atoms: C_13  and  C_14
REMARK    6  A    between atoms: N_16  and  C_17
REMARK    7  A    between atoms: C_17  and  C_18
REMARK                            x       y       z     vdW  Elec       q    Type
REMARK                         _______ _______ _______ _____ _____    ______ ____
ROOT
ATOM      1  C   UNL     1       7.086   6.196  18.623  0.00  0.00    +0.000 C 
ENDROOT
BRANCH   1   2
ATOM      2  C   UNL     1       7.302   7.388  17.708  0.00  0.00    +0.000 C 
ATOM      3  O   UNL     1       6.728   7.508  16.631  0.00  0.00    +0.000 OA
ATOM      4  N   UNL     1       8.189   8.320  18.200  0.00  0.00    +0.000 N 
ATOM      5  H   UNL     1       8.845   8.019  18.918  0.00  0.00    +0.000 HD
BRANCH   4   6
ATOM      6  C   UNL     1       8.526   9.514  17.462  0.00  0.00    +0.000 C 
BRANCH   6   7
ATOM      7  C   UNL     1       9.031  10.573  18.405  0.00  0.00    +0.000 A 
ATOM      8  C   UNL     1       9.325  10.256  19.750  0.00  0.00    +0.000 A 
ATOM      9  C   UNL     1       9.740  11.245  20.648  0.00  0.00    +0.000 A 
ATOM     10  C   UNL     1       9.846  12.536  20.178  0.00  0.00    +0.000 A 
ATOM     11  C   UNL     1       9.561  12.856  18.872  0.00  0.00    +0.000 A 
ATOM     12  C   UNL     1       9.150  11.903  17.964  0.00  0.00    +0.000 A 
ATOM     13  O   UNL     1       9.723  14.181  18.614  0.00  0.00    +0.000 OA
ATOM     14  C   UNL     1      10.144  14.659  19.910  0.00  0.00    +0.000 C 
ATOM     15  O   UNL     1      10.222  13.620  20.908  0.00  0.00    +0.000 OA
ENDBRANCH   6   7
ENDBRANCH   4   6
ENDBRANCH   1   2
BRANCH   1  16
ATOM     16  S   UNL     1       7.656   4.663  17.853  0.00  0.00    +0.000 S 
BRANCH  16  21
ATOM     17  N   UNL     1       5.485   4.581  16.079  0.00  0.00    +0.000 N 
ATOM     18  N   UNL     1       5.340   4.506  14.722  0.00  0.00    +0.000 NA
ATOM     19  N   UNL     1       6.550   4.616  14.198  0.00  0.00    +0.000 NA
ATOM     20  N   UNL     1       7.498   4.731  15.169  0.00  0.00    +0.000 NA
ATOM     21  C   UNL     1       6.855   4.685  16.318  0.00  0.00    +0.000 A 
BRANCH  17  27
ATOM     22  C   UNL     1       1.911   2.103  18.521  0.00  0.00    +0.000 C 
ATOM     23  C   UNL     1       2.557   3.402  18.136  0.00  0.00    +0.000 A 
ATOM     24  C   UNL     1       2.061   4.624  18.590  0.00  0.00    +0.000 A 
ATOM     25  C   UNL     1       2.691   5.810  18.224  0.00  0.00    +0.000 A 
ATOM     26  C   UNL     1       3.816   5.785  17.394  0.00  0.00    +0.000 A 
ATOM     27  C   UNL     1       4.332   4.565  16.919  0.00  0.00    +0.000 A 
ATOM     28  C   UNL     1       3.696   3.382  17.312  0.00  0.00    +0.000 A 
ENDBRANCH  17  27
ENDBRANCH  16  21
ENDBRANCH   1  16
TORSDOF 6
ENDMDL
MODEL 6
REMARK VINA RESULT:      -7.9      2.769      4.387
REMARK  Name = 
REMARK  7 active torsions:
REMARK  status: ('A' for Active; 'I' for Inactive)
REMARK    1  A    between atoms: C_1  and  C_2
REMARK    2  A    between atoms: C_6  and  N_7
REMARK    3  A    between atoms: C_11  and  S_12
REMARK    4  A    between atoms: S_12  and  C_13
REMARK    5  A    between atoms: C_13  and  C_14
REMARK    6  A    between atoms: N_16  and  C_17
REMARK    7  A    between atoms: C_17  and  C_18
REMARK                            x       y       z     vdW  Elec       q    Type
REMARK                         _______ _______ _______ _____ _____    ______ ____
ROOT
ATOM      1  C   UNL     1       7.101   4.811  17.099  0.00  0.00    +0.000 C 
ENDROOT
BRANCH   1   2
ATOM      2  C   UNL     1       6.070   5.529  17.952  0.00  0.00    +0.000 C 
ATOM      3  O   UNL     1       6.129   5.558  19.176  0.00  0.00    +0.000 OA
ATOM      4  N   UNL     1       5.075   6.147  17.228  0.00  0.00    +0.000 N 
ATOM      5  H   UNL     1       4.911   5.828  16.275  0.00  0.00    +0.000 HD
BRANCH   4   6
ATOM      6  C   UNL     1       4.003   6.869  17.871  0.00  0.00    +0.000 C 
BRANCH   6   7
ATOM      7  C   UNL     1       3.043   5.899  18.509  0.00  0.00    +0.000 A 
ATOM      8  C   UNL     1       2.583   6.109  19.829  0.00  0.00    +0.000 A 
ATOM      9  C   UNL     1       1.737   5.184  20.451  0.00  0.00    +0.000 A 
ATOM     10  C   UNL     1       1.375   4.063  19.736  0.00  0.00    +0.000 A 
ATOM     11  C   UNL     1       1.818   3.848  18.453  0.00  0.00    +0.000 A 
ATOM     12  C   UNL     1       2.652   4.742  17.814  0.00  0.00    +0.000 A 
ATOM     13  O   UNL     1       1.351   2.684  17.929  0.00  0.00    +0.000 OA
ATOM     14  C   UNL     1       0.561   2.190  19.032  0.00  0.00    +0.000 C 
ATOM     15  O   UNL     1       0.574   3.059  20.183  0.00  0.00    +0.000 OA
ENDBRANCH   6   7
ENDBRANCH   4   6
ENDBRANCH   1   2
BRANCH   1  16
ATOM     16  S   UNL     1       6.330   3.990  15.686  0.00  0.00    +0.000 S 
BRANCH  16  21
ATOM     17  N   UNL     1       6.983   4.398  12.988  0.00  0.00    +0.000 N 
ATOM     18  N   UNL     1       7.892   5.160  12.312  0.00  0.00    +0.000 NA
ATOM     19  N   UNL     1       8.484   5.938  13.204  0.00  0.00    +0.000 NA
ATOM     20  N   UNL     1       8.014   5.692  14.459  0.00  0.00    +0.000 NA
ATOM     21  C   UNL     1       7.116   4.735  14.335  0.00  0.00    +0.000 A 
BRANCH  17  27
ATOM     22  C   UNL     1       6.035  -0.099  11.049  0.00  0.00    +0.000 C 
ATOM     23  C   UNL     1       5.614   1.320  11.301  0.00  0.00    +0.000 A 
ATOM     24  C   UNL     1       4.385   1.804  10.855  0.00  0.00    +0.000 A 
ATOM     25  C   UNL     1       4.019   3.122  11.115  0.00  0.00    +0.000 A 
ATOM     26  C   UNL     1       4.883   3.969  11.815  0.00  0.00    +0.000 A 
ATOM     27  C   UNL     1       6.131   3.505  12.272  0.00  0.00    +0.000 A 
ATOM     28  C   UNL     1       6.474   2.172  12.015  0.00  0.00    +0.000 A 
ENDBRANCH  17  27
ENDBRANCH  16  21
ENDBRANCH   1  16
TORSDOF 6
ENDMDL
MODEL 7
REMARK VINA RESULT:      -7.9      3.435      5.265
REMARK  Name = 
REMARK  7 active torsions:
REMARK  status: ('A' for Active; 'I' for Inactive)
REMARK    1  A    between atoms: C_1  and  C_2
REMARK    2  A    between atoms: C_6  and  N_7
REMARK    3  A    between atoms: C_11  and  S_12
REMARK    4  A    between atoms: S_12  and  C_13
REMARK    5  A    between atoms: C_13  and  C_14
REMARK    6  A    between atoms: N_16  and  C_17
REMARK    7  A    between atoms: C_17  and  C_18
REMARK                            x       y       z     vdW  Elec       q    Type
REMARK                         _______ _______ _______ _____ _____    ______ ____
ROOT
ATOM      1  C   UNL     1       2.468   7.512  18.787  0.00  0.00    +0.000 C 
ENDROOT
BRANCH   1   2
ATOM      2  C   UNL     1       1.568   8.449  19.573  0.00  0.00    +0.000 C 
ATOM      3  O   UNL     1       1.334   8.295  20.766  0.00  0.00    +0.000 OA
ATOM      4  N   UNL     1       1.048   9.483  18.827  0.00  0.00    +0.000 N 
ATOM      5  H   UNL     1       1.023   9.375  17.815  0.00  0.00    +0.000 HD
BRANCH   4   6
ATOM      6  C   UNL     1       0.162  10.466  19.404  0.00  0.00    +0.000 C 
BRANCH   6   7
ATOM      7  C   UNL     1      -1.111  10.541  18.603  0.00  0.00    +0.000 A 
ATOM      8  C   UNL     1      -1.226   9.856  17.372  0.00  0.00    +0.000 A 
ATOM      9  C   UNL     1      -2.383   9.966  16.594  0.00  0.00    +0.000 A 
ATOM     10  C   UNL     1      -3.400  10.769  17.065  0.00  0.00    +0.000 A 
ATOM     11  C   UNL     1      -3.297  11.441  18.259  0.00  0.00    +0.000 A 
ATOM     12  C   UNL     1      -2.170  11.351  19.048  0.00  0.00    +0.000 A 
ATOM     13  O   UNL     1      -4.405  12.179  18.536  0.00  0.00    +0.000 OA
ATOM     14  C   UNL     1      -5.218  11.893  17.378  0.00  0.00    +0.000 C 
ATOM     15  O   UNL     1      -4.585  11.000  16.438  0.00  0.00    +0.000 OA
ENDBRANCH   6   7
ENDBRANCH   4   6
ENDBRANCH   1   2
BRANCH   1  16
ATOM     16  S   UNL     1       2.917   6.058  19.762  0.00  0.00    +0.000 S 
BRANCH  16  21
ATOM     17  N   UNL     1       3.224   4.309  17.591  0.00  0.00    +0.000 N 
ATOM     18  N   UNL     1       2.454   3.350  16.998  0.00  0.00    +0.000 NA
ATOM     19  N   UNL     1       1.378   3.197  17.754  0.00  0.00    +0.000 NA
ATOM     20  N   UNL     1       1.398   4.050  18.816  0.00  0.00    +0.000 NA
ATOM     21  C   UNL     1       2.511   4.748  18.706  0.00  0.00    +0.000 A 
BRANCH  17  27
ATOM     22  C   UNL     1       7.375   7.076  17.564  0.00  0.00    +0.000 C 
ATOM     23  C   UNL     1       6.552   5.966  16.977  0.00  0.00    +0.000 A 
ATOM     24  C   UNL     1       7.005   5.223  15.887  0.00  0.00    +0.000 A 
ATOM     25  C   UNL     1       6.223   4.192  15.373  0.00  0.00    +0.000 A 
ATOM     26  C   UNL     1       4.977   3.902  15.939  0.00  0.00    +0.000 A 
ATOM     27  C   UNL     1       4.497   4.640  17.037  0.00  0.00    +0.000 A 
ATOM     28  C   UNL     1       5.306   5.661  17.550  0.00  0.00    +0.000 A 
ENDBRANCH  17  27
ENDBRANCH  16  21
ENDBRANCH   1  16
TORSDOF 6
ENDMDL
MODEL 8
REMARK VINA RESULT:      -7.9      5.470      7.169
REMARK  Name = 
REMARK  7 active torsions:
REMARK  status: ('A' for Active; 'I' for Inactive)
REMARK    1  A    between atoms: C_1  and  C_2
REMARK    2  A    between atoms: C_6  and  N_7
REMARK    3  A    between atoms: C_11  and  S_12
REMARK    4  A    between atoms: S_12  and  C_13
REMARK    5  A    between atoms: C_13  and  C_14
REMARK    6  A    between atoms: N_16  and  C_17
REMARK    7  A    between atoms: C_17  and  C_18
REMARK                            x       y       z     vdW  Elec       q    Type
REMARK                         _______ _______ _______ _____ _____    ______ ____
ROOT
ATOM      1  C   UNL     1       7.088   6.250  18.590  0.00  0.00    +0.000 C 
ENDROOT
BRANCH   1   2
ATOM      2  C   UNL     1       7.353   7.445  17.691  0.00  0.00    +0.000 C 
ATOM      3  O   UNL     1       6.817   7.581  16.597  0.00  0.00    +0.000 OA
ATOM      4  N   UNL     1       8.239   8.358  18.219  0.00  0.00    +0.000 N 
ATOM      5  H   UNL     1       8.866   8.042  18.956  0.00  0.00    +0.000 HD
BRANCH   4   6
ATOM      6  C   UNL     1       8.618   9.551  17.501  0.00  0.00    +0.000 C 
BRANCH   6   7
ATOM      7  C   UNL     1       9.169  10.574  18.460  0.00  0.00    +0.000 A 
ATOM      8  C   UNL     1       9.230  10.298  19.845  0.00  0.00    +0.000 A 
ATOM      9  C   UNL     1       9.686  11.262  20.750  0.00  0.00    +0.000 A 
ATOM     10  C   UNL     1      10.065  12.488  20.246  0.00  0.00    +0.000 A 
ATOM     11  C   UNL     1      10.007  12.767  18.902  0.00  0.00    +0.000 A 
ATOM     12  C   UNL     1       9.564  11.837  17.986  0.00  0.00    +0.000 A 
ATOM     13  O   UNL     1      10.420  14.030  18.615  0.00  0.00    +0.000 OA
ATOM     14  C   UNL     1      10.745  14.514  19.935  0.00  0.00    +0.000 C 
ATOM     15  O   UNL     1      10.520  13.541  20.976  0.00  0.00    +0.000 OA
ENDBRANCH   6   7
ENDBRANCH   4   6
ENDBRANCH   1   2
BRANCH   1  16
ATOM     16  S   UNL     1       7.670   4.715  17.835  0.00  0.00    +0.000 S 
BRANCH  16  21
ATOM     17  N   UNL     1       5.493   4.628  16.069  0.00  0.00    +0.000 N 
ATOM     18  N   UNL     1       5.341   4.522  14.716  0.00  0.00    +0.000 NA
ATOM     19  N   UNL     1       6.552   4.598  14.185  0.00  0.00    +0.000 NA
ATOM     20  N   UNL     1       7.505   4.720  15.151  0.00  0.00    +0.000 NA
ATOM     21  C   UNL     1       6.865   4.713  16.302  0.00  0.00    +0.000 A 
BRANCH  17  27
ATOM     22  C   UNL     1       2.386   7.055  19.125  0.00  0.00    +0.000 C 
ATOM     23  C   UNL     1       2.787   5.793  18.417  0.00  0.00    +0.000 A 
ATOM     24  C   UNL     1       2.049   4.618  18.553  0.00  0.00    +0.000 A 
ATOM     25  C   UNL     1       2.441   3.467  17.875  0.00  0.00    +0.000 A 
ATOM     26  C   UNL     1       3.578   3.480  17.062  0.00  0.00    +0.000 A 
ATOM     27  C   UNL     1       4.342   4.653  16.912  0.00  0.00    +0.000 A 
ATOM     28  C   UNL     1       3.922   5.804  17.589  0.00  0.00    +0.000 A 
ENDBRANCH  17  27
ENDBRANCH  16  21
ENDBRANCH   1  16
TORSDOF 6
ENDMDL
MODEL 9
REMARK VINA RESULT:      -7.8      5.623      7.742
REMARK  Name = 
REMARK  7 active torsions:
REMARK  status: ('A' for Active; 'I' for Inactive)
REMARK    1  A    between atoms: C_1  and  C_2
REMARK    2  A    between atoms: C_6  and  N_7
REMARK    3  A    between atoms: C_11  and  S_12
REMARK    4  A    between atoms: S_12  and  C_13
REMARK    5  A    between atoms: C_13  and  C_14
REMARK    6  A    between atoms: N_16  and  C_17
REMARK    7  A    between atoms: C_17  and  C_18
REMARK                            x       y       z     vdW  Elec       q    Type
REMARK                         _______ _______ _______ _____ _____    ______ ____
ROOT
ATOM      1  C   UNL     1       7.271   6.167  18.634  0.00  0.00    +0.000 C 
ENDROOT
BRANCH   1   2
ATOM      2  C   UNL     1       7.728   7.246  17.668  0.00  0.00    +0.000 C 
ATOM      3  O   UNL     1       7.780   7.069  16.456  0.00  0.00    +0.000 OA
ATOM      4  N   UNL     1       8.069   8.434  18.274  0.00  0.00    +0.000 N 
ATOM      5  H   UNL     1       8.301   8.414  19.265  0.00  0.00    +0.000 HD
BRANCH   4   6
ATOM      6  C   UNL     1       8.536   9.569  17.514  0.00  0.00    +0.000 C 
BRANCH   6   7
ATOM      7  C   UNL     1       9.144  10.590  18.438  0.00  0.00    +0.000 A 
ATOM      8  C   UNL     1       9.256  10.328  19.823  0.00  0.00    +0.000 A 
ATOM      9  C   UNL     1       9.766  11.293  20.698  0.00  0.00    +0.000 A 
ATOM     10  C   UNL     1      10.149  12.505  20.165  0.00  0.00    +0.000 A 
ATOM     11  C   UNL     1      10.043  12.770  18.821  0.00  0.00    +0.000 A 
ATOM     12  C   UNL     1       9.545  11.840  17.935  0.00  0.00    +0.000 A 
ATOM     13  O   UNL     1      10.469  14.022  18.504  0.00  0.00    +0.000 OA
ATOM     14  C   UNL     1      10.856  14.514  19.805  0.00  0.00    +0.000 C 
ATOM     15  O   UNL     1      10.653  13.557  20.865  0.00  0.00    +0.000 OA
ENDBRANCH   6   7
ENDBRANCH   4   6
ENDBRANCH   1   2
BRANCH   1  16
ATOM     16  S   UNL     1       6.024   5.095  17.884  0.00  0.00    +0.000 S 
BRANCH  16  21
ATOM     17  N   UNL     1       3.294   5.648  18.215  0.00  0.00    +0.000 N 
ATOM     18  N   UNL     1       2.490   6.733  18.015  0.00  0.00    +0.000 NA
ATOM     19  N   UNL     1       3.281   7.746  17.699  0.00  0.00    +0.000 NA
ATOM     20  N   UNL     1       4.586   7.356  17.654  0.00  0.00    +0.000 NA
ATOM     21  C   UNL     1       4.595   6.071  17.944  0.00  0.00    +0.000 A 
BRANCH  17  27
ATOM     22  C   UNL     1       1.509   2.690  21.814  0.00  0.00    +0.000 C 
ATOM     23  C   UNL     1       1.839   2.919  20.367  0.00  0.00    +0.000 A 
ATOM     24  C   UNL     1       1.593   1.942  19.403  0.00  0.00    +0.000 A 
ATOM     25  C   UNL     1       1.900   2.190  18.067  0.00  0.00    +0.000 A 
ATOM     26  C   UNL     1       2.464   3.412  17.687  0.00  0.00    +0.000 A 
ATOM     27  C   UNL     1       2.725   4.411  18.643  0.00  0.00    +0.000 A 
ATOM     28  C   UNL     1       2.393   4.150  19.978  0.00  0.00    +0.000 A 
ENDBRANCH  17  27
ENDBRANCH  16  21
ENDBRANCH   1  16
TORSDOF 6
ENDMDL
