MODEL 1
REMARK VINA RESULT:      -8.3      0.000      0.000
REMARK  Name = 
REMARK  2 active torsions:
REMARK  status: ('A' for Active; 'I' for Inactive)
REMARK    1  A    between atoms: C_2  and  C_3
REMARK    2  A    between atoms: C_18  and  C_19
REMARK                            x       y       z     vdW  Elec       q    Type
REMARK                         _______ _______ _______ _____ _____    ______ ____
ROOT
ATOM      1  O   UNL     1       2.255   8.813  17.212  0.00  0.00    +0.000 OA
ATOM      2  C   UNL     1       2.253   8.239  18.305  0.00  0.00    +0.000 C 
ATOM      3  N   UNL     1       1.725   8.830  19.450  0.00  0.00    +0.000 N 
ATOM      4  C   UNL     1       1.540   8.227  20.777  0.00  0.00    +0.000 C 
ATOM      5  C   UNL     1       0.104   8.339  21.267  0.00  0.00    +0.000 C 
ATOM      6  C   UNL     1      -0.396   9.771  21.216  0.00  0.00    +0.000 C 
ATOM      7  C   UNL     1      -0.190  10.379  19.820  0.00  0.00    +0.000 C 
ATOM      8  C   UNL     1       1.275  10.231  19.368  0.00  0.00    +0.000 C 
ENDROOT
BRANCH   2   9
ATOM      9  C   UNL     1       2.772   6.817  18.368  0.00  0.00    +0.000 A 
ATOM     10  C   UNL     1       1.909   5.811  18.152  0.00  0.00    +0.000 A 
ATOM     11  C   UNL     1       2.366   4.424  18.302  0.00  0.00    +0.000 A 
ATOM     12  C   UNL     1       1.525   3.343  18.025  0.00  0.00    +0.000 A 
ATOM     13  C   UNL     1       1.972   2.034  18.238  0.00  0.00    +0.000 A 
ATOM     14  C   UNL     1       3.251   1.796  18.745  0.00  0.00    +0.000 A 
ATOM     15  C   UNL     1       4.101   2.866  19.016  0.00  0.00    +0.000 A 
ATOM     16  C   UNL     1       3.663   4.169  18.774  0.00  0.00    +0.000 A 
ATOM     17  C   UNL     1       4.586   5.313  18.970  0.00  0.00    +0.000 A 
ATOM     18  O   UNL     1       5.728   5.167  19.392  0.00  0.00    +0.000 OA
ATOM     19  N   UNL     1       4.093   6.553  18.647  0.00  0.00    +0.000 N 
ATOM     20  H   UNL     1       4.756   7.314  18.699  0.00  0.00    +0.000 HD
ENDBRANCH   2   9
BRANCH   7  21
ATOM     21  C   UNL     1      -0.613  11.811  19.838  0.00  0.00    +0.000 A 
ATOM     22  N   UNL     1      -0.042  12.807  19.190  0.00  0.00    +0.000 NA
ATOM     23  C   UNL     1      -0.699  13.940  19.601  0.00  0.00    +0.000 A 
ATOM     24  C   UNL     1      -0.481  15.279  19.251  0.00  0.00    +0.000 A 
ATOM     25  C   UNL     1      -1.292  16.263  19.830  0.00  0.00    +0.000 A 
ATOM     26  C   UNL     1      -2.298  15.919  20.737  0.00  0.00    +0.000 A 
ATOM     27  C   UNL     1      -2.532  14.586  21.096  0.00  0.00    +0.000 A 
ATOM     28  C   UNL     1      -1.708  13.627  20.503  0.00  0.00    +0.000 A 
ATOM     29  N   UNL     1      -1.645  12.264  20.624  0.00  0.00    +0.000 N 
ATOM     30  H   UNL     1      -2.230  11.695  21.218  0.00  0.00    +0.000 HD
ENDBRANCH   7  21
TORSDOF 2
ENDMDL
MODEL 2
REMARK VINA RESULT:      -8.2      3.261     10.025
REMARK  Name = 
REMARK  2 active torsions:
REMARK  status: ('A' for Active; 'I' for Inactive)
REMARK    1  A    between atoms: C_2  and  C_3
REMARK    2  A    between atoms: C_18  and  C_19
REMARK                            x       y       z     vdW  Elec       q    Type
REMARK                         _______ _______ _______ _____ _____    ______ ____
ROOT
ATOM      1  O   UNL     1      -0.150  10.107  23.433  0.00  0.00    +0.000 OA
ATOM      2  C   UNL     1      -0.455  10.986  22.621  0.00  0.00    +0.000 C 
ATOM      3  N   UNL     1       0.054  11.003  21.324  0.00  0.00    +0.000 N 
ATOM      4  C   UNL     1      -0.311  11.901  20.220  0.00  0.00    +0.000 C 
ATOM      5  C   UNL     1      -0.739  11.141  18.974  0.00  0.00    +0.000 C 
ATOM      6  C   UNL     1       0.302  10.117  18.557  0.00  0.00    +0.000 C 
ATOM      7  C   UNL     1       0.668   9.193  19.728  0.00  0.00    +0.000 C 
ATOM      8  C   UNL     1       1.083  10.010  20.964  0.00  0.00    +0.000 C 
ENDROOT
BRANCH   2   9
ATOM      9  C   UNL     1      -1.476  12.024  23.038  0.00  0.00    +0.000 A 
ATOM     10  C   UNL     1      -1.082  13.304  23.140  0.00  0.00    +0.000 A 
ATOM     11  C   UNL     1      -2.027  14.313  23.633  0.00  0.00    +0.000 A 
ATOM     12  C   UNL     1      -1.685  15.667  23.696  0.00  0.00    +0.000 A 
ATOM     13  C   UNL     1      -2.587  16.593  24.230  0.00  0.00    +0.000 A 
ATOM     14  C   UNL     1      -3.826  16.174  24.722  0.00  0.00    +0.000 A 
ATOM     15  C   UNL     1      -4.180  14.828  24.657  0.00  0.00    +0.000 A 
ATOM     16  C   UNL     1      -3.289  13.911  24.096  0.00  0.00    +0.000 A 
ATOM     17  C   UNL     1      -3.687  12.492  23.935  0.00  0.00    +0.000 A 
ATOM     18  O   UNL     1      -4.768  12.067  24.328  0.00  0.00    +0.000 OA
ATOM     19  N   UNL     1      -2.776  11.673  23.315  0.00  0.00    +0.000 N 
ATOM     20  H   UNL     1      -3.091  10.730  23.131  0.00  0.00    +0.000 HD
ENDBRANCH   2   9
BRANCH   7  21
ATOM     21  C   UNL     1       1.756   8.262  19.300  0.00  0.00    +0.000 A 
ATOM     22  N   UNL     1       2.421   8.301  18.164  0.00  0.00    +0.000 NA
ATOM     23  C   UNL     1       3.229   7.191  18.169  0.00  0.00    +0.000 A 
ATOM     24  C   UNL     1       4.122   6.727  17.195  0.00  0.00    +0.000 A 
ATOM     25  C   UNL     1       4.826   5.542  17.441  0.00  0.00    +0.000 A 
ATOM     26  C   UNL     1       4.642   4.835  18.634  0.00  0.00    +0.000 A 
ATOM     27  C   UNL     1       3.756   5.285  19.619  0.00  0.00    +0.000 A 
ATOM     28  C   UNL     1       3.069   6.469  19.346  0.00  0.00    +0.000 A 
ATOM     29  N   UNL     1       2.140   7.181  20.057  0.00  0.00    +0.000 N 
ATOM     30  H   UNL     1       1.771   6.933  20.964  0.00  0.00    +0.000 HD
ENDBRANCH   7  21
TORSDOF 2
ENDMDL
MODEL 3
REMARK VINA RESULT:      -8.2      2.389      3.305
REMARK  Name = 
REMARK  2 active torsions:
REMARK  status: ('A' for Active; 'I' for Inactive)
REMARK    1  A    between atoms: C_2  and  C_3
REMARK    2  A    between atoms: C_18  and  C_19
REMARK                            x       y       z     vdW  Elec       q    Type
REMARK                         _______ _______ _______ _____ _____    ______ ____
ROOT
ATOM      1  O   UNL     1       1.797   6.932  21.052  0.00  0.00    +0.000 OA
ATOM      2  C   UNL     1       1.920   7.249  19.865  0.00  0.00    +0.000 C 
ATOM      3  N   UNL     1       1.393   8.436  19.359  0.00  0.00    +0.000 N 
ATOM      4  C   UNL     1       1.566   9.002  18.015  0.00  0.00    +0.000 C 
ATOM      5  C   UNL     1       2.103  10.424  18.052  0.00  0.00    +0.000 C 
ATOM      6  C   UNL     1       1.261  11.319  18.944  0.00  0.00    +0.000 C 
ATOM      7  C   UNL     1       1.093  10.704  20.342  0.00  0.00    +0.000 C 
ATOM      8  C   UNL     1       0.557   9.264  20.248  0.00  0.00    +0.000 C 
ENDROOT
BRANCH   2   9
ATOM      9  C   UNL     1       2.739   6.350  18.964  0.00  0.00    +0.000 A 
ATOM     10  C   UNL     1       3.954   6.770  18.575  0.00  0.00    +0.000 A 
ATOM     11  C   UNL     1       4.728   5.961  17.626  0.00  0.00    +0.000 A 
ATOM     12  C   UNL     1       6.022   6.323  17.241  0.00  0.00    +0.000 A 
ATOM     13  C   UNL     1       6.708   5.563  16.287  0.00  0.00    +0.000 A 
ATOM     14  C   UNL     1       6.102   4.451  15.697  0.00  0.00    +0.000 A 
ATOM     15  C   UNL     1       4.816   4.076  16.080  0.00  0.00    +0.000 A 
ATOM     16  C   UNL     1       4.146   4.819  17.054  0.00  0.00    +0.000 A 
ATOM     17  C   UNL     1       2.815   4.382  17.538  0.00  0.00    +0.000 A 
ATOM     18  O   UNL     1       2.240   3.402  17.076  0.00  0.00    +0.000 OA
ATOM     19  N   UNL     1       2.257   5.133  18.543  0.00  0.00    +0.000 N 
ATOM     20  H   UNL     1       1.392   4.776  18.926  0.00  0.00    +0.000 HD
ENDBRANCH   2   9
BRANCH   7  21
ATOM     21  C   UNL     1       0.188  11.570  21.156  0.00  0.00    +0.000 A 
ATOM     22  N   UNL     1       0.450  12.784  21.595  0.00  0.00    +0.000 NA
ATOM     23  C   UNL     1      -0.619  13.130  22.384  0.00  0.00    +0.000 A 
ATOM     24  C   UNL     1      -0.849  14.298  23.123  0.00  0.00    +0.000 A 
ATOM     25  C   UNL     1      -2.030  14.399  23.869  0.00  0.00    +0.000 A 
ATOM     26  C   UNL     1      -2.961  13.357  23.877  0.00  0.00    +0.000 A 
ATOM     27  C   UNL     1      -2.751  12.184  23.143  0.00  0.00    +0.000 A 
ATOM     28  C   UNL     1      -1.565  12.112  22.410  0.00  0.00    +0.000 A 
ATOM     29  N   UNL     1      -1.036  11.138  21.605  0.00  0.00    +0.000 N 
ATOM     30  H   UNL     1      -1.456  10.241  21.408  0.00  0.00    +0.000 HD
ENDBRANCH   7  21
TORSDOF 2
ENDMDL
MODEL 4
REMARK VINA RESULT:      -8.1      0.341      1.149
REMARK  Name = 
REMARK  2 active torsions:
REMARK  status: ('A' for Active; 'I' for Inactive)
REMARK    1  A    between atoms: C_2  and  C_3
REMARK    2  A    between atoms: C_18  and  C_19
REMARK                            x       y       z     vdW  Elec       q    Type
REMARK                         _______ _______ _______ _____ _____    ______ ____
ROOT
ATOM      1  O   UNL     1       2.103   9.009  17.246  0.00  0.00    +0.000 OA
ATOM      2  C   UNL     1       2.146   8.350  18.289  0.00  0.00    +0.000 C 
ATOM      3  N   UNL     1       1.673   8.852  19.501  0.00  0.00    +0.000 N 
ATOM      4  C   UNL     1       1.544   8.147  20.783  0.00  0.00    +0.000 C 
ATOM      5  C   UNL     1       0.133   8.224  21.344  0.00  0.00    +0.000 C 
ATOM      6  C   UNL     1      -0.360   9.658  21.428  0.00  0.00    +0.000 C 
ATOM      7  C   UNL     1      -0.212  10.372  20.076  0.00  0.00    +0.000 C 
ATOM      8  C   UNL     1       1.229  10.256  19.549  0.00  0.00    +0.000 C 
ENDROOT
BRANCH   2   9
ATOM      9  C   UNL     1       2.658   6.927  18.218  0.00  0.00    +0.000 A 
ATOM     10  C   UNL     1       1.765   5.923  18.244  0.00  0.00    +0.000 A 
ATOM     11  C   UNL     1       2.240   4.535  18.272  0.00  0.00    +0.000 A 
ATOM     12  C   UNL     1       1.351   3.457  18.235  0.00  0.00    +0.000 A 
ATOM     13  C   UNL     1       1.834   2.147  18.326  0.00  0.00    +0.000 A 
ATOM     14  C   UNL     1       3.202   1.904  18.474  0.00  0.00    +0.000 A 
ATOM     15  C   UNL     1       4.097   2.971  18.503  0.00  0.00    +0.000 A 
ATOM     16  C   UNL     1       3.614   4.276  18.382  0.00  0.00    +0.000 A 
ATOM     17  C   UNL     1       4.560   5.415  18.319  0.00  0.00    +0.000 A 
ATOM     18  O   UNL     1       5.773   5.266  18.422  0.00  0.00    +0.000 OA
ATOM     19  N   UNL     1       4.004   6.657  18.135  0.00  0.00    +0.000 N 
ATOM     20  H   UNL     1       4.660   7.415  18.004  0.00  0.00    +0.000 HD
ENDBRANCH   2   9
BRANCH   7  21
ATOM     21  C   UNL     1      -0.624  11.801  20.226  0.00  0.00    +0.000 A 
ATOM     22  N   UNL     1      -1.662  12.252  20.901  0.00  0.00    +0.000 NA
ATOM     23  C   UNL     1      -1.702  13.602  20.658  0.00  0.00    +0.000 A 
ATOM     24  C   UNL     1      -2.617  14.567  21.102  0.00  0.00    +0.000 A 
ATOM     25  C   UNL     1      -2.441  15.895  20.693  0.00  0.00    +0.000 A 
ATOM     26  C   UNL     1      -1.376  16.252  19.862  0.00  0.00    +0.000 A 
ATOM     27  C   UNL     1      -0.452  15.304  19.411  0.00  0.00    +0.000 A 
ATOM     28  C   UNL     1      -0.652  13.988  19.834  0.00  0.00    +0.000 A 
ATOM     29  N   UNL     1       0.030  12.826  19.588  0.00  0.00    +0.000 N 
ATOM     30  H   UNL     1       0.850  12.734  19.005  0.00  0.00    +0.000 HD
ENDBRANCH   7  21
TORSDOF 2
ENDMDL
MODEL 5
REMARK VINA RESULT:      -8.1      1.442      1.693
REMARK  Name = 
REMARK  2 active torsions:
REMARK  status: ('A' for Active; 'I' for Inactive)
REMARK    1  A    between atoms: C_2  and  C_3
REMARK    2  A    between atoms: C_18  and  C_19
REMARK                            x       y       z     vdW  Elec       q    Type
REMARK                         _______ _______ _______ _____ _____    ______ ____
ROOT
ATOM      1  O   UNL     1       1.780   9.560  17.542  0.00  0.00    +0.000 OA
ATOM      2  C   UNL     1       1.965   8.721  18.429  0.00  0.00    +0.000 C 
ATOM      3  N   UNL     1       1.584   8.947  19.750  0.00  0.00    +0.000 N 
ATOM      4  C   UNL     1       1.623   8.005  20.876  0.00  0.00    +0.000 C 
ATOM      5  C   UNL     1       0.271   7.865  21.559  0.00  0.00    +0.000 C 
ATOM      6  C   UNL     1      -0.296   9.214  21.963  0.00  0.00    +0.000 C 
ATOM      7  C   UNL     1      -0.324  10.180  20.769  0.00  0.00    +0.000 C 
ATOM      8  C   UNL     1       1.063  10.278  20.109  0.00  0.00    +0.000 C 
ENDROOT
BRANCH   2   9
ATOM      9  C   UNL     1       2.551   7.381  18.037  0.00  0.00    +0.000 A 
ATOM     10  C   UNL     1       1.807   6.278  18.221  0.00  0.00    +0.000 A 
ATOM     11  C   UNL     1       2.387   4.960  17.939  0.00  0.00    +0.000 A 
ATOM     12  C   UNL     1       1.633   3.789  18.053  0.00  0.00    +0.000 A 
ATOM     13  C   UNL     1       2.234   2.544  17.838  0.00  0.00    +0.000 A 
ATOM     14  C   UNL     1       3.593   2.458  17.527  0.00  0.00    +0.000 A 
ATOM     15  C   UNL     1       4.352   3.619  17.403  0.00  0.00    +0.000 A 
ATOM     16  C   UNL     1       3.742   4.861  17.589  0.00  0.00    +0.000 A 
ATOM     17  C   UNL     1       4.513   6.108  17.371  0.00  0.00    +0.000 A 
ATOM     18  O   UNL     1       5.704   6.099  17.076  0.00  0.00    +0.000 OA
ATOM     19  N   UNL     1       3.818   7.284  17.512  0.00  0.00    +0.000 N 
ATOM     20  H   UNL     1       4.329   8.124  17.275  0.00  0.00    +0.000 HD
ENDBRANCH   2   9
BRANCH   7  21
ATOM     21  C   UNL     1      -0.804  11.518  21.229  0.00  0.00    +0.000 A 
ATOM     22  N   UNL     1      -0.417  12.162  22.311  0.00  0.00    +0.000 NA
ATOM     23  C   UNL     1      -1.208  13.282  22.378  0.00  0.00    +0.000 A 
ATOM     24  C   UNL     1      -1.242  14.299  23.341  0.00  0.00    +0.000 A 
ATOM     25  C   UNL     1      -2.166  15.340  23.184  0.00  0.00    +0.000 A 
ATOM     26  C   UNL     1      -3.036  15.365  22.090  0.00  0.00    +0.000 A 
ATOM     27  C   UNL     1      -3.014  14.359  21.117  0.00  0.00    +0.000 A 
ATOM     28  C   UNL     1      -2.083  13.335  21.300  0.00  0.00    +0.000 A 
ATOM     29  N   UNL     1      -1.794  12.210  20.573  0.00  0.00    +0.000 N 
ATOM     30  H   UNL     1      -2.255  11.920  19.724  0.00  0.00    +0.000 HD
ENDBRANCH   7  21
TORSDOF 2
ENDMDL
MODEL 6
REMARK VINA RESULT:      -8.1      1.318      1.521
REMARK  Name = 
REMARK  2 active torsions:
REMARK  status: ('A' for Active; 'I' for Inactive)
REMARK    1  A    between atoms: C_2  and  C_3
REMARK    2  A    between atoms: C_18  and  C_19
REMARK                            x       y       z     vdW  Elec       q    Type
REMARK                         _______ _______ _______ _____ _____    ______ ____
ROOT
ATOM      1  O   UNL     1       1.734   9.533  17.491  0.00  0.00    +0.000 OA
ATOM      2  C   UNL     1       1.941   8.719  18.396  0.00  0.00    +0.000 C 
ATOM      3  N   UNL     1       1.568   8.970  19.715  0.00  0.00    +0.000 N 
ATOM      4  C   UNL     1       1.634   8.056  20.863  0.00  0.00    +0.000 C 
ATOM      5  C   UNL     1       0.291   7.911  21.563  0.00  0.00    +0.000 C 
ATOM      6  C   UNL     1      -0.294   9.260  21.940  0.00  0.00    +0.000 C 
ATOM      7  C   UNL     1      -0.349  10.197  20.723  0.00  0.00    +0.000 C 
ATOM      8  C   UNL     1       1.030  10.301  20.047  0.00  0.00    +0.000 C 
ENDROOT
BRANCH   2   9
ATOM      9  C   UNL     1       2.545   7.379  18.031  0.00  0.00    +0.000 A 
ATOM     10  C   UNL     1       1.797   6.275  18.189  0.00  0.00    +0.000 A 
ATOM     11  C   UNL     1       2.391   4.958  17.933  0.00  0.00    +0.000 A 
ATOM     12  C   UNL     1       1.636   3.785  18.022  0.00  0.00    +0.000 A 
ATOM     13  C   UNL     1       2.248   2.541  17.833  0.00  0.00    +0.000 A 
ATOM     14  C   UNL     1       3.618   2.457  17.574  0.00  0.00    +0.000 A 
ATOM     15  C   UNL     1       4.379   3.620  17.476  0.00  0.00    +0.000 A 
ATOM     16  C   UNL     1       3.759   4.861  17.636  0.00  0.00    +0.000 A 
ATOM     17  C   UNL     1       4.534   6.110  17.444  0.00  0.00    +0.000 A 
ATOM     18  O   UNL     1       5.735   6.103  17.195  0.00  0.00    +0.000 OA
ATOM     19  N   UNL     1       3.832   7.284  17.555  0.00  0.00    +0.000 N 
ATOM     20  H   UNL     1       4.349   8.125  17.336  0.00  0.00    +0.000 HD
ENDBRANCH   2   9
BRANCH   7  21
ATOM     21  C   UNL     1      -0.847  11.538  21.156  0.00  0.00    +0.000 A 
ATOM     22  N   UNL     1      -1.309  12.493  20.375  0.00  0.00    +0.000 NA
ATOM     23  C   UNL     1      -1.534  13.568  21.198  0.00  0.00    +0.000 A 
ATOM     24  C   UNL     1      -1.996  14.854  20.889  0.00  0.00    +0.000 A 
ATOM     25  C   UNL     1      -2.126  15.787  21.926  0.00  0.00    +0.000 A 
ATOM     26  C   UNL     1      -1.803  15.443  23.242  0.00  0.00    +0.000 A 
ATOM     27  C   UNL     1      -1.343  14.163  23.570  0.00  0.00    +0.000 A 
ATOM     28  C   UNL     1      -1.223  13.255  22.516  0.00  0.00    +0.000 A 
ATOM     29  N   UNL     1      -0.805  11.951  22.465  0.00  0.00    +0.000 N 
ATOM     30  H   UNL     1      -0.485  11.402  23.249  0.00  0.00    +0.000 HD
ENDBRANCH   7  21
TORSDOF 2
ENDMDL
MODEL 7
REMARK VINA RESULT:      -7.9      1.897      2.574
REMARK  Name = 
REMARK  2 active torsions:
REMARK  status: ('A' for Active; 'I' for Inactive)
REMARK    1  A    between atoms: C_2  and  C_3
REMARK    2  A    between atoms: C_18  and  C_19
REMARK                            x       y       z     vdW  Elec       q    Type
REMARK                         _______ _______ _______ _____ _____    ______ ____
ROOT
ATOM      1  O   UNL     1       1.796   9.400  17.444  0.00  0.00    +0.000 OA
ATOM      2  C   UNL     1       2.057   8.609  18.355  0.00  0.00    +0.000 C 
ATOM      3  N   UNL     1       1.659   8.838  19.670  0.00  0.00    +0.000 N 
ATOM      4  C   UNL     1       1.785   7.938  20.824  0.00  0.00    +0.000 C 
ATOM      5  C   UNL     1       0.453   7.696  21.516  0.00  0.00    +0.000 C 
ATOM      6  C   UNL     1      -0.234   9.000  21.882  0.00  0.00    +0.000 C 
ATOM      7  C   UNL     1      -0.352   9.923  20.659  0.00  0.00    +0.000 C 
ATOM      8  C   UNL     1       1.020  10.127  19.991  0.00  0.00    +0.000 C 
ENDROOT
BRANCH   2   9
ATOM      9  C   UNL     1       2.763   7.316  18.001  0.00  0.00    +0.000 A 
ATOM     10  C   UNL     1       3.963   7.385  17.401  0.00  0.00    +0.000 A 
ATOM     11  C   UNL     1       4.623   6.150  16.963  0.00  0.00    +0.000 A 
ATOM     12  C   UNL     1       5.899   6.164  16.394  0.00  0.00    +0.000 A 
ATOM     13  C   UNL     1       6.473   4.976  15.930  0.00  0.00    +0.000 A 
ATOM     14  C   UNL     1       5.772   3.771  16.012  0.00  0.00    +0.000 A 
ATOM     15  C   UNL     1       4.503   3.743  16.586  0.00  0.00    +0.000 A 
ATOM     16  C   UNL     1       3.945   4.926  17.075  0.00  0.00    +0.000 A 
ATOM     17  C   UNL     1       2.636   4.898  17.770  0.00  0.00    +0.000 A 
ATOM     18  O   UNL     1       1.982   3.868  17.893  0.00  0.00    +0.000 OA
ATOM     19  N   UNL     1       2.193   6.095  18.276  0.00  0.00    +0.000 N 
ATOM     20  H   UNL     1       1.344   6.050  18.824  0.00  0.00    +0.000 HD
ENDBRANCH   2   9
BRANCH   7  21
ATOM     21  C   UNL     1      -0.951  11.225  21.081  0.00  0.00    +0.000 A 
ATOM     22  N   UNL     1      -1.503  12.126  20.295  0.00  0.00    +0.000 NA
ATOM     23  C   UNL     1      -1.803  13.192  21.107  0.00  0.00    +0.000 A 
ATOM     24  C   UNL     1      -2.375  14.431  20.787  0.00  0.00    +0.000 A 
ATOM     25  C   UNL     1      -2.564  15.366  21.812  0.00  0.00    +0.000 A 
ATOM     26  C   UNL     1      -2.191  15.072  23.127  0.00  0.00    +0.000 A 
ATOM     27  C   UNL     1      -1.621  13.840  23.465  0.00  0.00    +0.000 A 
ATOM     28  C   UNL     1      -1.444  12.927  22.423  0.00  0.00    +0.000 A 
ATOM     29  N   UNL     1      -0.921  11.662  22.384  0.00  0.00    +0.000 N 
ATOM     30  H   UNL     1      -0.543  11.154  23.170  0.00  0.00    +0.000 HD
ENDBRANCH   7  21
TORSDOF 2
ENDMDL
MODEL 8
REMARK VINA RESULT:      -7.9      3.324      9.948
REMARK  Name = 
REMARK  2 active torsions:
REMARK  status: ('A' for Active; 'I' for Inactive)
REMARK    1  A    between atoms: C_2  and  C_3
REMARK    2  A    between atoms: C_18  and  C_19
REMARK                            x       y       z     vdW  Elec       q    Type
REMARK                         _______ _______ _______ _____ _____    ______ ____
ROOT
ATOM      1  O   UNL     1      -0.457  10.587  23.488  0.00  0.00    +0.000 OA
ATOM      2  C   UNL     1      -0.723  11.487  22.685  0.00  0.00    +0.000 C 
ATOM      3  N   UNL     1      -0.198  11.504  21.394  0.00  0.00    +0.000 N 
ATOM      4  C   UNL     1      -0.520  12.429  20.300  0.00  0.00    +0.000 C 
ATOM      5  C   UNL     1      -0.958  11.700  19.038  0.00  0.00    +0.000 C 
ATOM      6  C   UNL     1       0.053  10.648  18.618  0.00  0.00    +0.000 C 
ATOM      7  C   UNL     1       0.374   9.696  19.781  0.00  0.00    +0.000 C 
ATOM      8  C   UNL     1       0.801  10.483  21.033  0.00  0.00    +0.000 C 
ENDROOT
BRANCH   2   9
ATOM      9  C   UNL     1      -1.713  12.553  23.105  0.00  0.00    +0.000 A 
ATOM     10  C   UNL     1      -3.024  12.262  23.060  0.00  0.00    +0.000 A 
ATOM     11  C   UNL     1      -4.006  13.307  23.370  0.00  0.00    +0.000 A 
ATOM     12  C   UNL     1      -5.378  13.037  23.399  0.00  0.00    +0.000 A 
ATOM     13  C   UNL     1      -6.291  14.070  23.637  0.00  0.00    +0.000 A 
ATOM     14  C   UNL     1      -5.845  15.380  23.827  0.00  0.00    +0.000 A 
ATOM     15  C   UNL     1      -4.480  15.659  23.808  0.00  0.00    +0.000 A 
ATOM     16  C   UNL     1      -3.570  14.621  23.600  0.00  0.00    +0.000 A 
ATOM     17  C   UNL     1      -2.113  14.884  23.668  0.00  0.00    +0.000 A 
ATOM     18  O   UNL     1      -1.659  16.009  23.853  0.00  0.00    +0.000 OA
ATOM     19  N   UNL     1      -1.291  13.795  23.517  0.00  0.00    +0.000 N 
ATOM     20  H   UNL     1      -0.305  13.970  23.653  0.00  0.00    +0.000 HD
ENDBRANCH   2   9
BRANCH   7  21
ATOM     21  C   UNL     1       1.435   8.735  19.353  0.00  0.00    +0.000 A 
ATOM     22  N   UNL     1       2.115   8.769  18.226  0.00  0.00    +0.000 NA
ATOM     23  C   UNL     1       2.885   7.632  18.224  0.00  0.00    +0.000 A 
ATOM     24  C   UNL     1       3.775   7.152  17.255  0.00  0.00    +0.000 A 
ATOM     25  C   UNL     1       4.435   5.939  17.492  0.00  0.00    +0.000 A 
ATOM     26  C   UNL     1       4.212   5.222  18.670  0.00  0.00    +0.000 A 
ATOM     27  C   UNL     1       3.329   5.687  19.651  0.00  0.00    +0.000 A 
ATOM     28  C   UNL     1       2.685   6.898  19.388  0.00  0.00    +0.000 A 
ATOM     29  N   UNL     1       1.772   7.631  20.098  0.00  0.00    +0.000 N 
ATOM     30  H   UNL     1       1.383   7.382  20.996  0.00  0.00    +0.000 HD
ENDBRANCH   7  21
TORSDOF 2
ENDMDL
MODEL 9
REMARK VINA RESULT:      -7.9      3.297     10.079
REMARK  Name = 
REMARK  2 active torsions:
REMARK  status: ('A' for Active; 'I' for Inactive)
REMARK    1  A    between atoms: C_2  and  C_3
REMARK    2  A    between atoms: C_18  and  C_19
REMARK                            x       y       z     vdW  Elec       q    Type
REMARK                         _______ _______ _______ _____ _____    ______ ____
ROOT
ATOM      1  O   UNL     1      -0.271  10.124  23.487  0.00  0.00    +0.000 OA
ATOM      2  C   UNL     1      -0.540  11.013  22.673  0.00  0.00    +0.000 C 
ATOM      3  N   UNL     1      -0.030  11.006  21.376  0.00  0.00    +0.000 N 
ATOM      4  C   UNL     1      -0.358  11.915  20.271  0.00  0.00    +0.000 C 
ATOM      5  C   UNL     1      -0.814  11.169  19.026  0.00  0.00    +0.000 C 
ATOM      6  C   UNL     1       0.186  10.105  18.612  0.00  0.00    +0.000 C 
ATOM      7  C   UNL     1       0.514   9.169  19.786  0.00  0.00    +0.000 C 
ATOM      8  C   UNL     1       0.960   9.973  21.021  0.00  0.00    +0.000 C 
ENDROOT
BRANCH   2   9
ATOM      9  C   UNL     1      -1.520  12.091  23.086  0.00  0.00    +0.000 A 
ATOM     10  C   UNL     1      -1.069  13.350  23.215  0.00  0.00    +0.000 A 
ATOM     11  C   UNL     1      -1.976  14.394  23.706  0.00  0.00    +0.000 A 
ATOM     12  C   UNL     1      -1.573  15.730  23.796  0.00  0.00    +0.000 A 
ATOM     13  C   UNL     1      -2.441  16.690  24.326  0.00  0.00    +0.000 A 
ATOM     14  C   UNL     1      -3.707  16.322  24.788  0.00  0.00    +0.000 A 
ATOM     15  C   UNL     1      -4.122  14.996  24.696  0.00  0.00    +0.000 A 
ATOM     16  C   UNL     1      -3.264  14.046  24.138  0.00  0.00    +0.000 A 
ATOM     17  C   UNL     1      -3.724  12.649  23.948  0.00  0.00    +0.000 A 
ATOM     18  O   UNL     1      -4.832  12.270  24.313  0.00  0.00    +0.000 OA
ATOM     19  N   UNL     1      -2.840  11.797  23.333  0.00  0.00    +0.000 N 
ATOM     20  H   UNL     1      -3.195  10.873  23.129  0.00  0.00    +0.000 HD
ENDBRANCH   2   9
BRANCH   7  21
ATOM     21  C   UNL     1       1.564   8.195  19.362  0.00  0.00    +0.000 A 
ATOM     22  N   UNL     1       2.013   7.172  20.060  0.00  0.00    +0.000 NA
ATOM     23  C   UNL     1       3.041   6.642  19.320  0.00  0.00    +0.000 A 
ATOM     24  C   UNL     1       3.888   5.563  19.604  0.00  0.00    +0.000 A 
ATOM     25  C   UNL     1       4.883   5.229  18.677  0.00  0.00    +0.000 A 
ATOM     26  C   UNL     1       5.029   5.956  17.492  0.00  0.00    +0.000 A 
ATOM     27  C   UNL     1       4.192   7.035  17.190  0.00  0.00    +0.000 A 
ATOM     28  C   UNL     1       3.209   7.345  18.133  0.00  0.00    +0.000 A 
ATOM     29  N   UNL     1       2.245   8.317  18.175  0.00  0.00    +0.000 N 
ATOM     30  H   UNL     1       2.088   9.025  17.472  0.00  0.00    +0.000 HD
ENDBRANCH   7  21
TORSDOF 2
ENDMDL
