MODEL 1
REMARK VINA RESULT:      -8.9      0.000      0.000
REMARK  Name = 
REMARK  5 active torsions:
REMARK  status: ('A' for Active; 'I' for Inactive)
REMARK    1  A    between atoms: C_1  and  C_2
REMARK    2  A    between atoms: C_4  and  C_5
REMARK    3  A    between atoms: C_9  and  N_10
REMARK    4  A    between atoms: C_11  and  C_13
REMARK    5  A    between atoms: N_22  and  C_23
REMARK                            x       y       z     vdW  Elec       q    Type
REMARK                         _______ _______ _______ _____ _____    ______ ____
ROOT
ATOM      1  N   UNL     1       1.908   7.649  19.965  0.00  0.00    +0.000 N 
ATOM      2  C   UNL     1       1.588   8.524  18.943  0.00  0.00    +0.000 C 
ATOM      3  O   UNL     1       1.904   8.427  17.761  0.00  0.00    +0.000 OA
ATOM      4  H   UNL     1       1.652   7.918  20.907  0.00  0.00    +0.000 HD
ENDROOT
BRANCH   2   5
ATOM      5  C   UNL     1       0.764   9.692  19.313  0.00  0.00    +0.000 A 
ATOM      6  C   UNL     1      -0.002  10.324  18.319  0.00  0.00    +0.000 A 
ATOM      7  C   UNL     1      -0.981  11.275  18.656  0.00  0.00    +0.000 A 
ATOM      8  C   UNL     1      -1.234  11.582  19.993  0.00  0.00    +0.000 A 
ATOM      9  C   UNL     1      -0.471  10.936  20.946  0.00  0.00    +0.000 A 
ATOM     10  C   UNL     1       0.530  10.040  20.628  0.00  0.00    +0.000 A 
ATOM     11  O   UNL     1       1.094   9.459  21.755  0.00  0.00    +0.000 OA
ATOM     12  C   UNL     1       0.299   9.961  22.794  0.00  0.00    +0.000 A 
ATOM     13  O   UNL     1       0.403   9.577  23.950  0.00  0.00    +0.000 OA
ATOM     14  N   UNL     1      -0.599  10.891  22.315  0.00  0.00    +0.000 N 
ATOM     15  C   UNL     1      -1.717  11.422  23.044  0.00  0.00    +0.000 C 
ENDBRANCH   2   5
BRANCH   1  20
ATOM     16  C   UNL     1       4.202   4.972  18.827  0.00  0.00    +0.000 A 
ATOM     17  C   UNL     1       3.723   3.872  19.552  0.00  0.00    +0.000 A 
ATOM     18  C   UNL     1       2.630   4.008  20.400  0.00  0.00    +0.000 A 
ATOM     19  C   UNL     1       1.998   5.242  20.527  0.00  0.00    +0.000 A 
ATOM     20  C   UNL     1       2.451   6.358  19.811  0.00  0.00    +0.000 A 
ATOM     21  C   UNL     1       3.543   6.209  18.950  0.00  0.00    +0.000 A 
BRANCH  16  25
ATOM     22  C   UNL     1       7.073   4.667  14.854  0.00  0.00    +0.000 C 
ATOM     23  C   UNL     1       6.510   4.700  16.211  0.00  0.00    +0.000 A 
ATOM     24  N   UNL     1       5.289   4.974  16.601  0.00  0.00    +0.000 NA
ATOM     25  C   UNL     1       5.367   4.816  17.969  0.00  0.00    +0.000 A 
ATOM     26  N   UNL     1       6.591   4.472  18.407  0.00  0.00    +0.000 NA
ATOM     27  O   UNL     1       7.351   4.393  17.236  0.00  0.00    +0.000 OA
ENDBRANCH  16  25
ENDBRANCH   1  20
TORSDOF 3
ENDMDL
MODEL 2
REMARK VINA RESULT:      -8.9      2.341      8.151
REMARK  Name = 
REMARK  5 active torsions:
REMARK  status: ('A' for Active; 'I' for Inactive)
REMARK    1  A    between atoms: C_1  and  C_2
REMARK    2  A    between atoms: C_4  and  C_5
REMARK    3  A    between atoms: C_9  and  N_10
REMARK    4  A    between atoms: C_11  and  C_13
REMARK    5  A    between atoms: N_22  and  C_23
REMARK                            x       y       z     vdW  Elec       q    Type
REMARK                         _______ _______ _______ _____ _____    ______ ____
ROOT
ATOM      1  N   UNL     1       2.452   7.118  19.773  0.00  0.00    +0.000 N 
ATOM      2  C   UNL     1       2.258   5.764  19.971  0.00  0.00    +0.000 C 
ATOM      3  O   UNL     1       1.536   5.236  20.811  0.00  0.00    +0.000 OA
ATOM      4  H   UNL     1       3.154   7.396  19.097  0.00  0.00    +0.000 HD
ENDROOT
BRANCH   2   5
ATOM      5  C   UNL     1       2.984   4.857  19.059  0.00  0.00    +0.000 A 
ATOM      6  C   UNL     1       2.259   4.159  18.078  0.00  0.00    +0.000 A 
ATOM      7  C   UNL     1       2.919   3.479  17.040  0.00  0.00    +0.000 A 
ATOM      8  C   UNL     1       4.310   3.516  16.945  0.00  0.00    +0.000 A 
ATOM      9  C   UNL     1       4.992   4.221  17.919  0.00  0.00    +0.000 A 
ATOM     10  C   UNL     1       4.361   4.847  18.975  0.00  0.00    +0.000 A 
ATOM     11  O   UNL     1       5.248   5.559  19.770  0.00  0.00    +0.000 OA
ATOM     12  C   UNL     1       6.458   5.434  19.075  0.00  0.00    +0.000 A 
ATOM     13  O   UNL     1       7.470   6.038  19.397  0.00  0.00    +0.000 OA
ATOM     14  N   UNL     1       6.316   4.583  17.999  0.00  0.00    +0.000 N 
ATOM     15  C   UNL     1       7.270   4.415  16.938  0.00  0.00    +0.000 C 
ENDBRANCH   2   5
BRANCH   1  20
ATOM     16  C   UNL     1       0.055   9.936  19.968  0.00  0.00    +0.000 A 
ATOM     17  C   UNL     1      -0.011  10.147  21.353  0.00  0.00    +0.000 A 
ATOM     18  C   UNL     1       0.752   9.374  22.221  0.00  0.00    +0.000 A 
ATOM     19  C   UNL     1       1.595   8.387  21.715  0.00  0.00    +0.000 A 
ATOM     20  C   UNL     1       1.684   8.158  20.336  0.00  0.00    +0.000 A 
ATOM     21  C   UNL     1       0.924   8.949  19.470  0.00  0.00    +0.000 A 
BRANCH  16  25
ATOM     22  C   UNL     1      -3.342  11.254  16.675  0.00  0.00    +0.000 C 
ATOM     23  C   UNL     1      -2.254  11.197  17.662  0.00  0.00    +0.000 A 
ATOM     24  N   UNL     1      -1.813  10.179  18.359  0.00  0.00    +0.000 NA
ATOM     25  C   UNL     1      -0.776  10.735  19.079  0.00  0.00    +0.000 A 
ATOM     26  N   UNL     1      -0.593  12.046  18.845  0.00  0.00    +0.000 NA
ATOM     27  O   UNL     1      -1.577  12.354  17.901  0.00  0.00    +0.000 OA
ENDBRANCH  16  25
ENDBRANCH   1  20
TORSDOF 3
ENDMDL
MODEL 3
REMARK VINA RESULT:      -8.8      1.148      1.213
REMARK  Name = 
REMARK  5 active torsions:
REMARK  status: ('A' for Active; 'I' for Inactive)
REMARK    1  A    between atoms: C_1  and  C_2
REMARK    2  A    between atoms: C_4  and  C_5
REMARK    3  A    between atoms: C_9  and  N_10
REMARK    4  A    between atoms: C_11  and  C_13
REMARK    5  A    between atoms: N_22  and  C_23
REMARK                            x       y       z     vdW  Elec       q    Type
REMARK                         _______ _______ _______ _____ _____    ______ ____
ROOT
ATOM      1  N   UNL     1       1.795   8.174  19.588  0.00  0.00    +0.000 N 
ATOM      2  C   UNL     1       1.440   9.153  18.678  0.00  0.00    +0.000 C 
ATOM      3  O   UNL     1       1.769   9.219  17.498  0.00  0.00    +0.000 OA
ATOM      4  H   UNL     1       1.518   8.311  20.553  0.00  0.00    +0.000 HD
ENDROOT
BRANCH   2   5
ATOM      5  C   UNL     1       0.555  10.224  19.178  0.00  0.00    +0.000 A 
ATOM      6  C   UNL     1      -0.289  10.886  18.270  0.00  0.00    +0.000 A 
ATOM      7  C   UNL     1      -1.315  11.733  18.723  0.00  0.00    +0.000 A 
ATOM      8  C   UNL     1      -1.536  11.904  20.090  0.00  0.00    +0.000 A 
ATOM      9  C   UNL     1      -0.697  11.231  20.955  0.00  0.00    +0.000 A 
ATOM     10  C   UNL     1       0.349  10.439  20.526  0.00  0.00    +0.000 A 
ATOM     11  O   UNL     1       0.993   9.802  21.577  0.00  0.00    +0.000 OA
ATOM     12  C   UNL     1       0.208  10.154  22.682  0.00  0.00    +0.000 A 
ATOM     13  O   UNL     1       0.381   9.679  23.795  0.00  0.00    +0.000 OA
ATOM     14  N   UNL     1      -0.769  11.058  22.318  0.00  0.00    +0.000 N 
ATOM     15  C   UNL     1      -1.890  11.445  23.127  0.00  0.00    +0.000 C 
ENDBRANCH   2   5
BRANCH   1  20
ATOM     16  C   UNL     1       3.895   5.698  17.804  0.00  0.00    +0.000 A 
ATOM     17  C   UNL     1       3.801   4.590  18.659  0.00  0.00    +0.000 A 
ATOM     18  C   UNL     1       3.028   4.654  19.813  0.00  0.00    +0.000 A 
ATOM     19  C   UNL     1       2.333   5.821  20.122  0.00  0.00    +0.000 A 
ATOM     20  C   UNL     1       2.404   6.941  19.284  0.00  0.00    +0.000 A 
ATOM     21  C   UNL     1       3.174   6.864  18.118  0.00  0.00    +0.000 A 
BRANCH  16  25
ATOM     22  C   UNL     1       6.341   3.967  13.914  0.00  0.00    +0.000 C 
ATOM     23  C   UNL     1       5.746   4.786  14.980  0.00  0.00    +0.000 A 
ATOM     24  N   UNL     1       4.892   4.446  15.913  0.00  0.00    +0.000 NA
ATOM     25  C   UNL     1       4.734   5.621  16.618  0.00  0.00    +0.000 A 
ATOM     26  N   UNL     1       5.451   6.649  16.129  0.00  0.00    +0.000 NA
ATOM     27  O   UNL     1       6.126   6.092  15.039  0.00  0.00    +0.000 OA
ENDBRANCH  16  25
ENDBRANCH   1  20
TORSDOF 3
ENDMDL
MODEL 4
REMARK VINA RESULT:      -8.8      1.668      2.113
REMARK  Name = 
REMARK  5 active torsions:
REMARK  status: ('A' for Active; 'I' for Inactive)
REMARK    1  A    between atoms: C_1  and  C_2
REMARK    2  A    between atoms: C_4  and  C_5
REMARK    3  A    between atoms: C_9  and  N_10
REMARK    4  A    between atoms: C_11  and  C_13
REMARK    5  A    between atoms: N_22  and  C_23
REMARK                            x       y       z     vdW  Elec       q    Type
REMARK                         _______ _______ _______ _____ _____    ______ ____
ROOT
ATOM      1  N   UNL     1       2.977   7.409  18.343  0.00  0.00    +0.000 N 
ATOM      2  C   UNL     1       2.099   7.578  19.397  0.00  0.00    +0.000 C 
ATOM      3  O   UNL     1       1.843   6.768  20.283  0.00  0.00    +0.000 OA
ATOM      4  H   UNL     1       3.008   8.138  17.639  0.00  0.00    +0.000 HD
ENDROOT
BRANCH   2   5
ATOM      5  C   UNL     1       1.406   8.880  19.473  0.00  0.00    +0.000 A 
ATOM      6  C   UNL     1       0.887   9.442  18.294  0.00  0.00    +0.000 A 
ATOM      7  C   UNL     1       0.016  10.545  18.342  0.00  0.00    +0.000 A 
ATOM      8  C   UNL     1      -0.377  11.079  19.569  0.00  0.00    +0.000 A 
ATOM      9  C   UNL     1       0.142  10.496  20.709  0.00  0.00    +0.000 A 
ATOM     10  C   UNL     1       1.040   9.449  20.676  0.00  0.00    +0.000 A 
ATOM     11  O   UNL     1       1.349   8.981  21.945  0.00  0.00    +0.000 OA
ATOM     12  C   UNL     1       0.495   9.726  22.768  0.00  0.00    +0.000 A 
ATOM     13  O   UNL     1       0.378   9.512  23.965  0.00  0.00    +0.000 OA
ATOM     14  N   UNL     1      -0.184  10.676  22.033  0.00  0.00    +0.000 N 
ATOM     15  C   UNL     1      -1.306  11.442  22.497  0.00  0.00    +0.000 C 
ENDBRANCH   2   5
BRANCH   1  20
ATOM     16  C   UNL     1       5.509   5.217  16.760  0.00  0.00    +0.000 A 
ATOM     17  C   UNL     1       5.942   4.460  17.857  0.00  0.00    +0.000 A 
ATOM     18  C   UNL     1       5.384   4.657  19.115  0.00  0.00    +0.000 A 
ATOM     19  C   UNL     1       4.382   5.608  19.290  0.00  0.00    +0.000 A 
ATOM     20  C   UNL     1       3.925   6.376  18.211  0.00  0.00    +0.000 A 
ATOM     21  C   UNL     1       4.483   6.161  16.946  0.00  0.00    +0.000 A 
BRANCH  16  25
ATOM     22  C   UNL     1       6.465   3.524  12.250  0.00  0.00    +0.000 C 
ATOM     23  C   UNL     1       6.456   4.228  13.541  0.00  0.00    +0.000 A 
ATOM     24  N   UNL     1       5.587   4.164  14.519  0.00  0.00    +0.000 NA
ATOM     25  C   UNL     1       6.128   5.017  15.458  0.00  0.00    +0.000 A 
ATOM     26  N   UNL     1       7.278   5.596  15.068  0.00  0.00    +0.000 NA
ATOM     27  O   UNL     1       7.497   5.069  13.792  0.00  0.00    +0.000 OA
ENDBRANCH  16  25
ENDBRANCH   1  20
TORSDOF 3
ENDMDL
MODEL 5
REMARK VINA RESULT:      -8.6      3.169      8.615
REMARK  Name = 
REMARK  5 active torsions:
REMARK  status: ('A' for Active; 'I' for Inactive)
REMARK    1  A    between atoms: C_1  and  C_2
REMARK    2  A    between atoms: C_4  and  C_5
REMARK    3  A    between atoms: C_9  and  N_10
REMARK    4  A    between atoms: C_11  and  C_13
REMARK    5  A    between atoms: N_22  and  C_23
REMARK                            x       y       z     vdW  Elec       q    Type
REMARK                         _______ _______ _______ _____ _____    ______ ____
ROOT
ATOM      1  N   UNL     1       1.751   8.687  18.125  0.00  0.00    +0.000 N 
ATOM      2  C   UNL     1       2.270   7.619  18.832  0.00  0.00    +0.000 C 
ATOM      3  O   UNL     1       2.224   7.444  20.046  0.00  0.00    +0.000 OA
ATOM      4  H   UNL     1       1.953   8.734  17.133  0.00  0.00    +0.000 HD
ENDROOT
BRANCH   2   5
ATOM      5  C   UNL     1       2.938   6.568  18.038  0.00  0.00    +0.000 A 
ATOM      6  C   UNL     1       4.160   6.865  17.410  0.00  0.00    +0.000 A 
ATOM      7  C   UNL     1       4.951   5.846  16.852  0.00  0.00    +0.000 A 
ATOM      8  C   UNL     1       4.552   4.513  16.944  0.00  0.00    +0.000 A 
ATOM      9  C   UNL     1       3.352   4.254  17.578  0.00  0.00    +0.000 A 
ATOM     10  C   UNL     1       2.538   5.248  18.082  0.00  0.00    +0.000 A 
ATOM     11  O   UNL     1       1.432   4.736  18.746  0.00  0.00    +0.000 OA
ATOM     12  C   UNL     1       1.670   3.355  18.726  0.00  0.00    +0.000 A 
ATOM     13  O   UNL     1       0.970   2.556  19.331  0.00  0.00    +0.000 OA
ATOM     14  N   UNL     1       2.789   3.064  17.974  0.00  0.00    +0.000 N 
ATOM     15  C   UNL     1       3.460   1.795  17.938  0.00  0.00    +0.000 C 
ENDBRANCH   2   5
BRANCH   1  20
ATOM     16  C   UNL     1      -1.255  10.840  18.354  0.00  0.00    +0.000 A 
ATOM     17  C   UNL     1      -1.058  11.457  19.598  0.00  0.00    +0.000 A 
ATOM     18  C   UNL     1       0.077  11.179  20.351  0.00  0.00    +0.000 A 
ATOM     19  C   UNL     1       1.032  10.288  19.867  0.00  0.00    +0.000 A 
ATOM     20  C   UNL     1       0.864   9.661  18.626  0.00  0.00    +0.000 A 
ATOM     21  C   UNL     1      -0.275   9.956  17.869  0.00  0.00    +0.000 A 
BRANCH  16  25
ATOM     22  C   UNL     1      -5.859  12.098  17.197  0.00  0.00    +0.000 C 
ATOM     23  C   UNL     1      -4.452  11.672  17.203  0.00  0.00    +0.000 A 
ATOM     24  N   UNL     1      -3.601  11.620  18.198  0.00  0.00    +0.000 NA
ATOM     25  C   UNL     1      -2.466  11.120  17.596  0.00  0.00    +0.000 A 
ATOM     26  N   UNL     1      -2.606  10.888  16.278  0.00  0.00    +0.000 NA
ATOM     27  O   UNL     1      -3.930  11.254  16.018  0.00  0.00    +0.000 OA
ENDBRANCH  16  25
ENDBRANCH   1  20
TORSDOF 3
ENDMDL
MODEL 6
REMARK VINA RESULT:      -8.5      2.894      8.311
REMARK  Name = 
REMARK  5 active torsions:
REMARK  status: ('A' for Active; 'I' for Inactive)
REMARK    1  A    between atoms: C_1  and  C_2
REMARK    2  A    between atoms: C_4  and  C_5
REMARK    3  A    between atoms: C_9  and  N_10
REMARK    4  A    between atoms: C_11  and  C_13
REMARK    5  A    between atoms: N_22  and  C_23
REMARK                            x       y       z     vdW  Elec       q    Type
REMARK                         _______ _______ _______ _____ _____    ______ ____
ROOT
ATOM      1  N   UNL     1       1.667   8.567  18.923  0.00  0.00    +0.000 N 
ATOM      2  C   UNL     1       1.824   7.734  20.015  0.00  0.00    +0.000 C 
ATOM      3  O   UNL     1       1.465   7.952  21.168  0.00  0.00    +0.000 OA
ATOM      4  H   UNL     1       2.102   8.283  18.053  0.00  0.00    +0.000 HD
ENDROOT
BRANCH   2   5
ATOM      5  C   UNL     1       2.478   6.435  19.761  0.00  0.00    +0.000 A 
ATOM      6  C   UNL     1       1.979   5.287  20.401  0.00  0.00    +0.000 A 
ATOM      7  C   UNL     1       2.401   4.003  20.014  0.00  0.00    +0.000 A 
ATOM      8  C   UNL     1       3.299   3.844  18.959  0.00  0.00    +0.000 A 
ATOM      9  C   UNL     1       3.761   4.991  18.344  0.00  0.00    +0.000 A 
ATOM     10  C   UNL     1       3.399   6.260  18.748  0.00  0.00    +0.000 A 
ATOM     11  O   UNL     1       3.924   7.245  17.923  0.00  0.00    +0.000 OA
ATOM     12  C   UNL     1       4.541   6.504  16.908  0.00  0.00    +0.000 A 
ATOM     13  O   UNL     1       5.018   7.021  15.908  0.00  0.00    +0.000 OA
ATOM     14  N   UNL     1       4.495   5.154  17.192  0.00  0.00    +0.000 N 
ATOM     15  C   UNL     1       4.807   4.098  16.271  0.00  0.00    +0.000 C 
ENDBRANCH   2   5
BRANCH   1  20
ATOM     16  C   UNL     1      -1.129  10.790  17.940  0.00  0.00    +0.000 A 
ATOM     17  C   UNL     1      -0.919  11.887  18.788  0.00  0.00    +0.000 A 
ATOM     18  C   UNL     1       0.157  11.903  19.668  0.00  0.00    +0.000 A 
ATOM     19  C   UNL     1       1.040  10.827  19.706  0.00  0.00    +0.000 A 
ATOM     20  C   UNL     1       0.858   9.719  18.868  0.00  0.00    +0.000 A 
ATOM     21  C   UNL     1      -0.219   9.718  17.976  0.00  0.00    +0.000 A 
BRANCH  16  25
ATOM     22  C   UNL     1      -4.012  10.014  14.041  0.00  0.00    +0.000 C 
ATOM     23  C   UNL     1      -3.430  10.402  15.334  0.00  0.00    +0.000 A 
ATOM     24  N   UNL     1      -2.251  10.125  15.834  0.00  0.00    +0.000 NA
ATOM     25  C   UNL     1      -2.279  10.779  17.048  0.00  0.00    +0.000 A 
ATOM     26  N   UNL     1      -3.435  11.420  17.294  0.00  0.00    +0.000 NA
ATOM     27  O   UNL     1      -4.201  11.170  16.152  0.00  0.00    +0.000 OA
ENDBRANCH  16  25
ENDBRANCH   1  20
TORSDOF 3
ENDMDL
MODEL 7
REMARK VINA RESULT:      -8.5      1.676      2.364
REMARK  Name = 
REMARK  5 active torsions:
REMARK  status: ('A' for Active; 'I' for Inactive)
REMARK    1  A    between atoms: C_1  and  C_2
REMARK    2  A    between atoms: C_4  and  C_5
REMARK    3  A    between atoms: C_9  and  N_10
REMARK    4  A    between atoms: C_11  and  C_13
REMARK    5  A    between atoms: N_22  and  C_23
REMARK                            x       y       z     vdW  Elec       q    Type
REMARK                         _______ _______ _______ _____ _____    ______ ____
ROOT
ATOM      1  N   UNL     1       1.573   6.961  20.971  0.00  0.00    +0.000 N 
ATOM      2  C   UNL     1       1.339   8.112  20.243  0.00  0.00    +0.000 C 
ATOM      3  O   UNL     1       1.696   8.345  19.092  0.00  0.00    +0.000 OA
ATOM      4  H   UNL     1       1.293   6.959  21.945  0.00  0.00    +0.000 HD
ENDROOT
BRANCH   2   5
ATOM      5  C   UNL     1       0.559   9.169  20.918  0.00  0.00    +0.000 A 
ATOM      6  C   UNL     1      -0.113   8.858  22.113  0.00  0.00    +0.000 A 
ATOM      7  C   UNL     1      -0.662   9.872  22.917  0.00  0.00    +0.000 A 
ATOM      8  C   UNL     1      -0.516  11.212  22.561  0.00  0.00    +0.000 A 
ATOM      9  C   UNL     1       0.160  11.484  21.387  0.00  0.00    +0.000 A 
ATOM     10  C   UNL     1       0.656  10.498  20.558  0.00  0.00    +0.000 A 
ATOM     11  O   UNL     1       1.368  11.020  19.487  0.00  0.00    +0.000 OA
ATOM     12  C   UNL     1       1.385  12.393  19.764  0.00  0.00    +0.000 A 
ATOM     13  O   UNL     1       2.035  13.191  19.106  0.00  0.00    +0.000 OA
ATOM     14  N   UNL     1       0.610  12.677  20.870  0.00  0.00    +0.000 N 
ATOM     15  C   UNL     1       0.594  13.926  21.577  0.00  0.00    +0.000 C 
ENDBRANCH   2   5
BRANCH   1  20
ATOM     16  C   UNL     1       3.854   4.576  19.290  0.00  0.00    +0.000 A 
ATOM     17  C   UNL     1       3.209   3.356  19.538  0.00  0.00    +0.000 A 
ATOM     18  C   UNL     1       2.010   3.322  20.242  0.00  0.00    +0.000 A 
ATOM     19  C   UNL     1       1.438   4.507  20.698  0.00  0.00    +0.000 A 
ATOM     20  C   UNL     1       2.058   5.741  20.460  0.00  0.00    +0.000 A 
ATOM     21  C   UNL     1       3.257   5.766  19.740  0.00  0.00    +0.000 A 
BRANCH  16  25
ATOM     22  C   UNL     1       7.195   4.671  15.692  0.00  0.00    +0.000 C 
ATOM     23  C   UNL     1       6.474   4.628  16.972  0.00  0.00    +0.000 A 
ATOM     24  N   UNL     1       5.189   4.725  17.208  0.00  0.00    +0.000 NA
ATOM     25  C   UNL     1       5.124   4.586  18.579  0.00  0.00    +0.000 A 
ATOM     26  N   UNL     1       6.323   4.425  19.166  0.00  0.00    +0.000 NA
ATOM     27  O   UNL     1       7.222   4.451  18.096  0.00  0.00    +0.000 OA
ENDBRANCH  16  25
ENDBRANCH   1  20
TORSDOF 3
ENDMDL
MODEL 8
REMARK VINA RESULT:      -8.5      3.241      8.364
REMARK  Name = 
REMARK  5 active torsions:
REMARK  status: ('A' for Active; 'I' for Inactive)
REMARK    1  A    between atoms: C_1  and  C_2
REMARK    2  A    between atoms: C_4  and  C_5
REMARK    3  A    between atoms: C_9  and  N_10
REMARK    4  A    between atoms: C_11  and  C_13
REMARK    5  A    between atoms: N_22  and  C_23
REMARK                            x       y       z     vdW  Elec       q    Type
REMARK                         _______ _______ _______ _____ _____    ______ ____
ROOT
ATOM      1  N   UNL     1       2.018   8.457  18.360  0.00  0.00    +0.000 N 
ATOM      2  C   UNL     1       2.301   7.307  19.073  0.00  0.00    +0.000 C 
ATOM      3  O   UNL     1       1.919   7.026  20.205  0.00  0.00    +0.000 OA
ATOM      4  H   UNL     1       2.486   8.582  17.470  0.00  0.00    +0.000 HD
ENDROOT
BRANCH   2   5
ATOM      5  C   UNL     1       3.140   6.301  18.390  0.00  0.00    +0.000 A 
ATOM      6  C   UNL     1       4.487   6.607  18.127  0.00  0.00    +0.000 A 
ATOM      7  C   UNL     1       5.384   5.610  17.706  0.00  0.00    +0.000 A 
ATOM      8  C   UNL     1       4.960   4.287  17.577  0.00  0.00    +0.000 A 
ATOM      9  C   UNL     1       3.633   4.019  17.855  0.00  0.00    +0.000 A 
ATOM     10  C   UNL     1       2.727   4.996  18.216  0.00  0.00    +0.000 A 
ATOM     11  O   UNL     1       1.481   4.469  18.525  0.00  0.00    +0.000 OA
ATOM     12  C   UNL     1       1.700   3.088  18.448  0.00  0.00    +0.000 A 
ATOM     13  O   UNL     1       0.858   2.266  18.781  0.00  0.00    +0.000 OA
ATOM     14  N   UNL     1       2.973   2.820  17.989  0.00  0.00    +0.000 N 
ATOM     15  C   UNL     1       3.616   1.537  18.017  0.00  0.00    +0.000 C 
ENDBRANCH   2   5
BRANCH   1  20
ATOM     16  C   UNL     1      -1.069  10.491  18.114  0.00  0.00    +0.000 A 
ATOM     17  C   UNL     1      -1.033  11.193  19.327  0.00  0.00    +0.000 A 
ATOM     18  C   UNL     1       0.020  11.012  20.217  0.00  0.00    +0.000 A 
ATOM     19  C   UNL     1       1.053  10.133  19.901  0.00  0.00    +0.000 A 
ATOM     20  C   UNL     1       1.047   9.422  18.694  0.00  0.00    +0.000 A 
ATOM     21  C   UNL     1      -0.010   9.620  17.800  0.00  0.00    +0.000 A 
BRANCH  16  25
ATOM     22  C   UNL     1      -4.011  10.189  14.194  0.00  0.00    +0.000 C 
ATOM     23  C   UNL     1      -3.381  10.482  15.489  0.00  0.00    +0.000 A 
ATOM     24  N   UNL     1      -2.272  10.010  16.003  0.00  0.00    +0.000 NA
ATOM     25  C   UNL     1      -2.196  10.671  17.211  0.00  0.00    +0.000 A 
ATOM     26  N   UNL     1      -3.225  11.507  17.440  0.00  0.00    +0.000 NA
ATOM     27  O   UNL     1      -4.013  11.382  16.292  0.00  0.00    +0.000 OA
ENDBRANCH  16  25
ENDBRANCH   1  20
TORSDOF 3
ENDMDL
MODEL 9
REMARK VINA RESULT:      -8.4      2.839      8.747
REMARK  Name = 
REMARK  5 active torsions:
REMARK  status: ('A' for Active; 'I' for Inactive)
REMARK    1  A    between atoms: C_1  and  C_2
REMARK    2  A    between atoms: C_4  and  C_5
REMARK    3  A    between atoms: C_9  and  N_10
REMARK    4  A    between atoms: C_11  and  C_13
REMARK    5  A    between atoms: N_22  and  C_23
REMARK                            x       y       z     vdW  Elec       q    Type
REMARK                         _______ _______ _______ _____ _____    ______ ____
ROOT
ATOM      1  N   UNL     1       2.003   8.185  17.893  0.00  0.00    +0.000 N 
ATOM      2  C   UNL     1       2.304   7.248  18.863  0.00  0.00    +0.000 C 
ATOM      3  O   UNL     1       2.209   7.387  20.079  0.00  0.00    +0.000 OA
ATOM      4  H   UNL     1       2.225   7.951  16.932  0.00  0.00    +0.000 HD
ENDROOT
BRANCH   2   5
ATOM      5  C   UNL     1       2.774   5.933  18.383  0.00  0.00    +0.000 A 
ATOM      6  C   UNL     1       1.849   4.880  18.277  0.00  0.00    +0.000 A 
ATOM      7  C   UNL     1       2.182   3.692  17.603  0.00  0.00    +0.000 A 
ATOM      8  C   UNL     1       3.430   3.552  16.996  0.00  0.00    +0.000 A 
ATOM      9  C   UNL     1       4.311   4.609  17.109  0.00  0.00    +0.000 A 
ATOM     10  C   UNL     1       4.019   5.760  17.813  0.00  0.00    +0.000 A 
ATOM     11  O   UNL     1       5.025   6.710  17.711  0.00  0.00    +0.000 OA
ATOM     12  C   UNL     1       5.914   6.124  16.800  0.00  0.00    +0.000 A 
ATOM     13  O   UNL     1       6.883   6.717  16.348  0.00  0.00    +0.000 OA
ATOM     14  N   UNL     1       5.515   4.841  16.486  0.00  0.00    +0.000 N 
ATOM     15  C   UNL     1       6.042   4.044  15.415  0.00  0.00    +0.000 C 
ENDBRANCH   2   5
BRANCH   1  20
ATOM     16  C   UNL     1      -0.785  10.623  17.839  0.00  0.00    +0.000 A 
ATOM     17  C   UNL     1      -0.238  11.684  18.574  0.00  0.00    +0.000 A 
ATOM     18  C   UNL     1       1.059  11.604  19.070  0.00  0.00    +0.000 A 
ATOM     19  C   UNL     1       1.826  10.467  18.830  0.00  0.00    +0.000 A 
ATOM     20  C   UNL     1       1.307   9.394  18.094  0.00  0.00    +0.000 A 
ATOM     21  C   UNL     1       0.007   9.488  17.588  0.00  0.00    +0.000 A 
BRANCH  16  25
ATOM     22  C   UNL     1      -5.542  11.787  17.467  0.00  0.00    +0.000 C 
ATOM     23  C   UNL     1      -4.180  11.264  17.287  0.00  0.00    +0.000 A 
ATOM     24  N   UNL     1      -3.096  11.505  17.983  0.00  0.00    +0.000 NA
ATOM     25  C   UNL     1      -2.155  10.714  17.356  0.00  0.00    +0.000 A 
ATOM     26  N   UNL     1      -2.637  10.024  16.307  0.00  0.00    +0.000 NA
ATOM     27  O   UNL     1      -3.985  10.389  16.262  0.00  0.00    +0.000 OA
ENDBRANCH  16  25
ENDBRANCH   1  20
TORSDOF 3
ENDMDL
