MODEL 1
REMARK VINA RESULT:      -7.8      0.000      0.000
REMARK  Name = 
REMARK  5 active torsions:
REMARK  status: ('A' for Active; 'I' for Inactive)
REMARK    1  A    between atoms: C_1  and  C_2
REMARK    2  A    between atoms: C_6  and  N_7
REMARK    3  A    between atoms: C_10  and  C_11
REMARK    4  A    between atoms: N_13  and  C_14
REMARK    5  A    between atoms: C_25  and  C_26
REMARK                            x       y       z     vdW  Elec       q    Type
REMARK                         _______ _______ _______ _____ _____    ______ ____
ROOT
ATOM      1  N   UNL     1       2.439   7.440  18.767  0.00  0.00    +0.000 N 
ATOM      2  N   UNL     1       2.781   8.227  17.705  0.00  0.00    +0.000 NA
ATOM      3  C   UNL     1       2.016   9.314  17.819  0.00  0.00    +0.000 A 
ATOM      4  C   UNL     1       1.266   9.327  19.001  0.00  0.00    +0.000 A 
ATOM      5  C   UNL     1       1.625   8.134  19.636  0.00  0.00    +0.000 A 
ENDROOT
BRANCH   1  11
ATOM      6  C   UNL     1       1.554   2.589  18.239  0.00  0.00    +0.000 C 
ATOM      7  C   UNL     1       2.502   3.713  18.543  0.00  0.00    +0.000 A 
ATOM      8  C   UNL     1       3.851   3.456  18.803  0.00  0.00    +0.000 A 
ATOM      9  C   UNL     1       4.722   4.501  19.104  0.00  0.00    +0.000 A 
ATOM     10  C   UNL     1       4.258   5.818  19.128  0.00  0.00    +0.000 A 
ATOM     11  C   UNL     1       2.924   6.102  18.813  0.00  0.00    +0.000 A 
ATOM     12  C   UNL     1       2.040   5.039  18.557  0.00  0.00    +0.000 A 
ENDBRANCH   1  11
BRANCH   4  13
ATOM     13  C   UNL     1       0.356  10.307  19.584  0.00  0.00    +0.000 C 
ATOM     14  O   UNL     1      -0.806  10.347  19.191  0.00  0.00    +0.000 OA
ATOM     15  N   UNL     1       0.870  11.172  20.531  0.00  0.00    +0.000 N 
ATOM     16  H   UNL     1       1.875  11.270  20.605  0.00  0.00    +0.000 HD
BRANCH  15  17
ATOM     17  C   UNL     1       0.073  12.068  21.291  0.00  0.00    +0.000 A 
ATOM     18  C   UNL     1      -0.709  11.659  22.373  0.00  0.00    +0.000 A 
ATOM     19  C   UNL     1      -1.492  12.576  23.072  0.00  0.00    +0.000 A 
ATOM     20  C   UNL     1      -1.478  13.910  22.681  0.00  0.00    +0.000 A 
ATOM     21  N   UNL     1      -2.309  14.832  23.402  0.00  0.00    +0.000 N 
ATOM     22  N   UNL     1      -2.419  16.150  23.065  0.00  0.00    +0.000 NA
ATOM     23  C   UNL     1      -3.280  16.608  23.975  0.00  0.00    +0.000 A 
ATOM     24  C   UNL     1      -3.659  15.581  24.840  0.00  0.00    +0.000 A 
ATOM     25  N   UNL     1      -3.056  14.443  24.488  0.00  0.00    +0.000 NA
ATOM     26  N   UNL     1      -0.701  14.349  21.647  0.00  0.00    +0.000 NA
ATOM     27  C   UNL     1       0.052  13.427  20.992  0.00  0.00    +0.000 A 
ENDBRANCH  15  17
ENDBRANCH   4  13
BRANCH   5  28
ATOM     28  C   UNL     1       1.295   7.709  21.014  0.00  0.00    +0.000 C 
ATOM     29  F   UNL     1       1.728   6.466  21.339  0.00  0.00    +0.000 F 
ATOM     30  F   UNL     1       1.870   8.520  21.940  0.00  0.00    +0.000 F 
ATOM     31  F   UNL     1      -0.043   7.715  21.228  0.00  0.00    +0.000 F 
ENDBRANCH   5  28
TORSDOF 4
ENDMDL
MODEL 2
REMARK VINA RESULT:      -7.6      0.518      1.312
REMARK  Name = 
REMARK  5 active torsions:
REMARK  status: ('A' for Active; 'I' for Inactive)
REMARK    1  A    between atoms: C_1  and  C_2
REMARK    2  A    between atoms: C_6  and  N_7
REMARK    3  A    between atoms: C_10  and  C_11
REMARK    4  A    between atoms: N_13  and  C_14
REMARK    5  A    between atoms: C_25  and  C_26
REMARK                            x       y       z     vdW  Elec       q    Type
REMARK                         _______ _______ _______ _____ _____    ______ ____
ROOT
ATOM      1  N   UNL     1       2.437   7.405  18.803  0.00  0.00    +0.000 N 
ATOM      2  N   UNL     1       2.798   8.155  17.721  0.00  0.00    +0.000 NA
ATOM      3  C   UNL     1       2.049   9.257  17.797  0.00  0.00    +0.000 A 
ATOM      4  C   UNL     1       1.292   9.315  18.974  0.00  0.00    +0.000 A 
ATOM      5  C   UNL     1       1.628   8.136  19.645  0.00  0.00    +0.000 A 
ENDROOT
BRANCH   1  11
ATOM      6  C   UNL     1       1.501   2.557  18.339  0.00  0.00    +0.000 C 
ATOM      7  C   UNL     1       2.454   3.673  18.653  0.00  0.00    +0.000 A 
ATOM      8  C   UNL     1       3.790   3.403  18.963  0.00  0.00    +0.000 A 
ATOM      9  C   UNL     1       4.665   4.443  19.273  0.00  0.00    +0.000 A 
ATOM     10  C   UNL     1       4.220   5.766  19.256  0.00  0.00    +0.000 A 
ATOM     11  C   UNL     1       2.901   6.061  18.891  0.00  0.00    +0.000 A 
ATOM     12  C   UNL     1       2.011   5.006  18.626  0.00  0.00    +0.000 A 
ENDBRANCH   1  11
BRANCH   4  13
ATOM     13  C   UNL     1       0.393  10.325  19.521  0.00  0.00    +0.000 C 
ATOM     14  O   UNL     1      -0.767  10.370  19.122  0.00  0.00    +0.000 OA
ATOM     15  N   UNL     1       0.915  11.212  20.444  0.00  0.00    +0.000 N 
ATOM     16  H   UNL     1       1.921  11.298  20.520  0.00  0.00    +0.000 HD
BRANCH  15  17
ATOM     17  C   UNL     1       0.127  12.142  21.172  0.00  0.00    +0.000 A 
ATOM     18  C   UNL     1      -0.005  13.481  20.799  0.00  0.00    +0.000 A 
ATOM     19  C   UNL     1      -0.774  14.359  21.561  0.00  0.00    +0.000 A 
ATOM     20  C   UNL     1      -1.416  13.880  22.698  0.00  0.00    +0.000 A 
ATOM     21  N   UNL     1      -2.183  14.807  23.480  0.00  0.00    +0.000 N 
ATOM     22  N   UNL     1      -2.802  14.459  24.646  0.00  0.00    +0.000 NA
ATOM     23  C   UNL     1      -3.371  15.605  25.022  0.00  0.00    +0.000 A 
ATOM     24  C   UNL     1      -3.104  16.605  24.087  0.00  0.00    +0.000 A 
ATOM     25  N   UNL     1      -2.345  16.119  23.103  0.00  0.00    +0.000 NA
ATOM     26  N   UNL     1      -1.332  12.569  23.074  0.00  0.00    +0.000 NA
ATOM     27  C   UNL     1      -0.577  11.742  22.303  0.00  0.00    +0.000 A 
ENDBRANCH  15  17
ENDBRANCH   4  13
BRANCH   5  28
ATOM     28  C   UNL     1       1.283   7.756  21.033  0.00  0.00    +0.000 C 
ATOM     29  F   UNL     1       1.835   8.545  21.988  0.00  0.00    +0.000 F 
ATOM     30  F   UNL     1      -0.055   7.840  21.257  0.00  0.00    +0.000 F 
ATOM     31  F   UNL     1       1.673   6.488  21.312  0.00  0.00    +0.000 F 
ENDBRANCH   5  28
TORSDOF 4
ENDMDL
MODEL 3
REMARK VINA RESULT:      -7.6      0.666      1.380
REMARK  Name = 
REMARK  5 active torsions:
REMARK  status: ('A' for Active; 'I' for Inactive)
REMARK    1  A    between atoms: C_1  and  C_2
REMARK    2  A    between atoms: C_6  and  N_7
REMARK    3  A    between atoms: C_10  and  C_11
REMARK    4  A    between atoms: N_13  and  C_14
REMARK    5  A    between atoms: C_25  and  C_26
REMARK                            x       y       z     vdW  Elec       q    Type
REMARK                         _______ _______ _______ _____ _____    ______ ____
ROOT
ATOM      1  N   UNL     1       2.228   7.778  18.514  0.00  0.00    +0.000 N 
ATOM      2  N   UNL     1       2.516   8.637  17.492  0.00  0.00    +0.000 NA
ATOM      3  C   UNL     1       1.797   9.731  17.747  0.00  0.00    +0.000 A 
ATOM      4  C   UNL     1       1.137   9.670  18.980  0.00  0.00    +0.000 A 
ATOM      5  C   UNL     1       1.503   8.422  19.492  0.00  0.00    +0.000 A 
ENDROOT
BRANCH   1  11
ATOM      6  C   UNL     1       5.917   4.489  18.922  0.00  0.00    +0.000 C 
ATOM      7  C   UNL     1       4.478   4.800  18.630  0.00  0.00    +0.000 A 
ATOM      8  C   UNL     1       3.575   3.775  18.333  0.00  0.00    +0.000 A 
ATOM      9  C   UNL     1       2.245   4.071  18.042  0.00  0.00    +0.000 A 
ATOM     10  C   UNL     1       1.797   5.394  18.066  0.00  0.00    +0.000 A 
ATOM     11  C   UNL     1       2.672   6.428  18.419  0.00  0.00    +0.000 A 
ATOM     12  C   UNL     1       4.023   6.128  18.664  0.00  0.00    +0.000 A 
ENDBRANCH   1  11
BRANCH   4  13
ATOM     13  C   UNL     1       0.304  10.624  19.703  0.00  0.00    +0.000 C 
ATOM     14  O   UNL     1      -0.903  10.651  19.480  0.00  0.00    +0.000 OA
ATOM     15  N   UNL     1       0.935  11.483  20.584  0.00  0.00    +0.000 N 
ATOM     16  H   UNL     1       1.938  11.597  20.517  0.00  0.00    +0.000 HD
BRANCH  15  17
ATOM     17  C   UNL     1       0.240  12.353  21.466  0.00  0.00    +0.000 A 
ATOM     18  C   UNL     1      -0.735  11.907  22.360  0.00  0.00    +0.000 A 
ATOM     19  C   UNL     1      -1.404  12.806  23.189  0.00  0.00    +0.000 A 
ATOM     20  C   UNL     1      -1.081  14.157  23.119  0.00  0.00    +0.000 A 
ATOM     21  N   UNL     1      -1.799  15.067  23.966  0.00  0.00    +0.000 N 
ATOM     22  N   UNL     1      -1.606  16.418  23.934  0.00  0.00    +0.000 NA
ATOM     23  C   UNL     1      -2.467  16.852  24.855  0.00  0.00    +0.000 A 
ATOM     24  C   UNL     1      -3.144  15.775  25.428  0.00  0.00    +0.000 A 
ATOM     25  N   UNL     1      -2.737  14.633  24.871  0.00  0.00    +0.000 NA
ATOM     26  N   UNL     1      -0.111  14.622  22.277  0.00  0.00    +0.000 NA
ATOM     27  C   UNL     1       0.523  13.715  21.488  0.00  0.00    +0.000 A 
ENDBRANCH  15  17
ENDBRANCH   4  13
BRANCH   5  28
ATOM     28  C   UNL     1       1.262   7.898  20.855  0.00  0.00    +0.000 C 
ATOM     29  F   UNL     1       1.691   6.627  21.054  0.00  0.00    +0.000 F 
ATOM     30  F   UNL     1       1.917   8.628  21.795  0.00  0.00    +0.000 F 
ATOM     31  F   UNL     1      -0.057   7.908  21.164  0.00  0.00    +0.000 F 
ENDBRANCH   5  28
TORSDOF 4
ENDMDL
MODEL 4
REMARK VINA RESULT:      -7.4      1.535      1.934
REMARK  Name = 
REMARK  5 active torsions:
REMARK  status: ('A' for Active; 'I' for Inactive)
REMARK    1  A    between atoms: C_1  and  C_2
REMARK    2  A    between atoms: C_6  and  N_7
REMARK    3  A    between atoms: C_10  and  C_11
REMARK    4  A    between atoms: N_13  and  C_14
REMARK    5  A    between atoms: C_25  and  C_26
REMARK                            x       y       z     vdW  Elec       q    Type
REMARK                         _______ _______ _______ _____ _____    ______ ____
ROOT
ATOM      1  N   UNL     1       2.189   7.901  18.482  0.00  0.00    +0.000 N 
ATOM      2  N   UNL     1       2.501   8.817  17.519  0.00  0.00    +0.000 NA
ATOM      3  C   UNL     1       1.901   9.944  17.906  0.00  0.00    +0.000 A 
ATOM      4  C   UNL     1       1.305   9.834  19.168  0.00  0.00    +0.000 A 
ATOM      5  C   UNL     1       1.581   8.519  19.553  0.00  0.00    +0.000 A 
ENDROOT
BRANCH   1  11
ATOM      6  C   UNL     1       5.604   4.314  18.218  0.00  0.00    +0.000 C 
ATOM      7  C   UNL     1       4.172   4.756  18.130  0.00  0.00    +0.000 A 
ATOM      8  C   UNL     1       3.154   3.828  17.889  0.00  0.00    +0.000 A 
ATOM      9  C   UNL     1       1.829   4.247  17.789  0.00  0.00    +0.000 A 
ATOM     10  C   UNL     1       1.503   5.595  17.950  0.00  0.00    +0.000 A 
ATOM     11  C   UNL     1       2.501   6.530  18.250  0.00  0.00    +0.000 A 
ATOM     12  C   UNL     1       3.841   6.109  18.302  0.00  0.00    +0.000 A 
ENDBRANCH   1  11
BRANCH   4  13
ATOM     13  C   UNL     1       0.604  10.791  20.017  0.00  0.00    +0.000 C 
ATOM     14  O   UNL     1       1.259  11.598  20.671  0.00  0.00    +0.000 OA
ATOM     15  N   UNL     1      -0.774  10.709  20.069  0.00  0.00    +0.000 N 
ATOM     16  H   UNL     1      -1.224   9.866  19.735  0.00  0.00    +0.000 HD
BRANCH  15  17
ATOM     17  C   UNL     1      -1.593  11.666  20.725  0.00  0.00    +0.000 A 
ATOM     18  C   UNL     1      -1.663  11.780  22.115  0.00  0.00    +0.000 A 
ATOM     19  C   UNL     1      -2.500  12.722  22.710  0.00  0.00    +0.000 A 
ATOM     20  C   UNL     1      -3.263  13.555  21.898  0.00  0.00    +0.000 A 
ATOM     21  N   UNL     1      -4.135  14.501  22.534  0.00  0.00    +0.000 N 
ATOM     22  N   UNL     1      -4.972  15.323  21.835  0.00  0.00    +0.000 NA
ATOM     23  C   UNL     1      -5.581  16.004  22.806  0.00  0.00    +0.000 A 
ATOM     24  C   UNL     1      -5.101  15.601  24.052  0.00  0.00    +0.000 A 
ATOM     25  N   UNL     1      -4.186  14.642  23.899  0.00  0.00    +0.000 NA
ATOM     26  N   UNL     1      -3.196  13.489  20.535  0.00  0.00    +0.000 NA
ATOM     27  C   UNL     1      -2.364  12.562  19.991  0.00  0.00    +0.000 A 
ENDBRANCH  15  17
ENDBRANCH   4  13
BRANCH   5  28
ATOM     28  C   UNL     1       1.365   7.901  20.880  0.00  0.00    +0.000 C 
ATOM     29  F   UNL     1       1.885   6.656  21.013  0.00  0.00    +0.000 F 
ATOM     30  F   UNL     1       1.956   8.622  21.869  0.00  0.00    +0.000 F 
ATOM     31  F   UNL     1       0.046   7.797  21.171  0.00  0.00    +0.000 F 
ENDBRANCH   5  28
TORSDOF 4
ENDMDL
MODEL 5
REMARK VINA RESULT:      -7.3      1.492      2.078
REMARK  Name = 
REMARK  5 active torsions:
REMARK  status: ('A' for Active; 'I' for Inactive)
REMARK    1  A    between atoms: C_1  and  C_2
REMARK    2  A    between atoms: C_6  and  N_7
REMARK    3  A    between atoms: C_10  and  C_11
REMARK    4  A    between atoms: N_13  and  C_14
REMARK    5  A    between atoms: C_25  and  C_26
REMARK                            x       y       z     vdW  Elec       q    Type
REMARK                         _______ _______ _______ _____ _____    ______ ____
ROOT
ATOM      1  N   UNL     1       2.188   7.903  18.512  0.00  0.00    +0.000 N 
ATOM      2  N   UNL     1       2.501   8.808  17.539  0.00  0.00    +0.000 NA
ATOM      3  C   UNL     1       1.894   9.938  17.908  0.00  0.00    +0.000 A 
ATOM      4  C   UNL     1       1.294   9.841  19.169  0.00  0.00    +0.000 A 
ATOM      5  C   UNL     1       1.572   8.532  19.571  0.00  0.00    +0.000 A 
ENDROOT
BRANCH   1  11
ATOM      6  C   UNL     1       5.606   4.313  18.374  0.00  0.00    +0.000 C 
ATOM      7  C   UNL     1       4.178   4.754  18.240  0.00  0.00    +0.000 A 
ATOM      8  C   UNL     1       3.167   3.825  17.975  0.00  0.00    +0.000 A 
ATOM      9  C   UNL     1       1.846   4.245  17.832  0.00  0.00    +0.000 A 
ATOM     10  C   UNL     1       1.516   5.594  17.974  0.00  0.00    +0.000 A 
ATOM     11  C   UNL     1       2.505   6.530  18.298  0.00  0.00    +0.000 A 
ATOM     12  C   UNL     1       3.842   6.109  18.394  0.00  0.00    +0.000 A 
ENDBRANCH   1  11
BRANCH   4  13
ATOM     13  C   UNL     1       0.585  10.806  20.003  0.00  0.00    +0.000 C 
ATOM     14  O   UNL     1       1.234  11.607  20.670  0.00  0.00    +0.000 OA
ATOM     15  N   UNL     1      -0.795  10.739  20.026  0.00  0.00    +0.000 N 
ATOM     16  H   UNL     1      -1.246   9.900  19.683  0.00  0.00    +0.000 HD
BRANCH  15  17
ATOM     17  C   UNL     1      -1.617  11.704  20.665  0.00  0.00    +0.000 A 
ATOM     18  C   UNL     1      -2.448  12.579  19.962  0.00  0.00    +0.000 A 
ATOM     19  C   UNL     1      -3.220  13.523  20.637  0.00  0.00    +0.000 A 
ATOM     20  C   UNL     1      -3.157  13.578  22.025  0.00  0.00    +0.000 A 
ATOM     21  N   UNL     1      -3.943  14.574  22.696  0.00  0.00    +0.000 N 
ATOM     22  N   UNL     1      -3.909  14.757  24.049  0.00  0.00    +0.000 NA
ATOM     23  C   UNL     1      -4.764  15.765  24.223  0.00  0.00    +0.000 A 
ATOM     24  C   UNL     1      -5.301  16.159  22.997  0.00  0.00    +0.000 A 
ATOM     25  N   UNL     1      -4.786  15.417  22.015  0.00  0.00    +0.000 NA
ATOM     26  N   UNL     1      -2.378  12.717  22.745  0.00  0.00    +0.000 NA
ATOM     27  C   UNL     1      -1.644  11.807  22.052  0.00  0.00    +0.000 A 
ENDBRANCH  15  17
ENDBRANCH   4  13
BRANCH   5  28
ATOM     28  C   UNL     1       1.352   7.930  20.905  0.00  0.00    +0.000 C 
ATOM     29  F   UNL     1       1.860   6.681  21.051  0.00  0.00    +0.000 F 
ATOM     30  F   UNL     1       1.951   8.654  21.886  0.00  0.00    +0.000 F 
ATOM     31  F   UNL     1       0.032   7.842  21.199  0.00  0.00    +0.000 F 
ENDBRANCH   5  28
TORSDOF 4
ENDMDL
MODEL 6
REMARK VINA RESULT:      -7.2      7.851      8.997
REMARK  Name = 
REMARK  5 active torsions:
REMARK  status: ('A' for Active; 'I' for Inactive)
REMARK    1  A    between atoms: C_1  and  C_2
REMARK    2  A    between atoms: C_6  and  N_7
REMARK    3  A    between atoms: C_10  and  C_11
REMARK    4  A    between atoms: N_13  and  C_14
REMARK    5  A    between atoms: C_25  and  C_26
REMARK                            x       y       z     vdW  Elec       q    Type
REMARK                         _______ _______ _______ _____ _____    ______ ____
ROOT
ATOM      1  N   UNL     1       5.605   5.021  18.596  0.00  0.00    +0.000 N 
ATOM      2  N   UNL     1       6.604   4.638  19.444  0.00  0.00    +0.000 NA
ATOM      3  C   UNL     1       7.573   5.537  19.267  0.00  0.00    +0.000 A 
ATOM      4  C   UNL     1       7.192   6.582  18.417  0.00  0.00    +0.000 A 
ATOM      5  C   UNL     1       5.878   6.262  18.063  0.00  0.00    +0.000 A 
ENDROOT
BRANCH   1  11
ATOM      6  C   UNL     1       1.492   2.875  20.349  0.00  0.00    +0.000 C 
ATOM      7  C   UNL     1       2.475   3.086  19.235  0.00  0.00    +0.000 A 
ATOM      8  C   UNL     1       2.283   2.477  17.991  0.00  0.00    +0.000 A 
ATOM      9  C   UNL     1       3.210   2.661  16.967  0.00  0.00    +0.000 A 
ATOM     10  C   UNL     1       4.328   3.472  17.167  0.00  0.00    +0.000 A 
ATOM     11  C   UNL     1       4.507   4.138  18.386  0.00  0.00    +0.000 A 
ATOM     12  C   UNL     1       3.595   3.910  19.430  0.00  0.00    +0.000 A 
ENDBRANCH   1  11
BRANCH   4  13
ATOM     13  C   UNL     1       7.869   7.799  17.983  0.00  0.00    +0.000 C 
ATOM     14  O   UNL     1       7.968   8.030  16.781  0.00  0.00    +0.000 OA
ATOM     15  N   UNL     1       8.401   8.618  18.961  0.00  0.00    +0.000 N 
ATOM     16  H   UNL     1       8.528   8.242  19.893  0.00  0.00    +0.000 HD
BRANCH  15  17
ATOM     17  C   UNL     1       8.947   9.902  18.699  0.00  0.00    +0.000 A 
ATOM     18  C   UNL     1      10.213  10.294  19.139  0.00  0.00    +0.000 A 
ATOM     19  C   UNL     1      10.693  11.576  18.873  0.00  0.00    +0.000 A 
ATOM     20  C   UNL     1       9.895  12.459  18.154  0.00  0.00    +0.000 A 
ATOM     21  N   UNL     1      10.401  13.780  17.912  0.00  0.00    +0.000 N 
ATOM     22  N   UNL     1       9.678  14.745  17.272  0.00  0.00    +0.000 NA
ATOM     23  C   UNL     1      10.515  15.783  17.280  0.00  0.00    +0.000 A 
ATOM     24  C   UNL     1      11.714  15.431  17.901  0.00  0.00    +0.000 A 
ATOM     25  N   UNL     1      11.658  14.164  18.314  0.00  0.00    +0.000 NA
ATOM     26  N   UNL     1       8.665  12.097  17.683  0.00  0.00    +0.000 NA
ATOM     27  C   UNL     1       8.233  10.839  17.957  0.00  0.00    +0.000 A 
ENDBRANCH  15  17
ENDBRANCH   4  13
BRANCH   5  28
ATOM     28  C   UNL     1       4.905   7.109  17.339  0.00  0.00    +0.000 C 
ATOM     29  F   UNL     1       3.605   6.819  17.595  0.00  0.00    +0.000 F 
ATOM     30  F   UNL     1       5.032   8.419  17.679  0.00  0.00    +0.000 F 
ATOM     31  F   UNL     1       5.061   7.009  15.997  0.00  0.00    +0.000 F 
ENDBRANCH   5  28
TORSDOF 4
ENDMDL
MODEL 7
REMARK VINA RESULT:      -7.2      0.851      1.903
REMARK  Name = 
REMARK  5 active torsions:
REMARK  status: ('A' for Active; 'I' for Inactive)
REMARK    1  A    between atoms: C_1  and  C_2
REMARK    2  A    between atoms: C_6  and  N_7
REMARK    3  A    between atoms: C_10  and  C_11
REMARK    4  A    between atoms: N_13  and  C_14
REMARK    5  A    between atoms: C_25  and  C_26
REMARK                            x       y       z     vdW  Elec       q    Type
REMARK                         _______ _______ _______ _____ _____    ______ ____
ROOT
ATOM      1  N   UNL     1       2.230   7.771  18.525  0.00  0.00    +0.000 N 
ATOM      2  N   UNL     1       2.529   8.612  17.492  0.00  0.00    +0.000 NA
ATOM      3  C   UNL     1       1.829   9.721  17.735  0.00  0.00    +0.000 A 
ATOM      4  C   UNL     1       1.173   9.686  18.971  0.00  0.00    +0.000 A 
ATOM      5  C   UNL     1       1.519   8.439  19.497  0.00  0.00    +0.000 A 
ENDROOT
BRANCH   1  11
ATOM      6  C   UNL     1       5.859   4.422  18.985  0.00  0.00    +0.000 C 
ATOM      7  C   UNL     1       4.427   4.755  18.681  0.00  0.00    +0.000 A 
ATOM      8  C   UNL     1       3.508   3.743  18.390  0.00  0.00    +0.000 A 
ATOM      9  C   UNL     1       2.184   4.060  18.089  0.00  0.00    +0.000 A 
ATOM     10  C   UNL     1       1.760   5.390  18.098  0.00  0.00    +0.000 A 
ATOM     11  C   UNL     1       2.651   6.412  18.446  0.00  0.00    +0.000 A 
ATOM     12  C   UNL     1       3.996   6.091  18.700  0.00  0.00    +0.000 A 
ENDBRANCH   1  11
BRANCH   4  13
ATOM     13  C   UNL     1       0.358  10.663  19.685  0.00  0.00    +0.000 C 
ATOM     14  O   UNL     1      -0.856  10.672  19.505  0.00  0.00    +0.000 OA
ATOM     15  N   UNL     1       1.012  11.562  20.506  0.00  0.00    +0.000 N 
ATOM     16  H   UNL     1       2.012  11.681  20.398  0.00  0.00    +0.000 HD
BRANCH  15  17
ATOM     17  C   UNL     1       0.342  12.462  21.377  0.00  0.00    +0.000 A 
ATOM     18  C   UNL     1       0.598  13.835  21.394  0.00  0.00    +0.000 A 
ATOM     19  C   UNL     1      -0.073  14.672  22.284  0.00  0.00    +0.000 A 
ATOM     20  C   UNL     1      -1.008  14.121  23.153  0.00  0.00    +0.000 A 
ATOM     21  N   UNL     1      -1.669  14.999  24.076  0.00  0.00    +0.000 N 
ATOM     22  N   UNL     1      -2.558  14.556  25.013  0.00  0.00    +0.000 NA
ATOM     23  C   UNL     1      -2.903  15.684  25.636  0.00  0.00    +0.000 A 
ATOM     24  C   UNL     1      -2.240  16.771  25.066  0.00  0.00    +0.000 A 
ATOM     25  N   UNL     1      -1.447  16.355  24.078  0.00  0.00    +0.000 NA
ATOM     26  N   UNL     1      -1.304  12.787  23.141  0.00  0.00    +0.000 NA
ATOM     27  C   UNL     1      -0.634  12.004  22.256  0.00  0.00    +0.000 A 
ENDBRANCH  15  17
ENDBRANCH   4  13
BRANCH   5  28
ATOM     28  C   UNL     1       1.274   7.935  20.867  0.00  0.00    +0.000 C 
ATOM     29  F   UNL     1       1.859   8.664  21.849  0.00  0.00    +0.000 F 
ATOM     30  F   UNL     1      -0.049   7.953  21.176  0.00  0.00    +0.000 F 
ATOM     31  F   UNL     1       1.720   6.665  21.016  0.00  0.00    +0.000 F 
ENDBRANCH   5  28
TORSDOF 4
ENDMDL
MODEL 8
REMARK VINA RESULT:      -7.2      3.176      9.839
REMARK  Name = 
REMARK  5 active torsions:
REMARK  status: ('A' for Active; 'I' for Inactive)
REMARK    1  A    between atoms: C_1  and  C_2
REMARK    2  A    between atoms: C_6  and  N_7
REMARK    3  A    between atoms: C_10  and  C_11
REMARK    4  A    between atoms: N_13  and  C_14
REMARK    5  A    between atoms: C_25  and  C_26
REMARK                            x       y       z     vdW  Elec       q    Type
REMARK                         _______ _______ _______ _____ _____    ______ ____
ROOT
ATOM      1  N   UNL     1      -2.641  12.463  22.086  0.00  0.00    +0.000 N 
ATOM      2  N   UNL     1      -2.395  11.878  23.295  0.00  0.00    +0.000 NA
ATOM      3  C   UNL     1      -1.349  11.078  23.086  0.00  0.00    +0.000 A 
ATOM      4  C   UNL     1      -0.813  11.213  21.800  0.00  0.00    +0.000 A 
ATOM      5  C   UNL     1      -1.624  12.182  21.201  0.00  0.00    +0.000 A 
ENDROOT
BRANCH   1  11
ATOM      6  C   UNL     1      -7.275  12.720  20.337  0.00  0.00    +0.000 C 
ATOM      7  C   UNL     1      -6.126  13.346  21.073  0.00  0.00    +0.000 A 
ATOM      8  C   UNL     1      -6.252  14.617  21.642  0.00  0.00    +0.000 A 
ATOM      9  C   UNL     1      -5.176  15.200  22.307  0.00  0.00    +0.000 A 
ATOM     10  C   UNL     1      -3.968  14.511  22.431  0.00  0.00    +0.000 A 
ATOM     11  C   UNL     1      -3.841  13.214  21.920  0.00  0.00    +0.000 A 
ATOM     12  C   UNL     1      -4.914  12.650  21.208  0.00  0.00    +0.000 A 
ENDBRANCH   1  11
BRANCH   4  13
ATOM     13  C   UNL     1       0.342  10.612  21.142  0.00  0.00    +0.000 C 
ATOM     14  O   UNL     1       1.469  10.961  21.480  0.00  0.00    +0.000 OA
ATOM     15  N   UNL     1       0.099   9.698  20.135  0.00  0.00    +0.000 N 
ATOM     16  H   UNL     1      -0.826   9.663  19.723  0.00  0.00    +0.000 HD
BRANCH  15  17
ATOM     17  C   UNL     1       1.115   8.922  19.516  0.00  0.00    +0.000 A 
ATOM     18  C   UNL     1       1.650   9.231  18.264  0.00  0.00    +0.000 A 
ATOM     19  C   UNL     1       2.631   8.424  17.691  0.00  0.00    +0.000 A 
ATOM     20  C   UNL     1       3.077   7.306  18.389  0.00  0.00    +0.000 A 
ATOM     21  N   UNL     1       4.071   6.477  17.769  0.00  0.00    +0.000 N 
ATOM     22  N   UNL     1       4.533   5.324  18.337  0.00  0.00    +0.000 NA
ATOM     23  C   UNL     1       5.412   4.892  17.432  0.00  0.00    +0.000 A 
ATOM     24  C   UNL     1       5.476   5.781  16.359  0.00  0.00    +0.000 A 
ATOM     25  N   UNL     1       4.626   6.791  16.552  0.00  0.00    +0.000 NA
ATOM     26  N   UNL     1       2.596   6.993  19.629  0.00  0.00    +0.000 NA
ATOM     27  C   UNL     1       1.644   7.806  20.157  0.00  0.00    +0.000 A 
ENDBRANCH  15  17
ENDBRANCH   4  13
BRANCH   5  28
ATOM     28  C   UNL     1      -1.408  12.868  19.908  0.00  0.00    +0.000 C 
ATOM     29  F   UNL     1      -1.825  14.158  19.878  0.00  0.00    +0.000 F 
ATOM     30  F   UNL     1      -0.089  12.932  19.590  0.00  0.00    +0.000 F 
ATOM     31  F   UNL     1      -2.051  12.235  18.897  0.00  0.00    +0.000 F 
ENDBRANCH   5  28
TORSDOF 4
ENDMDL
MODEL 9
REMARK VINA RESULT:      -7.2      2.963     10.011
REMARK  Name = 
REMARK  5 active torsions:
REMARK  status: ('A' for Active; 'I' for Inactive)
REMARK    1  A    between atoms: C_1  and  C_2
REMARK    2  A    between atoms: C_6  and  N_7
REMARK    3  A    between atoms: C_10  and  C_11
REMARK    4  A    between atoms: N_13  and  C_14
REMARK    5  A    between atoms: C_25  and  C_26
REMARK                            x       y       z     vdW  Elec       q    Type
REMARK                         _______ _______ _______ _____ _____    ______ ____
ROOT
ATOM      1  N   UNL     1      -2.705  12.435  22.213  0.00  0.00    +0.000 N 
ATOM      2  N   UNL     1      -2.436  11.835  23.410  0.00  0.00    +0.000 NA
ATOM      3  C   UNL     1      -1.386  11.046  23.174  0.00  0.00    +0.000 A 
ATOM      4  C   UNL     1      -0.871  11.205  21.882  0.00  0.00    +0.000 A 
ATOM      5  C   UNL     1      -1.699  12.175  21.310  0.00  0.00    +0.000 A 
ENDROOT
BRANCH   1  11
ATOM      6  C   UNL     1      -5.351  16.474  23.344  0.00  0.00    +0.000 C 
ATOM      7  C   UNL     1      -5.218  15.168  22.616  0.00  0.00    +0.000 A 
ATOM      8  C   UNL     1      -6.234  14.720  21.766  0.00  0.00    +0.000 A 
ATOM      9  C   UNL     1      -6.113  13.497  21.109  0.00  0.00    +0.000 A 
ATOM     10  C   UNL     1      -4.966  12.719  21.276  0.00  0.00    +0.000 A 
ATOM     11  C   UNL     1      -3.913  13.178  22.075  0.00  0.00    +0.000 A 
ATOM     12  C   UNL     1      -4.061  14.389  22.774  0.00  0.00    +0.000 A 
ENDBRANCH   1  11
BRANCH   4  13
ATOM     13  C   UNL     1       0.279  10.622  21.199  0.00  0.00    +0.000 C 
ATOM     14  O   UNL     1       1.407  11.004  21.498  0.00  0.00    +0.000 OA
ATOM     15  N   UNL     1       0.029   9.688  20.211  0.00  0.00    +0.000 N 
ATOM     16  H   UNL     1      -0.905   9.625  19.828  0.00  0.00    +0.000 HD
BRANCH  15  17
ATOM     17  C   UNL     1       1.046   8.929  19.573  0.00  0.00    +0.000 A 
ATOM     18  C   UNL     1       1.539   9.235  18.304  0.00  0.00    +0.000 A 
ATOM     19  C   UNL     1       2.523   8.444  17.713  0.00  0.00    +0.000 A 
ATOM     20  C   UNL     1       3.014   7.346  18.411  0.00  0.00    +0.000 A 
ATOM     21  N   UNL     1       4.010   6.533  17.773  0.00  0.00    +0.000 N 
ATOM     22  N   UNL     1       4.515   5.398  18.341  0.00  0.00    +0.000 NA
ATOM     23  C   UNL     1       5.378   4.975  17.416  0.00  0.00    +0.000 A 
ATOM     24  C   UNL     1       5.391   5.853  16.332  0.00  0.00    +0.000 A 
ATOM     25  N   UNL     1       4.523   6.845  16.538  0.00  0.00    +0.000 NA
ATOM     26  N   UNL     1       2.575   7.036  19.667  0.00  0.00    +0.000 NA
ATOM     27  C   UNL     1       1.619   7.834  20.212  0.00  0.00    +0.000 A 
ENDBRANCH  15  17
ENDBRANCH   4  13
BRANCH   5  28
ATOM     28  C   UNL     1      -1.508  12.882  20.023  0.00  0.00    +0.000 C 
ATOM     29  F   UNL     1      -1.932  14.169  20.020  0.00  0.00    +0.000 F 
ATOM     30  F   UNL     1      -0.194  12.957  19.684  0.00  0.00    +0.000 F 
ATOM     31  F   UNL     1      -2.164  12.260  19.014  0.00  0.00    +0.000 F 
ENDBRANCH   5  28
TORSDOF 4
ENDMDL
