MODEL 1
REMARK VINA RESULT:      -7.3      0.000      0.000
REMARK  Name = 
REMARK  2 active torsions:
REMARK  status: ('A' for Active; 'I' for Inactive)
REMARK    1  A    between atoms: C_1  and  N_2
REMARK    2  A    between atoms: C_4  and  C_5
REMARK                            x       y       z     vdW  Elec       q    Type
REMARK                         _______ _______ _______ _____ _____    ______ ____
ROOT
ATOM      1  C   UNL     1       1.268   8.526  21.060  0.00  0.00    +0.000 C 
ATOM      2  O   UNL     1       1.821   8.680  22.150  0.00  0.00    +0.000 OA
ATOM      3  N   UNL     1       0.099   9.223  20.721  0.00  0.00    +0.000 N 
ATOM      4  C   UNL     1      -0.466  10.120  21.728  0.00  0.00    +0.000 C 
ATOM      5  C   UNL     1      -0.171  11.605  21.388  0.00  0.00    +0.000 C 
ATOM      6  C   UNL     1       0.719  11.726  20.135  0.00  0.00    +0.000 C 
ATOM      7  C   UNL     1      -0.243  11.111  19.099  0.00  0.00    +0.000 C 
ATOM      8  C   UNL     1      -0.251   9.573  19.322  0.00  0.00    +0.000 C 
ATOM      9  N   UNL     1      -1.509  11.735  19.494  0.00  0.00    +0.000 N 
ATOM     10  C   UNL     1      -2.686  11.625  18.822  0.00  0.00    +0.000 A 
ATOM     11  N   UNL     1      -2.735  10.885  17.703  0.00  0.00    +0.000 NA
ATOM     12  C   UNL     1      -3.928  10.782  17.085  0.00  0.00    +0.000 A 
ATOM     13  C   UNL     1      -5.070  11.403  17.524  0.00  0.00    +0.000 A 
ATOM     14  C   UNL     1      -4.925  12.144  18.663  0.00  0.00    +0.000 A 
ATOM     15  N   UNL     1      -3.758  12.259  19.325  0.00  0.00    +0.000 NA
ATOM     16  C   UNL     1      -1.459  12.252  20.853  0.00  0.00    +0.000 C 
ENDROOT
BRANCH   1  20
ATOM     17  C   UNL     1       3.824   7.048  17.075  0.00  0.00    +0.000 C 
ATOM     18  N   UNL     1       3.004   6.985  18.264  0.00  0.00    +0.000 N 
ATOM     19  C   UNL     1       2.583   8.072  18.976  0.00  0.00    +0.000 A 
ATOM     20  C   UNL     1       1.852   7.629  20.067  0.00  0.00    +0.000 A 
ATOM     21  C   UNL     1       1.853   6.197  20.007  0.00  0.00    +0.000 A 
ATOM     22  C   UNL     1       1.317   5.179  20.825  0.00  0.00    +0.000 A 
ATOM     23  C   UNL     1       1.470   3.838  20.464  0.00  0.00    +0.000 A 
ATOM     24  C   UNL     1       2.178   3.495  19.318  0.00  0.00    +0.000 A 
ATOM     25  C   UNL     1       2.742   4.478  18.500  0.00  0.00    +0.000 A 
ATOM     26  C   UNL     1       2.563   5.823  18.861  0.00  0.00    +0.000 A 
ENDBRANCH   1  20
TORSDOF 1
ENDMDL
MODEL 2
REMARK VINA RESULT:      -6.9      3.834      5.412
REMARK  Name = 
REMARK  2 active torsions:
REMARK  status: ('A' for Active; 'I' for Inactive)
REMARK    1  A    between atoms: C_1  and  N_2
REMARK    2  A    between atoms: C_4  and  C_5
REMARK                            x       y       z     vdW  Elec       q    Type
REMARK                         _______ _______ _______ _____ _____    ______ ____
ROOT
ATOM      1  C   UNL     1      -0.587  13.111  22.182  0.00  0.00    +0.000 C 
ATOM      2  O   UNL     1      -0.227  13.455  23.308  0.00  0.00    +0.000 OA
ATOM      3  N   UNL     1      -1.874  12.608  21.940  0.00  0.00    +0.000 N 
ATOM      4  C   UNL     1      -2.770  12.471  23.088  0.00  0.00    +0.000 C 
ATOM      5  C   UNL     1      -3.839  13.596  23.104  0.00  0.00    +0.000 C 
ATOM      6  C   UNL     1      -3.606  14.605  21.963  0.00  0.00    +0.000 C 
ATOM      7  C   UNL     1      -3.826  13.662  20.762  0.00  0.00    +0.000 C 
ATOM      8  C   UNL     1      -2.566  12.763  20.636  0.00  0.00    +0.000 C 
ATOM      9  N   UNL     1      -5.001  12.912  21.213  0.00  0.00    +0.000 N 
ATOM     10  C   UNL     1      -5.696  12.012  20.468  0.00  0.00    +0.000 A 
ATOM     11  N   UNL     1      -5.299  11.756  19.211  0.00  0.00    +0.000 NA
ATOM     12  C   UNL     1      -6.000  10.838  18.518  0.00  0.00    +0.000 A 
ATOM     13  C   UNL     1      -7.094  10.178  19.018  0.00  0.00    +0.000 A 
ATOM     14  C   UNL     1      -7.434  10.509  20.299  0.00  0.00    +0.000 A 
ATOM     15  N   UNL     1      -6.751  11.406  21.036  0.00  0.00    +0.000 NA
ATOM     16  C   UNL     1      -5.184  13.003  22.653  0.00  0.00    +0.000 C 
ENDROOT
BRANCH   1  20
ATOM     17  C   UNL     1       2.525  15.273  18.982  0.00  0.00    +0.000 C 
ATOM     18  N   UNL     1       1.718  14.254  19.615  0.00  0.00    +0.000 N 
ATOM     19  C   UNL     1       0.910  14.464  20.697  0.00  0.00    +0.000 A 
ATOM     20  C   UNL     1       0.321  13.260  21.049  0.00  0.00    +0.000 A 
ATOM     21  C   UNL     1       0.822  12.277  20.134  0.00  0.00    +0.000 A 
ATOM     22  C   UNL     1       0.631  10.886  19.985  0.00  0.00    +0.000 A 
ATOM     23  C   UNL     1       1.258  10.201  18.941  0.00  0.00    +0.000 A 
ATOM     24  C   UNL     1       2.099  10.876  18.064  0.00  0.00    +0.000 A 
ATOM     25  C   UNL     1       2.329  12.247  18.200  0.00  0.00    +0.000 A 
ATOM     26  C   UNL     1       1.677  12.929  19.239  0.00  0.00    +0.000 A 
ENDBRANCH   1  20
TORSDOF 1
ENDMDL
MODEL 3
REMARK VINA RESULT:      -6.7      1.175      2.302
REMARK  Name = 
REMARK  2 active torsions:
REMARK  status: ('A' for Active; 'I' for Inactive)
REMARK    1  A    between atoms: C_1  and  N_2
REMARK    2  A    between atoms: C_4  and  C_5
REMARK                            x       y       z     vdW  Elec       q    Type
REMARK                         _______ _______ _______ _____ _____    ______ ____
ROOT
ATOM      1  C   UNL     1       1.297   8.252  21.018  0.00  0.00    +0.000 C 
ATOM      2  O   UNL     1       1.766   8.651  22.084  0.00  0.00    +0.000 OA
ATOM      3  N   UNL     1       0.269   8.941  20.360  0.00  0.00    +0.000 N 
ATOM      4  C   UNL     1      -0.257  10.143  21.006  0.00  0.00    +0.000 C 
ATOM      5  C   UNL     1       0.266  11.429  20.313  0.00  0.00    +0.000 C 
ATOM      6  C   UNL     1       1.272  11.092  19.195  0.00  0.00    +0.000 C 
ATOM      7  C   UNL     1       0.331  10.311  18.254  0.00  0.00    +0.000 C 
ATOM      8  C   UNL     1       0.095   8.911  18.886  0.00  0.00    +0.000 C 
ATOM      9  N   UNL     1      -0.868  11.152  18.305  0.00  0.00    +0.000 N 
ATOM     10  C   UNL     1      -1.984  10.979  17.548  0.00  0.00    +0.000 A 
ATOM     11  N   UNL     1      -2.033   9.959  16.676  0.00  0.00    +0.000 NA
ATOM     12  C   UNL     1      -3.169   9.810  15.967  0.00  0.00    +0.000 A 
ATOM     13  C   UNL     1      -4.251  10.646  16.075  0.00  0.00    +0.000 A 
ATOM     14  C   UNL     1      -4.109  11.663  16.977  0.00  0.00    +0.000 A 
ATOM     15  N   UNL     1      -3.000  11.839  17.722  0.00  0.00    +0.000 NA
ATOM     16  C   UNL     1      -0.869  12.028  19.466  0.00  0.00    +0.000 C 
ENDROOT
BRANCH   1  20
ATOM     17  C   UNL     1       2.155   3.442  20.163  0.00  0.00    +0.000 C 
ATOM     18  N   UNL     1       2.217   4.879  20.023  0.00  0.00    +0.000 N 
ATOM     19  C   UNL     1       1.585   5.769  20.846  0.00  0.00    +0.000 A 
ATOM     20  C   UNL     1       1.840   7.052  20.388  0.00  0.00    +0.000 A 
ATOM     21  C   UNL     1       2.655   6.915  19.217  0.00  0.00    +0.000 A 
ATOM     22  C   UNL     1       3.215   7.828  18.297  0.00  0.00    +0.000 A 
ATOM     23  C   UNL     1       4.012   7.364  17.247  0.00  0.00    +0.000 A 
ATOM     24  C   UNL     1       4.232   6.001  17.082  0.00  0.00    +0.000 A 
ATOM     25  C   UNL     1       3.672   5.070  17.960  0.00  0.00    +0.000 A 
ATOM     26  C   UNL     1       2.891   5.549  19.024  0.00  0.00    +0.000 A 
ENDBRANCH   1  20
TORSDOF 1
ENDMDL
MODEL 4
REMARK VINA RESULT:      -6.7      3.681      8.561
REMARK  Name = 
REMARK  2 active torsions:
REMARK  status: ('A' for Active; 'I' for Inactive)
REMARK    1  A    between atoms: C_1  and  N_2
REMARK    2  A    between atoms: C_4  and  C_5
REMARK                            x       y       z     vdW  Elec       q    Type
REMARK                         _______ _______ _______ _____ _____    ______ ____
ROOT
ATOM      1  C   UNL     1      -4.715  11.352  17.266  0.00  0.00    +0.000 C 
ATOM      2  O   UNL     1      -4.798  11.007  16.087  0.00  0.00    +0.000 OA
ATOM      3  N   UNL     1      -3.723  10.843  18.117  0.00  0.00    +0.000 N 
ATOM      4  C   UNL     1      -2.804   9.851  17.560  0.00  0.00    +0.000 C 
ATOM      5  C   UNL     1      -1.415  10.477  17.262  0.00  0.00    +0.000 C 
ATOM      6  C   UNL     1      -1.412  11.992  17.542  0.00  0.00    +0.000 C 
ATOM      7  C   UNL     1      -1.678  11.954  19.061  0.00  0.00    +0.000 C 
ATOM      8  C   UNL     1      -3.178  11.608  19.266  0.00  0.00    +0.000 C 
ATOM      9  N   UNL     1      -0.795  10.857  19.467  0.00  0.00    +0.000 N 
ATOM     10  C   UNL     1      -0.551  10.475  20.749  0.00  0.00    +0.000 A 
ATOM     11  N   UNL     1      -1.157  11.128  21.755  0.00  0.00    +0.000 NA
ATOM     12  C   UNL     1      -0.906  10.698  23.006  0.00  0.00    +0.000 A 
ATOM     13  C   UNL     1      -0.062   9.658  23.301  0.00  0.00    +0.000 A 
ATOM     14  C   UNL     1       0.520   9.060  22.219  0.00  0.00    +0.000 A 
ATOM     15  N   UNL     1       0.285   9.443  20.949  0.00  0.00    +0.000 NA
ATOM     16  C   UNL     1      -0.425  10.013  18.343  0.00  0.00    +0.000 C 
ENDROOT
BRANCH   1  20
ATOM     17  C   UNL     1      -7.587  15.391  17.453  0.00  0.00    +0.000 C 
ATOM     18  N   UNL     1      -6.925  14.175  17.866  0.00  0.00    +0.000 N 
ATOM     19  C   UNL     1      -6.043  13.470  17.095  0.00  0.00    +0.000 A 
ATOM     20  C   UNL     1      -5.640  12.347  17.800  0.00  0.00    +0.000 A 
ATOM     21  C   UNL     1      -6.335  12.379  19.054  0.00  0.00    +0.000 A 
ATOM     22  C   UNL     1      -6.377  11.524  20.176  0.00  0.00    +0.000 A 
ATOM     23  C   UNL     1      -7.154  11.864  21.286  0.00  0.00    +0.000 A 
ATOM     24  C   UNL     1      -7.916  13.026  21.281  0.00  0.00    +0.000 A 
ATOM     25  C   UNL     1      -7.917  13.881  20.176  0.00  0.00    +0.000 A 
ATOM     26  C   UNL     1      -7.115  13.541  19.075  0.00  0.00    +0.000 A 
ENDBRANCH   1  20
TORSDOF 1
ENDMDL
MODEL 5
REMARK VINA RESULT:      -6.7      0.882      2.128
REMARK  Name = 
REMARK  2 active torsions:
REMARK  status: ('A' for Active; 'I' for Inactive)
REMARK    1  A    between atoms: C_1  and  N_2
REMARK    2  A    between atoms: C_4  and  C_5
REMARK                            x       y       z     vdW  Elec       q    Type
REMARK                         _______ _______ _______ _____ _____    ______ ____
ROOT
ATOM      1  C   UNL     1       1.091   8.968  21.599  0.00  0.00    +0.000 C 
ATOM      2  O   UNL     1       1.769   9.376  22.542  0.00  0.00    +0.000 OA
ATOM      3  N   UNL     1      -0.064   9.640  21.174  0.00  0.00    +0.000 N 
ATOM      4  C   UNL     1      -0.459  10.835  21.919  0.00  0.00    +0.000 C 
ATOM      5  C   UNL     1      -0.114  12.127  21.133  0.00  0.00    +0.000 C 
ATOM      6  C   UNL     1       0.638  11.805  19.827  0.00  0.00    +0.000 C 
ATOM      7  C   UNL     1      -0.469  11.008  19.106  0.00  0.00    +0.000 C 
ATOM      8  C   UNL     1      -0.545   9.605  19.770  0.00  0.00    +0.000 C 
ATOM      9  N   UNL     1      -1.643  11.830  19.411  0.00  0.00    +0.000 N 
ATOM     10  C   UNL     1      -2.891  11.638  18.907  0.00  0.00    +0.000 A 
ATOM     11  N   UNL     1      -3.109  10.617  18.063  0.00  0.00    +0.000 NA
ATOM     12  C   UNL     1      -4.366  10.449  17.610  0.00  0.00    +0.000 A 
ATOM     13  C   UNL     1      -5.413  11.269  17.946  0.00  0.00    +0.000 A 
ATOM     14  C   UNL     1      -5.099  12.289  18.799  0.00  0.00    +0.000 A 
ATOM     15  N   UNL     1      -3.861  12.484  19.293  0.00  0.00    +0.000 NA
ATOM     16  C   UNL     1      -1.412  12.708  20.547  0.00  0.00    +0.000 C 
ENDROOT
BRANCH   1  20
ATOM     17  C   UNL     1       1.667   4.168  20.490  0.00  0.00    +0.000 C 
ATOM     18  N   UNL     1       1.759   5.607  20.387  0.00  0.00    +0.000 N 
ATOM     19  C   UNL     1       1.269   6.485  21.313  0.00  0.00    +0.000 A 
ATOM     20  C   UNL     1       1.506   7.775  20.866  0.00  0.00    +0.000 A 
ATOM     21  C   UNL     1       2.158   7.655  19.595  0.00  0.00    +0.000 A 
ATOM     22  C   UNL     1       2.625   8.583  18.638  0.00  0.00    +0.000 A 
ATOM     23  C   UNL     1       3.263   8.133  17.480  0.00  0.00    +0.000 A 
ATOM     24  C   UNL     1       3.413   6.771  17.245  0.00  0.00    +0.000 A 
ATOM     25  C   UNL     1       2.940   5.827  18.159  0.00  0.00    +0.000 A 
ATOM     26  C   UNL     1       2.320   6.290  19.330  0.00  0.00    +0.000 A 
ENDBRANCH   1  20
TORSDOF 1
ENDMDL
MODEL 6
REMARK VINA RESULT:      -6.6      4.354      7.063
REMARK  Name = 
REMARK  2 active torsions:
REMARK  status: ('A' for Active; 'I' for Inactive)
REMARK    1  A    between atoms: C_1  and  N_2
REMARK    2  A    between atoms: C_4  and  C_5
REMARK                            x       y       z     vdW  Elec       q    Type
REMARK                         _______ _______ _______ _____ _____    ______ ____
ROOT
ATOM      1  C   UNL     1      -1.066  11.088  19.404  0.00  0.00    +0.000 C 
ATOM      2  O   UNL     1      -0.745  10.038  19.959  0.00  0.00    +0.000 OA
ATOM      3  N   UNL     1      -0.456  12.310  19.725  0.00  0.00    +0.000 N 
ATOM      4  C   UNL     1       0.560  12.297  20.777  0.00  0.00    +0.000 C 
ATOM      5  C   UNL     1       1.989  12.400  20.180  0.00  0.00    +0.000 C 
ATOM      6  C   UNL     1       1.954  12.388  18.639  0.00  0.00    +0.000 C 
ATOM      7  C   UNL     1       1.173  13.698  18.408  0.00  0.00    +0.000 C 
ATOM      8  C   UNL     1      -0.317  13.421  18.751  0.00  0.00    +0.000 C 
ATOM      9  N   UNL     1       1.813  14.577  19.391  0.00  0.00    +0.000 N 
ATOM     10  C   UNL     1       1.578  15.909  19.528  0.00  0.00    +0.000 A 
ATOM     11  N   UNL     1       0.686  16.504  18.721  0.00  0.00    +0.000 NA
ATOM     12  C   UNL     1       0.465  17.819  18.910  0.00  0.00    +0.000 A 
ATOM     13  C   UNL     1       1.111  18.572  19.858  0.00  0.00    +0.000 A 
ATOM     14  C   UNL     1       2.011  17.888  20.626  0.00  0.00    +0.000 A 
ATOM     15  N   UNL     1       2.250  16.570  20.485  0.00  0.00    +0.000 NA
ATOM     16  C   UNL     1       2.520  13.823  20.415  0.00  0.00    +0.000 C 
ENDROOT
BRANCH   1  20
ATOM     17  C   UNL     1      -3.208  10.146  15.031  0.00  0.00    +0.000 C 
ATOM     18  N   UNL     1      -3.025  10.647  16.374  0.00  0.00    +0.000 N 
ATOM     19  C   UNL     1      -1.879  10.509  17.105  0.00  0.00    +0.000 A 
ATOM     20  C   UNL     1      -2.080  11.078  18.353  0.00  0.00    +0.000 A 
ATOM     21  C   UNL     1      -3.428  11.565  18.368  0.00  0.00    +0.000 A 
ATOM     22  C   UNL     1      -4.230  12.207  19.337  0.00  0.00    +0.000 A 
ATOM     23  C   UNL     1      -5.535  12.594  19.021  0.00  0.00    +0.000 A 
ATOM     24  C   UNL     1      -6.064  12.320  17.765  0.00  0.00    +0.000 A 
ATOM     25  C   UNL     1      -5.305  11.664  16.793  0.00  0.00    +0.000 A 
ATOM     26  C   UNL     1      -3.988  11.299  17.114  0.00  0.00    +0.000 A 
ENDBRANCH   1  20
TORSDOF 1
ENDMDL
MODEL 7
REMARK VINA RESULT:      -6.6      4.941      8.175
REMARK  Name = 
REMARK  2 active torsions:
REMARK  status: ('A' for Active; 'I' for Inactive)
REMARK    1  A    between atoms: C_1  and  N_2
REMARK    2  A    between atoms: C_4  and  C_5
REMARK                            x       y       z     vdW  Elec       q    Type
REMARK                         _______ _______ _______ _____ _____    ______ ____
ROOT
ATOM      1  C   UNL     1       0.924  13.089  19.302  0.00  0.00    +0.000 C 
ATOM      2  O   UNL     1       0.274  13.194  18.262  0.00  0.00    +0.000 OA
ATOM      3  N   UNL     1       2.297  13.373  19.346  0.00  0.00    +0.000 N 
ATOM      4  C   UNL     1       2.942  13.769  18.094  0.00  0.00    +0.000 C 
ATOM      5  C   UNL     1       3.213  15.297  18.060  0.00  0.00    +0.000 C 
ATOM      6  C   UNL     1       2.643  15.994  19.311  0.00  0.00    +0.000 C 
ATOM      7  C   UNL     1       3.514  15.310  20.384  0.00  0.00    +0.000 C 
ATOM      8  C   UNL     1       2.979  13.864  20.569  0.00  0.00    +0.000 C 
ATOM      9  N   UNL     1       4.825  15.337  19.731  0.00  0.00    +0.000 N 
ATOM     10  C   UNL     1       5.999  14.957  20.303  0.00  0.00    +0.000 A 
ATOM     11  N   UNL     1       5.996  14.506  21.568  0.00  0.00    +0.000 NA
ATOM     12  C   UNL     1       7.176  14.116  22.086  0.00  0.00    +0.000 A 
ATOM     13  C   UNL     1       8.365  14.174  21.403  0.00  0.00    +0.000 A 
ATOM     14  C   UNL     1       8.276  14.657  20.127  0.00  0.00    +0.000 A 
ATOM     15  N   UNL     1       7.116  15.040  19.562  0.00  0.00    +0.000 NA
ATOM     16  C   UNL     1       4.714  15.535  18.294  0.00  0.00    +0.000 C 
ENDROOT
BRANCH   1  20
ATOM     17  C   UNL     1      -1.743  13.484  23.464  0.00  0.00    +0.000 C 
ATOM     18  N   UNL     1      -0.940  12.897  22.416  0.00  0.00    +0.000 N 
ATOM     19  C   UNL     1      -0.418  13.587  21.358  0.00  0.00    +0.000 A 
ATOM     20  C   UNL     1       0.260  12.696  20.541  0.00  0.00    +0.000 A 
ATOM     21  C   UNL     1       0.116  11.401  21.139  0.00  0.00    +0.000 A 
ATOM     22  C   UNL     1       0.544  10.103  20.786  0.00  0.00    +0.000 A 
ATOM     23  C   UNL     1       0.260   9.020  21.623  0.00  0.00    +0.000 A 
ATOM     24  C   UNL     1      -0.472   9.208  22.789  0.00  0.00    +0.000 A 
ATOM     25  C   UNL     1      -0.931  10.476  23.154  0.00  0.00    +0.000 A 
ATOM     26  C   UNL     1      -0.621  11.559  22.318  0.00  0.00    +0.000 A 
ENDBRANCH   1  20
TORSDOF 1
ENDMDL
MODEL 8
REMARK VINA RESULT:      -6.5      4.667      6.512
REMARK  Name = 
REMARK  2 active torsions:
REMARK  status: ('A' for Active; 'I' for Inactive)
REMARK    1  A    between atoms: C_1  and  N_2
REMARK    2  A    between atoms: C_4  and  C_5
REMARK                            x       y       z     vdW  Elec       q    Type
REMARK                         _______ _______ _______ _____ _____    ______ ____
ROOT
ATOM      1  C   UNL     1      -0.483  13.104  22.050  0.00  0.00    +0.000 C 
ATOM      2  O   UNL     1      -0.101  13.366  23.190  0.00  0.00    +0.000 OA
ATOM      3  N   UNL     1      -1.767  12.597  21.799  0.00  0.00    +0.000 N 
ATOM      4  C   UNL     1      -2.632  12.357  22.953  0.00  0.00    +0.000 C 
ATOM      5  C   UNL     1      -3.718  13.457  23.081  0.00  0.00    +0.000 C 
ATOM      6  C   UNL     1      -3.530  14.556  22.016  0.00  0.00    +0.000 C 
ATOM      7  C   UNL     1      -3.764  13.704  20.751  0.00  0.00    +0.000 C 
ATOM      8  C   UNL     1      -2.493  12.840  20.527  0.00  0.00    +0.000 C 
ATOM      9  N   UNL     1      -4.915  12.900  21.170  0.00  0.00    +0.000 N 
ATOM     10  C   UNL     1      -5.613  12.048  20.373  0.00  0.00    +0.000 A 
ATOM     11  N   UNL     1      -5.243  11.897  19.091  0.00  0.00    +0.000 NA
ATOM     12  C   UNL     1      -5.946  11.023  18.346  0.00  0.00    +0.000 A 
ATOM     13  C   UNL     1      -7.017  10.306  18.818  0.00  0.00    +0.000 A 
ATOM     14  C   UNL     1      -7.331  10.532  20.129  0.00  0.00    +0.000 A 
ATOM     15  N   UNL     1      -6.644  11.381  20.917  0.00  0.00    +0.000 NA
ATOM     16  C   UNL     1      -5.064  12.877  22.617  0.00  0.00    +0.000 C 
ENDROOT
BRANCH   1  20
ATOM     17  C   UNL     1       2.450  12.182  18.158  0.00  0.00    +0.000 C 
ATOM     18  N   UNL     1       1.718  12.918  19.163  0.00  0.00    +0.000 N 
ATOM     19  C   UNL     1       0.982  12.347  20.163  0.00  0.00    +0.000 A 
ATOM     20  C   UNL     1       0.395  13.356  20.911  0.00  0.00    +0.000 A 
ATOM     21  C   UNL     1       0.792  14.595  20.310  0.00  0.00    +0.000 A 
ATOM     22  C   UNL     1       0.511  15.952  20.580  0.00  0.00    +0.000 A 
ATOM     23  C   UNL     1       1.097  16.955  19.803  0.00  0.00    +0.000 A 
ATOM     24  C   UNL     1       1.931  16.625  18.742  0.00  0.00    +0.000 A 
ATOM     25  C   UNL     1       2.208  15.292  18.433  0.00  0.00    +0.000 A 
ATOM     26  C   UNL     1       1.633  14.292  19.233  0.00  0.00    +0.000 A 
ENDBRANCH   1  20
TORSDOF 1
ENDMDL
MODEL 9
REMARK VINA RESULT:      -6.5      4.780      7.295
REMARK  Name = 
REMARK  2 active torsions:
REMARK  status: ('A' for Active; 'I' for Inactive)
REMARK    1  A    between atoms: C_1  and  N_2
REMARK    2  A    between atoms: C_4  and  C_5
REMARK                            x       y       z     vdW  Elec       q    Type
REMARK                         _______ _______ _______ _____ _____    ______ ____
ROOT
ATOM      1  C   UNL     1       0.269  13.227  19.177  0.00  0.00    +0.000 C 
ATOM      2  O   UNL     1      -0.870  13.649  18.974  0.00  0.00    +0.000 OA
ATOM      3  N   UNL     1       1.393  14.059  19.078  0.00  0.00    +0.000 N 
ATOM      4  C   UNL     1       1.168  15.450  18.686  0.00  0.00    +0.000 C 
ATOM      5  C   UNL     1       1.287  16.403  19.904  0.00  0.00    +0.000 C 
ATOM      6  C   UNL     1       1.513  15.617  21.210  0.00  0.00    +0.000 C 
ATOM      7  C   UNL     1       2.881  14.988  20.877  0.00  0.00    +0.000 C 
ATOM      8  C   UNL     1       2.632  13.836  19.865  0.00  0.00    +0.000 C 
ATOM      9  N   UNL     1       3.565  16.128  20.261  0.00  0.00    +0.000 N 
ATOM     10  C   UNL     1       4.871  16.153  19.883  0.00  0.00    +0.000 A 
ATOM     11  N   UNL     1       5.628  15.059  20.065  0.00  0.00    +0.000 NA
ATOM     12  C   UNL     1       6.908  15.120  19.651  0.00  0.00    +0.000 A 
ATOM     13  C   UNL     1       7.473  16.233  19.082  0.00  0.00    +0.000 A 
ATOM     14  C   UNL     1       6.634  17.303  18.947  0.00  0.00    +0.000 A 
ATOM     15  N   UNL     1       5.343  17.282  19.328  0.00  0.00    +0.000 NA
ATOM     16  C   UNL     1       2.629  17.149  19.817  0.00  0.00    +0.000 C 
ENDROOT
BRANCH   1  20
ATOM     17  C   UNL     1       1.814   8.519  18.960  0.00  0.00    +0.000 C 
ATOM     18  N   UNL     1       1.172   9.717  19.452  0.00  0.00    +0.000 N 
ATOM     19  C   UNL     1       1.135  10.909  18.784  0.00  0.00    +0.000 A 
ATOM     20  C   UNL     1       0.471  11.836  19.572  0.00  0.00    +0.000 A 
ATOM     21  C   UNL     1       0.107  11.159  20.782  0.00  0.00    +0.000 A 
ATOM     22  C   UNL     1      -0.550  11.552  21.968  0.00  0.00    +0.000 A 
ATOM     23  C   UNL     1      -0.786  10.618  22.980  0.00  0.00    +0.000 A 
ATOM     24  C   UNL     1      -0.347   9.307  22.842  0.00  0.00    +0.000 A 
ATOM     25  C   UNL     1       0.328   8.892  21.691  0.00  0.00    +0.000 A 
ATOM     26  C   UNL     1       0.541   9.833  20.672  0.00  0.00    +0.000 A 
ENDBRANCH   1  20
TORSDOF 1
ENDMDL
