MODEL 1
REMARK VINA RESULT:      -8.7      0.000      0.000
REMARK  Name = 
REMARK  5 active torsions:
REMARK  status: ('A' for Active; 'I' for Inactive)
REMARK    1  A    between atoms: C_2  and  C_19
REMARK    2  A    between atoms: N_3  and  C_4
REMARK    3  A    between atoms: C_4  and  C_5
REMARK    4  A    between atoms: C_8  and  C_9
REMARK    5  A    between atoms: C_23  and  N_24
REMARK                            x       y       z     vdW  Elec       q    Type
REMARK                         _______ _______ _______ _____ _____    ______ ____
ROOT
ATOM      1  O   UNL     1      -1.659   9.636  19.477  0.00  0.00    +0.000 OA
ATOM      2  C   UNL     1      -1.396  10.209  18.426  0.00  0.00    +0.000 C 
ATOM      3  N   UNL     1      -0.130  10.641  18.095  0.00  0.00    +0.000 N 
ATOM      4  H   UNL     1       0.014  11.276  17.323  0.00  0.00    +0.000 HD
ENDROOT
BRANCH   2   5
ATOM      5  C   UNL     1      -2.490  10.532  17.470  0.00  0.00    +0.000 A 
ATOM      6  C   UNL     1      -3.541  11.342  17.920  0.00  0.00    +0.000 A 
ATOM      7  C   UNL     1      -4.573  11.700  17.054  0.00  0.00    +0.000 A 
ATOM      8  C   UNL     1      -4.562  11.260  15.730  0.00  0.00    +0.000 A 
ATOM      9  C   UNL     1      -3.517  10.441  15.273  0.00  0.00    +0.000 A 
ATOM     10  C   UNL     1      -2.493  10.055  16.155  0.00  0.00    +0.000 A 
BRANCH   9  11
ATOM     11  N   UNL     1      -3.464  10.027  13.922  0.00  0.00    +0.000 N 
ATOM     12  C   UNL     1      -4.466   9.964  12.987  0.00  0.00    +0.000 A 
ATOM     13  N   UNL     1      -3.965   9.577  11.837  0.00  0.00    +0.000 NA
ATOM     14  N   UNL     1      -2.626   9.391  12.059  0.00  0.00    +0.000 NA
ATOM     15  N   UNL     1      -2.309   9.665  13.316  0.00  0.00    +0.000 NA
ENDBRANCH   9  11
ENDBRANCH   2   5
BRANCH   3  16
ATOM     16  C   UNL     1       0.933  10.487  19.065  0.00  0.00    +0.000 C 
BRANCH  16  17
ATOM     17  C   UNL     1       1.651   9.171  18.932  0.00  0.00    +0.000 A 
ATOM     18  C   UNL     1       1.679   8.273  20.009  0.00  0.00    +0.000 A 
ATOM     19  C   UNL     1       2.304   7.031  19.879  0.00  0.00    +0.000 A 
ATOM     20  C   UNL     1       2.999   6.713  18.708  0.00  0.00    +0.000 A 
ATOM     21  C   UNL     1       2.944   7.587  17.618  0.00  0.00    +0.000 A 
ATOM     22  C   UNL     1       2.276   8.811  17.730  0.00  0.00    +0.000 A 
BRANCH  20  23
ATOM     23  C   UNL     1       3.801   5.467  18.570  0.00  0.00    +0.000 C 
ATOM     24  O   UNL     1       4.997   5.528  18.858  0.00  0.00    +0.000 OA
ATOM     25  N   UNL     1       3.173   4.277  18.194  0.00  0.00    +0.000 N 
ATOM     26  C   UNL     1       1.760   4.081  17.846  0.00  0.00    +0.000 C 
ATOM     27  C   UNL     1       1.162   2.853  18.532  0.00  0.00    +0.000 C 
ATOM     28  O   UNL     1       1.964   1.686  18.326  0.00  0.00    +0.000 OA
ATOM     29  C   UNL     1       3.294   1.898  18.828  0.00  0.00    +0.000 C 
ATOM     30  C   UNL     1       3.976   3.056  18.085  0.00  0.00    +0.000 C 
ENDBRANCH  20  23
ENDBRANCH  16  17
ENDBRANCH   3  16
TORSDOF 5
ENDMDL
MODEL 2
REMARK VINA RESULT:      -8.4      3.449      9.394
REMARK  Name = 
REMARK  5 active torsions:
REMARK  status: ('A' for Active; 'I' for Inactive)
REMARK    1  A    between atoms: C_2  and  C_19
REMARK    2  A    between atoms: N_3  and  C_4
REMARK    3  A    between atoms: C_4  and  C_5
REMARK    4  A    between atoms: C_8  and  C_9
REMARK    5  A    between atoms: C_23  and  N_24
REMARK                            x       y       z     vdW  Elec       q    Type
REMARK                         _______ _______ _______ _____ _____    ______ ____
ROOT
ATOM      1  O   UNL     1       2.376   9.452  17.308  0.00  0.00    +0.000 OA
ATOM      2  C   UNL     1       2.182   8.592  18.158  0.00  0.00    +0.000 C 
ATOM      3  N   UNL     1       1.524   8.834  19.346  0.00  0.00    +0.000 N 
ATOM      4  H   UNL     1       1.555   8.162  20.100  0.00  0.00    +0.000 HD
ENDROOT
BRANCH   2   5
ATOM      5  C   UNL     1       2.732   7.223  17.960  0.00  0.00    +0.000 A 
ATOM      6  C   UNL     1       1.907   6.132  18.263  0.00  0.00    +0.000 A 
ATOM      7  C   UNL     1       2.363   4.829  18.065  0.00  0.00    +0.000 A 
ATOM      8  C   UNL     1       3.641   4.604  17.553  0.00  0.00    +0.000 A 
ATOM      9  C   UNL     1       4.477   5.692  17.252  0.00  0.00    +0.000 A 
ATOM     10  C   UNL     1       4.029   7.004  17.483  0.00  0.00    +0.000 A 
BRANCH   9  11
ATOM     11  N   UNL     1       5.756   5.484  16.686  0.00  0.00    +0.000 N 
ATOM     12  C   UNL     1       6.444   4.313  16.488  0.00  0.00    +0.000 A 
ATOM     13  N   UNL     1       7.577   4.573  15.877  0.00  0.00    +0.000 NA
ATOM     14  N   UNL     1       7.598   5.929  15.694  0.00  0.00    +0.000 NA
ATOM     15  N   UNL     1       6.499   6.493  16.175  0.00  0.00    +0.000 NA
ENDBRANCH   9  11
ENDBRANCH   2   5
BRANCH   3  16
ATOM     16  C   UNL     1       1.112  10.187  19.648  0.00  0.00    +0.000 C 
BRANCH  16  17
ATOM     17  C   UNL     1      -0.192  10.554  18.991  0.00  0.00    +0.000 A 
ATOM     18  C   UNL     1      -0.453  11.887  18.640  0.00  0.00    +0.000 A 
ATOM     19  C   UNL     1      -1.641  12.229  17.990  0.00  0.00    +0.000 A 
ATOM     20  C   UNL     1      -2.628  11.261  17.776  0.00  0.00    +0.000 A 
ATOM     21  C   UNL     1      -2.360   9.925  18.090  0.00  0.00    +0.000 A 
ATOM     22  C   UNL     1      -1.150   9.574  18.697  0.00  0.00    +0.000 A 
BRANCH  20  23
ATOM     23  C   UNL     1      -3.967  11.598  17.219  0.00  0.00    +0.000 C 
ATOM     24  O   UNL     1      -4.173  11.320  16.036  0.00  0.00    +0.000 OA
ATOM     25  N   UNL     1      -4.948  12.139  18.051  0.00  0.00    +0.000 N 
ATOM     26  C   UNL     1      -4.823  12.494  19.471  0.00  0.00    +0.000 C 
ATOM     27  C   UNL     1      -6.008  11.992  20.297  0.00  0.00    +0.000 C 
ATOM     28  O   UNL     1      -7.259  12.384  19.722  0.00  0.00    +0.000 OA
ATOM     29  C   UNL     1      -7.376  11.874  18.384  0.00  0.00    +0.000 C 
ATOM     30  C   UNL     1      -6.267  12.444  17.487  0.00  0.00    +0.000 C 
ENDBRANCH  20  23
ENDBRANCH  16  17
ENDBRANCH   3  16
TORSDOF 5
ENDMDL
MODEL 3
REMARK VINA RESULT:      -8.2      4.722      9.642
REMARK  Name = 
REMARK  5 active torsions:
REMARK  status: ('A' for Active; 'I' for Inactive)
REMARK    1  A    between atoms: C_2  and  C_19
REMARK    2  A    between atoms: N_3  and  C_4
REMARK    3  A    between atoms: C_4  and  C_5
REMARK    4  A    between atoms: C_8  and  C_9
REMARK    5  A    between atoms: C_23  and  N_24
REMARK                            x       y       z     vdW  Elec       q    Type
REMARK                         _______ _______ _______ _____ _____    ______ ____
ROOT
ATOM      1  O   UNL     1       1.112   4.871  20.894  0.00  0.00    +0.000 OA
ATOM      2  C   UNL     1       1.869   5.481  20.149  0.00  0.00    +0.000 C 
ATOM      3  N   UNL     1       2.079   6.842  20.230  0.00  0.00    +0.000 N 
ATOM      4  H   UNL     1       2.549   7.337  19.486  0.00  0.00    +0.000 HD
ENDROOT
BRANCH   2   5
ATOM      5  C   UNL     1       2.560   4.757  19.048  0.00  0.00    +0.000 A 
ATOM      6  C   UNL     1       1.778   4.009  18.158  0.00  0.00    +0.000 A 
ATOM      7  C   UNL     1       2.373   3.338  17.091  0.00  0.00    +0.000 A 
ATOM      8  C   UNL     1       3.753   3.415  16.897  0.00  0.00    +0.000 A 
ATOM      9  C   UNL     1       4.546   4.156  17.787  0.00  0.00    +0.000 A 
ATOM     10  C   UNL     1       3.949   4.806  18.882  0.00  0.00    +0.000 A 
BRANCH   9  11
ATOM     11  N   UNL     1       5.938   4.285  17.577  0.00  0.00    +0.000 N 
ATOM     12  C   UNL     1       6.641   4.361  16.401  0.00  0.00    +0.000 A 
ATOM     13  N   UNL     1       7.915   4.535  16.667  0.00  0.00    +0.000 NA
ATOM     14  N   UNL     1       8.010   4.564  18.032  0.00  0.00    +0.000 NA
ATOM     15  N   UNL     1       6.819   4.418  18.596  0.00  0.00    +0.000 NA
ENDBRANCH   9  11
ENDBRANCH   2   5
BRANCH   3  16
ATOM     16  C   UNL     1       1.307   7.608  21.184  0.00  0.00    +0.000 C 
BRANCH  16  17
ATOM     17  C   UNL     1       1.019   9.005  20.706  0.00  0.00    +0.000 A 
ATOM     18  C   UNL     1       0.544   9.972  21.603  0.00  0.00    +0.000 A 
ATOM     19  C   UNL     1       0.316  11.283  21.177  0.00  0.00    +0.000 A 
ATOM     20  C   UNL     1       0.460  11.618  19.826  0.00  0.00    +0.000 A 
ATOM     21  C   UNL     1       0.968  10.669  18.934  0.00  0.00    +0.000 A 
ATOM     22  C   UNL     1       1.243   9.368  19.370  0.00  0.00    +0.000 A 
BRANCH  20  23
ATOM     23  C   UNL     1       0.095  12.959  19.294  0.00  0.00    +0.000 C 
ATOM     24  O   UNL     1      -1.056  13.109  18.878  0.00  0.00    +0.000 OA
ATOM     25  N   UNL     1       1.023  14.001  19.344  0.00  0.00    +0.000 N 
ATOM     26  C   UNL     1       2.408  13.944  19.829  0.00  0.00    +0.000 C 
ATOM     27  C   UNL     1       2.744  15.115  20.753  0.00  0.00    +0.000 C 
ATOM     28  O   UNL     1       2.401  16.373  20.162  0.00  0.00    +0.000 OA
ATOM     29  C   UNL     1       0.999  16.413  19.850  0.00  0.00    +0.000 C 
ATOM     30  C   UNL     1       0.637  15.320  18.834  0.00  0.00    +0.000 C 
ENDBRANCH  20  23
ENDBRANCH  16  17
ENDBRANCH   3  16
TORSDOF 5
ENDMDL
MODEL 4
REMARK VINA RESULT:      -8.2      2.418      3.184
REMARK  Name = 
REMARK  5 active torsions:
REMARK  status: ('A' for Active; 'I' for Inactive)
REMARK    1  A    between atoms: C_2  and  C_19
REMARK    2  A    between atoms: N_3  and  C_4
REMARK    3  A    between atoms: C_4  and  C_5
REMARK    4  A    between atoms: C_8  and  C_9
REMARK    5  A    between atoms: C_23  and  N_24
REMARK                            x       y       z     vdW  Elec       q    Type
REMARK                         _______ _______ _______ _____ _____    ______ ____
ROOT
ATOM      1  O   UNL     1      -1.313   9.870  19.730  0.00  0.00    +0.000 OA
ATOM      2  C   UNL     1      -1.138  10.365  18.624  0.00  0.00    +0.000 C 
ATOM      3  N   UNL     1       0.105  10.701  18.132  0.00  0.00    +0.000 N 
ATOM      4  H   UNL     1       0.196  11.281  17.310  0.00  0.00    +0.000 HD
ENDROOT
BRANCH   2   5
ATOM      5  C   UNL     1      -2.312  10.695  17.771  0.00  0.00    +0.000 A 
ATOM      6  C   UNL     1      -2.303  10.258  16.439  0.00  0.00    +0.000 A 
ATOM      7  C   UNL     1      -3.392  10.514  15.608  0.00  0.00    +0.000 A 
ATOM      8  C   UNL     1      -4.503  11.200  16.099  0.00  0.00    +0.000 A 
ATOM      9  C   UNL     1      -4.518  11.647  17.430  0.00  0.00    +0.000 A 
ATOM     10  C   UNL     1      -3.407  11.417  18.259  0.00  0.00    +0.000 A 
BRANCH   9  11
ATOM     11  N   UNL     1      -5.656  12.300  17.959  0.00  0.00    +0.000 N 
ATOM     12  C   UNL     1      -6.884  12.516  17.386  0.00  0.00    +0.000 A 
ATOM     13  N   UNL     1      -7.670  13.112  18.253  0.00  0.00    +0.000 NA
ATOM     14  N   UNL     1      -6.917  13.275  19.386  0.00  0.00    +0.000 NA
ATOM     15  N   UNL     1      -5.697  12.783  19.222  0.00  0.00    +0.000 NA
ENDBRANCH   9  11
ENDBRANCH   2   5
BRANCH   3  16
ATOM     16  C   UNL     1       1.258  10.541  18.991  0.00  0.00    +0.000 C 
BRANCH  16  17
ATOM     17  C   UNL     1       1.889   9.180  18.865  0.00  0.00    +0.000 A 
ATOM     18  C   UNL     1       1.783   8.256  19.915  0.00  0.00    +0.000 A 
ATOM     19  C   UNL     1       2.327   6.975  19.789  0.00  0.00    +0.000 A 
ATOM     20  C   UNL     1       3.072   6.637  18.655  0.00  0.00    +0.000 A 
ATOM     21  C   UNL     1       3.150   7.540  17.590  0.00  0.00    +0.000 A 
ATOM     22  C   UNL     1       2.564   8.806  17.695  0.00  0.00    +0.000 A 
BRANCH  20  23
ATOM     23  C   UNL     1       3.791   5.340  18.531  0.00  0.00    +0.000 C 
ATOM     24  O   UNL     1       4.997   5.334  18.786  0.00  0.00    +0.000 OA
ATOM     25  N   UNL     1       3.081   4.182  18.206  0.00  0.00    +0.000 N 
ATOM     26  C   UNL     1       1.649   4.066  17.900  0.00  0.00    +0.000 C 
ATOM     27  C   UNL     1       0.996   2.896  18.637  0.00  0.00    +0.000 C 
ATOM     28  O   UNL     1       1.718   1.676  18.443  0.00  0.00    +0.000 OA
ATOM     29  C   UNL     1       3.072   1.819  18.903  0.00  0.00    +0.000 C 
ATOM     30  C   UNL     1       3.804   2.911  18.110  0.00  0.00    +0.000 C 
ENDBRANCH  20  23
ENDBRANCH  16  17
ENDBRANCH   3  16
TORSDOF 5
ENDMDL
MODEL 5
REMARK VINA RESULT:      -8.2      4.536      9.436
REMARK  Name = 
REMARK  5 active torsions:
REMARK  status: ('A' for Active; 'I' for Inactive)
REMARK    1  A    between atoms: C_2  and  C_19
REMARK    2  A    between atoms: N_3  and  C_4
REMARK    3  A    between atoms: C_4  and  C_5
REMARK    4  A    between atoms: C_8  and  C_9
REMARK    5  A    between atoms: C_23  and  N_24
REMARK                            x       y       z     vdW  Elec       q    Type
REMARK                         _______ _______ _______ _____ _____    ______ ____
ROOT
ATOM      1  O   UNL     1       1.250   4.928  20.749  0.00  0.00    +0.000 OA
ATOM      2  C   UNL     1       2.006   5.598  20.054  0.00  0.00    +0.000 C 
ATOM      3  N   UNL     1       2.166   6.959  20.204  0.00  0.00    +0.000 N 
ATOM      4  H   UNL     1       2.639   7.504  19.497  0.00  0.00    +0.000 HD
ENDROOT
BRANCH   2   5
ATOM      5  C   UNL     1       2.751   4.950  18.941  0.00  0.00    +0.000 A 
ATOM      6  C   UNL     1       2.203   3.795  18.366  0.00  0.00    +0.000 A 
ATOM      7  C   UNL     1       2.845   3.168  17.299  0.00  0.00    +0.000 A 
ATOM      8  C   UNL     1       4.034   3.693  16.791  0.00  0.00    +0.000 A 
ATOM      9  C   UNL     1       4.594   4.844  17.365  0.00  0.00    +0.000 A 
ATOM     10  C   UNL     1       3.963   5.458  18.462  0.00  0.00    +0.000 A 
BRANCH   9  11
ATOM     11  N   UNL     1       5.771   5.418  16.831  0.00  0.00    +0.000 N 
ATOM     12  C   UNL     1       6.416   6.578  17.183  0.00  0.00    +0.000 A 
ATOM     13  N   UNL     1       7.508   6.702  16.466  0.00  0.00    +0.000 NA
ATOM     14  N   UNL     1       7.545   5.604  15.650  0.00  0.00    +0.000 NA
ATOM     15  N   UNL     1       6.501   4.816  15.864  0.00  0.00    +0.000 NA
ENDBRANCH   9  11
ENDBRANCH   2   5
BRANCH   3  16
ATOM     16  C   UNL     1       1.343   7.653  21.171  0.00  0.00    +0.000 C 
BRANCH  16  17
ATOM     17  C   UNL     1       0.916   9.015  20.694  0.00  0.00    +0.000 A 
ATOM     18  C   UNL     1       0.316   9.916  21.585  0.00  0.00    +0.000 A 
ATOM     19  C   UNL     1      -0.043  11.199  21.161  0.00  0.00    +0.000 A 
ATOM     20  C   UNL     1       0.097  11.559  19.817  0.00  0.00    +0.000 A 
ATOM     21  C   UNL     1       0.728  10.680  18.932  0.00  0.00    +0.000 A 
ATOM     22  C   UNL     1       1.133   9.413  19.367  0.00  0.00    +0.000 A 
BRANCH  20  23
ATOM     23  C   UNL     1      -0.399  12.857  19.284  0.00  0.00    +0.000 C 
ATOM     24  O   UNL     1      -1.556  12.891  18.861  0.00  0.00    +0.000 OA
ATOM     25  N   UNL     1       0.418  13.988  19.343  0.00  0.00    +0.000 N 
ATOM     26  C   UNL     1       1.798  14.072  19.838  0.00  0.00    +0.000 C 
ATOM     27  C   UNL     1       2.006  15.269  20.766  0.00  0.00    +0.000 C 
ATOM     28  O   UNL     1       1.541  16.487  20.175  0.00  0.00    +0.000 OA
ATOM     29  C   UNL     1       0.144  16.384  19.853  0.00  0.00    +0.000 C 
ATOM     30  C   UNL     1      -0.097  15.262  18.832  0.00  0.00    +0.000 C 
ENDBRANCH  20  23
ENDBRANCH  16  17
ENDBRANCH   3  16
TORSDOF 5
ENDMDL
MODEL 6
REMARK VINA RESULT:      -8.2      2.254      3.552
REMARK  Name = 
REMARK  5 active torsions:
REMARK  status: ('A' for Active; 'I' for Inactive)
REMARK    1  A    between atoms: C_2  and  C_19
REMARK    2  A    between atoms: N_3  and  C_4
REMARK    3  A    between atoms: C_4  and  C_5
REMARK    4  A    between atoms: C_8  and  C_9
REMARK    5  A    between atoms: C_23  and  N_24
REMARK                            x       y       z     vdW  Elec       q    Type
REMARK                         _______ _______ _______ _____ _____    ______ ____
ROOT
ATOM      1  O   UNL     1       1.207  10.800  21.007  0.00  0.00    +0.000 OA
ATOM      2  C   UNL     1       0.211  10.137  20.745  0.00  0.00    +0.000 C 
ATOM      3  N   UNL     1       0.122   8.780  20.971  0.00  0.00    +0.000 N 
ATOM      4  H   UNL     1      -0.627   8.236  20.567  0.00  0.00    +0.000 HD
ENDROOT
BRANCH   2   5
ATOM      5  C   UNL     1      -0.953  10.787  20.085  0.00  0.00    +0.000 A 
ATOM      6  C   UNL     1      -1.586  11.843  20.755  0.00  0.00    +0.000 A 
ATOM      7  C   UNL     1      -2.661  12.507  20.166  0.00  0.00    +0.000 A 
ATOM      8  C   UNL     1      -3.109  12.129  18.900  0.00  0.00    +0.000 A 
ATOM      9  C   UNL     1      -2.487  11.068  18.224  0.00  0.00    +0.000 A 
ATOM     10  C   UNL     1      -1.423  10.378  18.831  0.00  0.00    +0.000 A 
BRANCH   9  11
ATOM     11  N   UNL     1      -2.895  10.704  16.919  0.00  0.00    +0.000 N 
ATOM     12  C   UNL     1      -3.947  11.170  16.172  0.00  0.00    +0.000 A 
ATOM     13  N   UNL     1      -3.926  10.601  14.989  0.00  0.00    +0.000 NA
ATOM     14  N   UNL     1      -2.844   9.762  15.000  0.00  0.00    +0.000 NA
ATOM     15  N   UNL     1      -2.208   9.818  16.162  0.00  0.00    +0.000 NA
ENDBRANCH   9  11
ENDBRANCH   2   5
BRANCH   3  16
ATOM     16  C   UNL     1       1.289   8.081  21.466  0.00  0.00    +0.000 C 
BRANCH  16  17
ATOM     17  C   UNL     1       1.904   7.178  20.430  0.00  0.00    +0.000 A 
ATOM     18  C   UNL     1       2.274   7.693  19.179  0.00  0.00    +0.000 A 
ATOM     19  C   UNL     1       2.887   6.873  18.229  0.00  0.00    +0.000 A 
ATOM     20  C   UNL     1       3.042   5.505  18.477  0.00  0.00    +0.000 A 
ATOM     21  C   UNL     1       2.710   4.993  19.735  0.00  0.00    +0.000 A 
ATOM     22  C   UNL     1       2.141   5.824  20.705  0.00  0.00    +0.000 A 
BRANCH  20  23
ATOM     23  C   UNL     1       3.557   4.561  17.448  0.00  0.00    +0.000 C 
ATOM     24  O   UNL     1       2.728   3.893  16.827  0.00  0.00    +0.000 OA
ATOM     25  N   UNL     1       4.925   4.514  17.173  0.00  0.00    +0.000 N 
ATOM     26  C   UNL     1       5.998   5.271  17.832  0.00  0.00    +0.000 C 
ATOM     27  C   UNL     1       6.971   5.887  16.825  0.00  0.00    +0.000 C 
ATOM     28  O   UNL     1       7.453   4.915  15.891  0.00  0.00    +0.000 OA
ATOM     29  C   UNL     1       6.357   4.322  15.176  0.00  0.00    +0.000 C 
ATOM     30  C   UNL     1       5.410   3.594  16.140  0.00  0.00    +0.000 C 
ENDBRANCH  20  23
ENDBRANCH  16  17
ENDBRANCH   3  16
TORSDOF 5
ENDMDL
MODEL 7
REMARK VINA RESULT:      -8.1      2.834      3.552
REMARK  Name = 
REMARK  5 active torsions:
REMARK  status: ('A' for Active; 'I' for Inactive)
REMARK    1  A    between atoms: C_2  and  C_19
REMARK    2  A    between atoms: N_3  and  C_4
REMARK    3  A    between atoms: C_4  and  C_5
REMARK    4  A    between atoms: C_8  and  C_9
REMARK    5  A    between atoms: C_23  and  N_24
REMARK                            x       y       z     vdW  Elec       q    Type
REMARK                         _______ _______ _______ _____ _____    ______ ____
ROOT
ATOM      1  O   UNL     1      -0.040  11.990  18.665  0.00  0.00    +0.000 OA
ATOM      2  C   UNL     1      -0.952  11.227  18.963  0.00  0.00    +0.000 C 
ATOM      3  N   UNL     1      -0.843  10.263  19.943  0.00  0.00    +0.000 N 
ATOM      4  H   UNL     1      -1.534   9.532  20.027  0.00  0.00    +0.000 HD
ENDROOT
BRANCH   2   5
ATOM      5  C   UNL     1      -2.229  11.274  18.202  0.00  0.00    +0.000 A 
ATOM      6  C   UNL     1      -2.258  10.691  16.928  0.00  0.00    +0.000 A 
ATOM      7  C   UNL     1      -3.439  10.679  16.187  0.00  0.00    +0.000 A 
ATOM      8  C   UNL     1      -4.603  11.240  16.714  0.00  0.00    +0.000 A 
ATOM      9  C   UNL     1      -4.581  11.832  17.986  0.00  0.00    +0.000 A 
ATOM     10  C   UNL     1      -3.383  11.872  18.720  0.00  0.00    +0.000 A 
BRANCH   9  11
ATOM     11  N   UNL     1      -5.763  12.361  18.556  0.00  0.00    +0.000 N 
ATOM     12  C   UNL     1      -5.911  13.267  19.576  0.00  0.00    +0.000 A 
ATOM     13  N   UNL     1      -7.187  13.524  19.748  0.00  0.00    +0.000 NA
ATOM     14  N   UNL     1      -7.847  12.761  18.822  0.00  0.00    +0.000 NA
ATOM     15  N   UNL     1      -6.996  12.055  18.091  0.00  0.00    +0.000 NA
ENDBRANCH   9  11
ENDBRANCH   2   5
BRANCH   3  16
ATOM     16  C   UNL     1       0.433  10.081  20.600  0.00  0.00    +0.000 C 
BRANCH  16  17
ATOM     17  C   UNL     1       1.227   8.944  20.014  0.00  0.00    +0.000 A 
ATOM     18  C   UNL     1       1.534   7.823  20.798  0.00  0.00    +0.000 A 
ATOM     19  C   UNL     1       2.232   6.744  20.249  0.00  0.00    +0.000 A 
ATOM     20  C   UNL     1       2.721   6.817  18.941  0.00  0.00    +0.000 A 
ATOM     21  C   UNL     1       2.387   7.915  18.142  0.00  0.00    +0.000 A 
ATOM     22  C   UNL     1       1.647   8.974  18.677  0.00  0.00    +0.000 A 
BRANCH  20  23
ATOM     23  C   UNL     1       3.590   5.759  18.354  0.00  0.00    +0.000 C 
ATOM     24  O   UNL     1       4.800   5.985  18.304  0.00  0.00    +0.000 OA
ATOM     25  N   UNL     1       3.029   4.545  17.953  0.00  0.00    +0.000 N 
ATOM     26  C   UNL     1       1.612   4.160  17.982  0.00  0.00    +0.000 C 
ATOM     27  C   UNL     1       1.406   2.762  18.566  0.00  0.00    +0.000 C 
ATOM     28  O   UNL     1       2.245   1.792  17.930  0.00  0.00    +0.000 OA
ATOM     29  C   UNL     1       3.627   2.157  18.073  0.00  0.00    +0.000 C 
ATOM     30  C   UNL     1       3.905   3.509  17.399  0.00  0.00    +0.000 C 
ENDBRANCH  20  23
ENDBRANCH  16  17
ENDBRANCH   3  16
TORSDOF 5
ENDMDL
MODEL 8
REMARK VINA RESULT:      -8.1      3.132      4.329
REMARK  Name = 
REMARK  5 active torsions:
REMARK  status: ('A' for Active; 'I' for Inactive)
REMARK    1  A    between atoms: C_2  and  C_19
REMARK    2  A    between atoms: N_3  and  C_4
REMARK    3  A    between atoms: C_4  and  C_5
REMARK    4  A    between atoms: C_8  and  C_9
REMARK    5  A    between atoms: C_23  and  N_24
REMARK                            x       y       z     vdW  Elec       q    Type
REMARK                         _______ _______ _______ _____ _____    ______ ____
ROOT
ATOM      1  O   UNL     1       0.169  11.778  18.764  0.00  0.00    +0.000 OA
ATOM      2  C   UNL     1      -0.689  10.925  18.955  0.00  0.00    +0.000 C 
ATOM      3  N   UNL     1      -0.497   9.824  19.763  0.00  0.00    +0.000 N 
ATOM      4  H   UNL     1      -1.143   9.049  19.743  0.00  0.00    +0.000 HD
ENDROOT
BRANCH   2   5
ATOM      5  C   UNL     1      -1.990  11.016  18.240  0.00  0.00    +0.000 A 
ATOM      6  C   UNL     1      -2.094  10.409  16.981  0.00  0.00    +0.000 A 
ATOM      7  C   UNL     1      -3.301  10.439  16.283  0.00  0.00    +0.000 A 
ATOM      8  C   UNL     1      -4.417  11.065  16.840  0.00  0.00    +0.000 A 
ATOM      9  C   UNL     1      -4.320  11.682  18.097  0.00  0.00    +0.000 A 
ATOM     10  C   UNL     1      -3.095  11.680  18.786  0.00  0.00    +0.000 A 
BRANCH   9  11
ATOM     11  N   UNL     1      -5.454  12.278  18.698  0.00  0.00    +0.000 N 
ATOM     12  C   UNL     1      -6.666  12.605  18.144  0.00  0.00    +0.000 A 
ATOM     13  N   UNL     1      -7.454  13.087  19.076  0.00  0.00    +0.000 NA
ATOM     14  N   UNL     1      -6.720  13.065  20.231  0.00  0.00    +0.000 NA
ATOM     15  N   UNL     1      -5.508  12.573  20.017  0.00  0.00    +0.000 NA
ENDBRANCH   9  11
ENDBRANCH   2   5
BRANCH   3  16
ATOM     16  C   UNL     1       0.808   9.615  20.353  0.00  0.00    +0.000 C 
BRANCH  16  17
ATOM     17  C   UNL     1       1.563   8.488  19.701  0.00  0.00    +0.000 A 
ATOM     18  C   UNL     1       2.037   8.625  18.388  0.00  0.00    +0.000 A 
ATOM     19  C   UNL     1       2.778   7.601  17.792  0.00  0.00    +0.000 A 
ATOM     20  C   UNL     1       2.963   6.387  18.461  0.00  0.00    +0.000 A 
ATOM     21  C   UNL     1       2.524   6.257  19.783  0.00  0.00    +0.000 A 
ATOM     22  C   UNL     1       1.825   7.300  20.398  0.00  0.00    +0.000 A 
BRANCH  20  23
ATOM     23  C   UNL     1       3.618   5.215  17.819  0.00  0.00    +0.000 C 
ATOM     24  O   UNL     1       2.885   4.339  17.357  0.00  0.00    +0.000 OA
ATOM     25  N   UNL     1       5.009   5.177  17.701  0.00  0.00    +0.000 N 
ATOM     26  C   UNL     1       5.977   6.165  18.196  0.00  0.00    +0.000 C 
ATOM     27  C   UNL     1       7.033   6.514  17.146  0.00  0.00    +0.000 C 
ATOM     28  O   UNL     1       7.646   5.342  16.600  0.00  0.00    +0.000 OA
ATOM     29  C   UNL     1       6.655   4.493  16.000  0.00  0.00    +0.000 C 
ATOM     30  C   UNL     1       5.634   4.024  17.047  0.00  0.00    +0.000 C 
ENDBRANCH  20  23
ENDBRANCH  16  17
ENDBRANCH   3  16
TORSDOF 5
ENDMDL
MODEL 9
REMARK VINA RESULT:      -8.1      2.797      3.601
REMARK  Name = 
REMARK  5 active torsions:
REMARK  status: ('A' for Active; 'I' for Inactive)
REMARK    1  A    between atoms: C_2  and  C_19
REMARK    2  A    between atoms: N_3  and  C_4
REMARK    3  A    between atoms: C_4  and  C_5
REMARK    4  A    between atoms: C_8  and  C_9
REMARK    5  A    between atoms: C_23  and  N_24
REMARK                            x       y       z     vdW  Elec       q    Type
REMARK                         _______ _______ _______ _____ _____    ______ ____
ROOT
ATOM      1  O   UNL     1       0.034  12.036  18.334  0.00  0.00    +0.000 OA
ATOM      2  C   UNL     1      -0.858  11.271  18.680  0.00  0.00    +0.000 C 
ATOM      3  N   UNL     1      -0.701  10.320  19.666  0.00  0.00    +0.000 N 
ATOM      4  H   UNL     1      -1.383   9.585  19.788  0.00  0.00    +0.000 HD
ENDROOT
BRANCH   2   5
ATOM      5  C   UNL     1      -2.167  11.299  17.974  0.00  0.00    +0.000 A 
ATOM      6  C   UNL     1      -2.203  10.884  16.636  0.00  0.00    +0.000 A 
ATOM      7  C   UNL     1      -3.410  10.861  15.938  0.00  0.00    +0.000 A 
ATOM      8  C   UNL     1      -4.593  11.243  16.572  0.00  0.00    +0.000 A 
ATOM      9  C   UNL     1      -4.566  11.668  17.909  0.00  0.00    +0.000 A 
ATOM     10  C   UNL     1      -3.344  11.721  18.603  0.00  0.00    +0.000 A 
BRANCH   9  11
ATOM     11  N   UNL     1      -5.762  12.011  18.582  0.00  0.00    +0.000 N 
ATOM     12  C   UNL     1      -6.283  13.250  18.860  0.00  0.00    +0.000 A 
ATOM     13  N   UNL     1      -7.446  13.109  19.453  0.00  0.00    +0.000 NA
ATOM     14  N   UNL     1      -7.652  11.759  19.551  0.00  0.00    +0.000 NA
ATOM     15  N   UNL     1      -6.641  11.082  19.023  0.00  0.00    +0.000 NA
ENDBRANCH   9  11
ENDBRANCH   2   5
BRANCH   3  16
ATOM     16  C   UNL     1       0.603  10.154  20.270  0.00  0.00    +0.000 C 
BRANCH  16  17
ATOM     17  C   UNL     1       1.398   9.045  19.633  0.00  0.00    +0.000 A 
ATOM     18  C   UNL     1       1.886   9.190  18.327  0.00  0.00    +0.000 A 
ATOM     19  C   UNL     1       2.663   8.184  17.745  0.00  0.00    +0.000 A 
ATOM     20  C   UNL     1       2.871   6.979  18.423  0.00  0.00    +0.000 A 
ATOM     21  C   UNL     1       2.418   6.842  19.738  0.00  0.00    +0.000 A 
ATOM     22  C   UNL     1       1.683   7.869  20.340  0.00  0.00    +0.000 A 
BRANCH  20  23
ATOM     23  C   UNL     1       3.568   5.822  17.795  0.00  0.00    +0.000 C 
ATOM     24  O   UNL     1       4.745   5.980  17.467  0.00  0.00    +0.000 OA
ATOM     25  N   UNL     1       2.904   4.601  17.664  0.00  0.00    +0.000 N 
ATOM     26  C   UNL     1       1.516   4.292  18.032  0.00  0.00    +0.000 C 
ATOM     27  C   UNL     1       1.403   2.978  18.805  0.00  0.00    +0.000 C 
ATOM     28  O   UNL     1       2.062   1.904  18.126  0.00  0.00    +0.000 OA
ATOM     29  C   UNL     1       3.452   2.214  17.933  0.00  0.00    +0.000 C 
ATOM     30  C   UNL     1       3.614   3.469  17.063  0.00  0.00    +0.000 C 
ENDBRANCH  20  23
ENDBRANCH  16  17
ENDBRANCH   3  16
TORSDOF 5
ENDMDL
