MODEL 1
REMARK VINA RESULT:      -9.0      0.000      0.000
REMARK  Name = 
REMARK  3 active torsions:
REMARK  status: ('A' for Active; 'I' for Inactive)
REMARK    1  A    between atoms: C_5  and  C_7
REMARK    2  A    between atoms: C_11  and  O_12
REMARK    3  A    between atoms: O_12  and  C_13
REMARK                            x       y       z     vdW  Elec       q    Type
REMARK                         _______ _______ _______ _____ _____    ______ ____
ROOT
ATOM      1  O   UNL     1      -2.264  11.480  16.948  0.00  0.00    +0.000 OA
ATOM      2  C   UNL     1      -2.059  11.514  18.160  0.00  0.00    +0.000 C 
ATOM      3  C   UNL     1      -1.353  10.396  18.903  0.00  0.00    +0.000 C 
ATOM      4  N   UNL     1      -0.769  10.749  20.211  0.00  0.00    +0.000 N 
ATOM      5  C   UNL     1       0.494  10.306  20.660  0.00  0.00    +0.000 C 
ATOM      6  O   UNL     1       1.063  10.720  21.672  0.00  0.00    +0.000 OA
ATOM      7  C   UNL     1      -1.561  11.673  20.982  0.00  0.00    +0.000 A 
ATOM      8  C   UNL     1      -1.452  11.786  22.373  0.00  0.00    +0.000 A 
ATOM      9  C   UNL     1      -2.226  12.711  23.081  0.00  0.00    +0.000 A 
ATOM     10  C   UNL     1      -3.112  13.553  22.415  0.00  0.00    +0.000 A 
ATOM     11  C   UNL     1      -3.233  13.462  21.031  0.00  0.00    +0.000 A 
ATOM     12  C   UNL     1      -2.477  12.524  20.326  0.00  0.00    +0.000 A 
ATOM     13  N   UNL     1      -2.627  12.480  18.935  0.00  0.00    +0.000 N 
ATOM     14  H   UNL     1      -3.190  13.166  18.452  0.00  0.00    +0.000 HD
ENDROOT
BRANCH   5  15
ATOM     15  C   UNL     1       1.288   9.341  19.846  0.00  0.00    +0.000 A 
ATOM     16  C   UNL     1       1.559   9.661  18.506  0.00  0.00    +0.000 A 
ATOM     17  C   UNL     1       2.188   8.737  17.671  0.00  0.00    +0.000 A 
ATOM     18  C   UNL     1       2.539   7.483  18.170  0.00  0.00    +0.000 A 
ATOM     19  C   UNL     1       2.371   7.203  19.529  0.00  0.00    +0.000 A 
ATOM     20  C   UNL     1       1.773   8.142  20.369  0.00  0.00    +0.000 A 
BRANCH  19  21
ATOM     21  O   UNL     1       2.670   5.999  20.122  0.00  0.00    +0.000 OA
BRANCH  21  22
ATOM     22  C   UNL     1       2.139   4.838  19.611  0.00  0.00    +0.000 A 
ATOM     23  C   UNL     1       2.456   4.322  18.354  0.00  0.00    +0.000 A 
ATOM     24  C   UNL     1       1.840   3.153  17.907  0.00  0.00    +0.000 A 
ATOM     25  C   UNL     1       0.955   2.472  18.741  0.00  0.00    +0.000 A 
ATOM     26  C   UNL     1       0.689   2.952  20.023  0.00  0.00    +0.000 A 
ATOM     27  C   UNL     1       1.281   4.136  20.459  0.00  0.00    +0.000 A 
ENDBRANCH  21  22
ENDBRANCH  19  21
ENDBRANCH   5  15
TORSDOF 3
ENDMDL
MODEL 2
REMARK VINA RESULT:      -8.7      0.581      1.027
REMARK  Name = 
REMARK  3 active torsions:
REMARK  status: ('A' for Active; 'I' for Inactive)
REMARK    1  A    between atoms: C_5  and  C_7
REMARK    2  A    between atoms: C_11  and  O_12
REMARK    3  A    between atoms: O_12  and  C_13
REMARK                            x       y       z     vdW  Elec       q    Type
REMARK                         _______ _______ _______ _____ _____    ______ ____
ROOT
ATOM      1  O   UNL     1      -2.374  11.103  16.842  0.00  0.00    +0.000 OA
ATOM      2  C   UNL     1      -2.119  11.255  18.036  0.00  0.00    +0.000 C 
ATOM      3  C   UNL     1      -1.377  10.214  18.853  0.00  0.00    +0.000 C 
ATOM      4  N   UNL     1      -0.741  10.693  20.095  0.00  0.00    +0.000 N 
ATOM      5  C   UNL     1       0.542  10.297  20.531  0.00  0.00    +0.000 C 
ATOM      6  O   UNL     1       1.151  10.807  21.473  0.00  0.00    +0.000 OA
ATOM      7  C   UNL     1      -1.505  11.687  20.805  0.00  0.00    +0.000 A 
ATOM      8  C   UNL     1      -1.338  11.934  22.173  0.00  0.00    +0.000 A 
ATOM      9  C   UNL     1      -2.087  12.923  22.820  0.00  0.00    +0.000 A 
ATOM     10  C   UNL     1      -3.003  13.696  22.113  0.00  0.00    +0.000 A 
ATOM     11  C   UNL     1      -3.181  13.471  20.751  0.00  0.00    +0.000 A 
ATOM     12  C   UNL     1      -2.451  12.469  20.109  0.00  0.00    +0.000 A 
ATOM     13  N   UNL     1      -2.659  12.291  18.736  0.00  0.00    +0.000 N 
ATOM     14  H   UNL     1      -3.245  12.926  18.213  0.00  0.00    +0.000 HD
ENDROOT
BRANCH   5  15
ATOM     15  C   UNL     1       1.306   9.258  19.781  0.00  0.00    +0.000 A 
ATOM     16  C   UNL     1       1.667   9.524  18.451  0.00  0.00    +0.000 A 
ATOM     17  C   UNL     1       2.271   8.537  17.671  0.00  0.00    +0.000 A 
ATOM     18  C   UNL     1       2.505   7.274  18.215  0.00  0.00    +0.000 A 
ATOM     19  C   UNL     1       2.248   7.043  19.569  0.00  0.00    +0.000 A 
ATOM     20  C   UNL     1       1.677   8.041  20.356  0.00  0.00    +0.000 A 
BRANCH  19  21
ATOM     21  O   UNL     1       2.431   5.836  20.203  0.00  0.00    +0.000 OA
BRANCH  21  22
ATOM     22  C   UNL     1       2.380   4.670  19.477  0.00  0.00    +0.000 A 
ATOM     23  C   UNL     1       1.208   3.950  19.238  0.00  0.00    +0.000 A 
ATOM     24  C   UNL     1       1.260   2.757  18.516  0.00  0.00    +0.000 A 
ATOM     25  C   UNL     1       2.472   2.319  17.985  0.00  0.00    +0.000 A 
ATOM     26  C   UNL     1       3.631   3.074  18.167  0.00  0.00    +0.000 A 
ATOM     27  C   UNL     1       3.586   4.250  18.914  0.00  0.00    +0.000 A 
ENDBRANCH  21  22
ENDBRANCH  19  21
ENDBRANCH   5  15
TORSDOF 3
ENDMDL
MODEL 3
REMARK VINA RESULT:      -8.6      1.212      2.568
REMARK  Name = 
REMARK  3 active torsions:
REMARK  status: ('A' for Active; 'I' for Inactive)
REMARK    1  A    between atoms: C_5  and  C_7
REMARK    2  A    between atoms: C_11  and  O_12
REMARK    3  A    between atoms: O_12  and  C_13
REMARK                            x       y       z     vdW  Elec       q    Type
REMARK                         _______ _______ _______ _____ _____    ______ ____
ROOT
ATOM      1  O   UNL     1       0.368   9.464  24.006  0.00  0.00    +0.000 OA
ATOM      2  C   UNL     1      -0.132  10.118  23.092  0.00  0.00    +0.000 C 
ATOM      3  C   UNL     1       0.579  10.355  21.773  0.00  0.00    +0.000 C 
ATOM      4  N   UNL     1      -0.276  10.732  20.631  0.00  0.00    +0.000 N 
ATOM      5  C   UNL     1      -0.115  10.227  19.322  0.00  0.00    +0.000 C 
ATOM      6  O   UNL     1      -0.914  10.403  18.400  0.00  0.00    +0.000 OA
ATOM      7  C   UNL     1      -1.369  11.605  20.973  0.00  0.00    +0.000 A 
ATOM      8  C   UNL     1      -2.003  12.428  20.034  0.00  0.00    +0.000 A 
ATOM      9  C   UNL     1      -3.075  13.246  20.405  0.00  0.00    +0.000 A 
ATOM     10  C   UNL     1      -3.547  13.248  21.714  0.00  0.00    +0.000 A 
ATOM     11  C   UNL     1      -2.936  12.434  22.663  0.00  0.00    +0.000 A 
ATOM     12  C   UNL     1      -1.852  11.633  22.299  0.00  0.00    +0.000 A 
ATOM     13  N   UNL     1      -1.279  10.824  23.288  0.00  0.00    +0.000 N 
ATOM     14  H   UNL     1      -1.697  10.753  24.206  0.00  0.00    +0.000 HD
ENDROOT
BRANCH   5  15
ATOM     15  C   UNL     1       1.032   9.333  18.993  0.00  0.00    +0.000 A 
ATOM     16  C   UNL     1       1.782   9.604  17.838  0.00  0.00    +0.000 A 
ATOM     17  C   UNL     1       2.784   8.726  17.423  0.00  0.00    +0.000 A 
ATOM     18  C   UNL     1       3.031   7.565  18.154  0.00  0.00    +0.000 A 
ATOM     19  C   UNL     1       2.363   7.349  19.363  0.00  0.00    +0.000 A 
ATOM     20  C   UNL     1       1.387   8.246  19.794  0.00  0.00    +0.000 A 
BRANCH  19  21
ATOM     21  O   UNL     1       2.522   6.236  20.155  0.00  0.00    +0.000 OA
BRANCH  21  22
ATOM     22  C   UNL     1       1.994   5.032  19.752  0.00  0.00    +0.000 A 
ATOM     23  C   UNL     1       1.970   4.596  18.427  0.00  0.00    +0.000 A 
ATOM     24  C   UNL     1       1.382   3.371  18.109  0.00  0.00    +0.000 A 
ATOM     25  C   UNL     1       0.875   2.561  19.123  0.00  0.00    +0.000 A 
ATOM     26  C   UNL     1       0.959   2.967  20.455  0.00  0.00    +0.000 A 
ATOM     27  C   UNL     1       1.519   4.204  20.770  0.00  0.00    +0.000 A 
ENDBRANCH  21  22
ENDBRANCH  19  21
ENDBRANCH   5  15
TORSDOF 3
ENDMDL
MODEL 4
REMARK VINA RESULT:      -8.6      0.777      1.129
REMARK  Name = 
REMARK  3 active torsions:
REMARK  status: ('A' for Active; 'I' for Inactive)
REMARK    1  A    between atoms: C_5  and  C_7
REMARK    2  A    between atoms: C_11  and  O_12
REMARK    3  A    between atoms: O_12  and  C_13
REMARK                            x       y       z     vdW  Elec       q    Type
REMARK                         _______ _______ _______ _____ _____    ______ ____
ROOT
ATOM      1  O   UNL     1      -2.653  11.432  17.072  0.00  0.00    +0.000 OA
ATOM      2  C   UNL     1      -2.378  11.535  18.266  0.00  0.00    +0.000 C 
ATOM      3  C   UNL     1      -1.577  10.487  19.015  0.00  0.00    +0.000 C 
ATOM      4  N   UNL     1      -0.933  10.929  20.266  0.00  0.00    +0.000 N 
ATOM      5  C   UNL     1       0.374  10.565  20.656  0.00  0.00    +0.000 C 
ATOM      6  O   UNL     1       0.983  11.053  21.610  0.00  0.00    +0.000 OA
ATOM      7  C   UNL     1      -1.720  11.855  21.041  0.00  0.00    +0.000 A 
ATOM      8  C   UNL     1      -1.533  12.041  22.416  0.00  0.00    +0.000 A 
ATOM      9  C   UNL     1      -2.306  12.966  23.126  0.00  0.00    +0.000 A 
ATOM     10  C   UNL     1      -3.268  13.734  22.478  0.00  0.00    +0.000 A 
ATOM     11  C   UNL     1      -3.467  13.570  21.110  0.00  0.00    +0.000 A 
ATOM     12  C   UNL     1      -2.712  12.631  20.404  0.00  0.00    +0.000 A 
ATOM     13  N   UNL     1      -2.943  12.512  19.028  0.00  0.00    +0.000 N 
ATOM     14  H   UNL     1      -3.566  13.148  18.550  0.00  0.00    +0.000 HD
ENDROOT
BRANCH   5  15
ATOM     15  C   UNL     1       1.162   9.596  19.840  0.00  0.00    +0.000 A 
ATOM     16  C   UNL     1       1.525   9.963  18.534  0.00  0.00    +0.000 A 
ATOM     17  C   UNL     1       2.152   9.044  17.691  0.00  0.00    +0.000 A 
ATOM     18  C   UNL     1       2.408   7.752  18.146  0.00  0.00    +0.000 A 
ATOM     19  C   UNL     1       2.149   7.420  19.479  0.00  0.00    +0.000 A 
ATOM     20  C   UNL     1       1.554   8.350  20.330  0.00  0.00    +0.000 A 
BRANCH  19  21
ATOM     21  O   UNL     1       2.352   6.175  20.028  0.00  0.00    +0.000 OA
BRANCH  21  22
ATOM     22  C   UNL     1       2.793   5.144  19.233  0.00  0.00    +0.000 A 
ATOM     23  C   UNL     1       4.133   4.775  19.105  0.00  0.00    +0.000 A 
ATOM     24  C   UNL     1       4.489   3.735  18.246  0.00  0.00    +0.000 A 
ATOM     25  C   UNL     1       3.500   3.028  17.565  0.00  0.00    +0.000 A 
ATOM     26  C   UNL     1       2.155   3.354  17.744  0.00  0.00    +0.000 A 
ATOM     27  C   UNL     1       1.801   4.413  18.578  0.00  0.00    +0.000 A 
ENDBRANCH  21  22
ENDBRANCH  19  21
ENDBRANCH   5  15
TORSDOF 3
ENDMDL
MODEL 5
REMARK VINA RESULT:      -8.3      3.101      4.945
REMARK  Name = 
REMARK  3 active torsions:
REMARK  status: ('A' for Active; 'I' for Inactive)
REMARK    1  A    between atoms: C_5  and  C_7
REMARK    2  A    between atoms: C_11  and  O_12
REMARK    3  A    between atoms: O_12  and  C_13
REMARK                            x       y       z     vdW  Elec       q    Type
REMARK                         _______ _______ _______ _____ _____    ______ ____
ROOT
ATOM      1  O   UNL     1       2.460  10.767  17.174  0.00  0.00    +0.000 OA
ATOM      2  C   UNL     1       1.959  10.209  18.149  0.00  0.00    +0.000 C 
ATOM      3  C   UNL     1       1.577   8.741  18.145  0.00  0.00    +0.000 C 
ATOM      4  N   UNL     1       1.434   8.101  19.467  0.00  0.00    +0.000 N 
ATOM      5  C   UNL     1       1.904   6.806  19.775  0.00  0.00    +0.000 C 
ATOM      6  O   UNL     1       1.938   6.324  20.908  0.00  0.00    +0.000 OA
ATOM      7  C   UNL     1       0.843   8.947  20.472  0.00  0.00    +0.000 A 
ATOM      8  C   UNL     1       0.211   8.439  21.613  0.00  0.00    +0.000 A 
ATOM      9  C   UNL     1      -0.332   9.297  22.575  0.00  0.00    +0.000 A 
ATOM     10  C   UNL     1      -0.240  10.678  22.428  0.00  0.00    +0.000 A 
ATOM     11  C   UNL     1       0.390  11.205  21.304  0.00  0.00    +0.000 A 
ATOM     12  C   UNL     1       0.912  10.350  20.332  0.00  0.00    +0.000 A 
ATOM     13  N   UNL     1       1.546  10.931  19.227  0.00  0.00    +0.000 N 
ATOM     14  H   UNL     1       1.702  11.929  19.183  0.00  0.00    +0.000 HD
ENDROOT
BRANCH   5  15
ATOM     15  C   UNL     1       2.502   5.948  18.711  0.00  0.00    +0.000 A 
ATOM     16  C   UNL     1       1.929   4.689  18.467  0.00  0.00    +0.000 A 
ATOM     17  C   UNL     1       2.527   3.802  17.572  0.00  0.00    +0.000 A 
ATOM     18  C   UNL     1       3.708   4.164  16.926  0.00  0.00    +0.000 A 
ATOM     19  C   UNL     1       4.218   5.456  17.082  0.00  0.00    +0.000 A 
ATOM     20  C   UNL     1       3.600   6.354  17.951  0.00  0.00    +0.000 A 
BRANCH  19  21
ATOM     21  O   UNL     1       5.379   5.913  16.503  0.00  0.00    +0.000 OA
BRANCH  21  22
ATOM     22  C   UNL     1       6.396   6.387  17.297  0.00  0.00    +0.000 A 
ATOM     23  C   UNL     1       6.925   7.675  17.202  0.00  0.00    +0.000 A 
ATOM     24  C   UNL     1       7.982   8.055  18.029  0.00  0.00    +0.000 A 
ATOM     25  C   UNL     1       8.466   7.169  18.989  0.00  0.00    +0.000 A 
ATOM     26  C   UNL     1       7.892   5.904  19.130  0.00  0.00    +0.000 A 
ATOM     27  C   UNL     1       6.857   5.513  18.282  0.00  0.00    +0.000 A 
ENDBRANCH  21  22
ENDBRANCH  19  21
ENDBRANCH   5  15
TORSDOF 3
ENDMDL
MODEL 6
REMARK VINA RESULT:      -8.3      1.864      2.167
REMARK  Name = 
REMARK  3 active torsions:
REMARK  status: ('A' for Active; 'I' for Inactive)
REMARK    1  A    between atoms: C_5  and  C_7
REMARK    2  A    between atoms: C_11  and  O_12
REMARK    3  A    between atoms: O_12  and  C_13
REMARK                            x       y       z     vdW  Elec       q    Type
REMARK                         _______ _______ _______ _____ _____    ______ ____
ROOT
ATOM      1  O   UNL     1       1.830  14.452  20.116  0.00  0.00    +0.000 OA
ATOM      2  C   UNL     1       0.959  13.802  20.691  0.00  0.00    +0.000 C 
ATOM      3  C   UNL     1       0.427  12.488  20.149  0.00  0.00    +0.000 C 
ATOM      4  N   UNL     1      -0.242  11.604  21.123  0.00  0.00    +0.000 N 
ATOM      5  C   UNL     1      -0.068  10.204  21.171  0.00  0.00    +0.000 C 
ATOM      6  O   UNL     1      -0.488   9.476  22.073  0.00  0.00    +0.000 OA
ATOM      7  C   UNL     1      -1.037  12.299  22.103  0.00  0.00    +0.000 A 
ATOM      8  C   UNL     1      -2.083  11.685  22.802  0.00  0.00    +0.000 A 
ATOM      9  C   UNL     1      -2.818  12.391  23.761  0.00  0.00    +0.000 A 
ATOM     10  C   UNL     1      -2.514  13.717  24.052  0.00  0.00    +0.000 A 
ATOM     11  C   UNL     1      -1.475  14.347  23.373  0.00  0.00    +0.000 A 
ATOM     12  C   UNL     1      -0.755  13.650  22.401  0.00  0.00    +0.000 A 
ATOM     13  N   UNL     1       0.287  14.324  21.755  0.00  0.00    +0.000 N 
ATOM     14  H   UNL     1       0.569  15.249  22.049  0.00  0.00    +0.000 HD
ENDROOT
BRANCH   5  15
ATOM     15  C   UNL     1       0.753   9.509  20.138  0.00  0.00    +0.000 A 
ATOM     16  C   UNL     1       0.710   9.987  18.818  0.00  0.00    +0.000 A 
ATOM     17  C   UNL     1       1.360   9.297  17.795  0.00  0.00    +0.000 A 
ATOM     18  C   UNL     1       2.047   8.119  18.084  0.00  0.00    +0.000 A 
ATOM     19  C   UNL     1       2.184   7.702  19.412  0.00  0.00    +0.000 A 
ATOM     20  C   UNL     1       1.562   8.412  20.437  0.00  0.00    +0.000 A 
BRANCH  19  21
ATOM     21  O   UNL     1       2.828   6.553  19.807  0.00  0.00    +0.000 OA
BRANCH  21  22
ATOM     22  C   UNL     1       2.255   5.329  19.554  0.00  0.00    +0.000 A 
ATOM     23  C   UNL     1       2.310   4.683  18.318  0.00  0.00    +0.000 A 
ATOM     24  C   UNL     1       1.668   3.456  18.147  0.00  0.00    +0.000 A 
ATOM     25  C   UNL     1       1.025   2.852  19.225  0.00  0.00    +0.000 A 
ATOM     26  C   UNL     1       1.027   3.467  20.478  0.00  0.00    +0.000 A 
ATOM     27  C   UNL     1       1.642   4.707  20.643  0.00  0.00    +0.000 A 
ENDBRANCH  21  22
ENDBRANCH  19  21
ENDBRANCH   5  15
TORSDOF 3
ENDMDL
MODEL 7
REMARK VINA RESULT:      -8.2      3.056      4.952
REMARK  Name = 
REMARK  3 active torsions:
REMARK  status: ('A' for Active; 'I' for Inactive)
REMARK    1  A    between atoms: C_5  and  C_7
REMARK    2  A    between atoms: C_11  and  O_12
REMARK    3  A    between atoms: O_12  and  C_13
REMARK                            x       y       z     vdW  Elec       q    Type
REMARK                         _______ _______ _______ _____ _____    ______ ____
ROOT
ATOM      1  O   UNL     1       2.519  10.559  17.356  0.00  0.00    +0.000 OA
ATOM      2  C   UNL     1       1.977  10.041  18.331  0.00  0.00    +0.000 C 
ATOM      3  C   UNL     1       1.601   8.572  18.374  0.00  0.00    +0.000 C 
ATOM      4  N   UNL     1       1.401   7.989  19.714  0.00  0.00    +0.000 N 
ATOM      5  C   UNL     1       1.862   6.711  20.098  0.00  0.00    +0.000 C 
ATOM      6  O   UNL     1       1.847   6.278  21.252  0.00  0.00    +0.000 OA
ATOM      7  C   UNL     1       0.763   8.874  20.655  0.00  0.00    +0.000 A 
ATOM      8  C   UNL     1       0.082   8.412  21.787  0.00  0.00    +0.000 A 
ATOM      9  C   UNL     1      -0.506   9.308  22.686  0.00  0.00    +0.000 A 
ATOM     10  C   UNL     1      -0.413  10.681  22.483  0.00  0.00    +0.000 A 
ATOM     11  C   UNL     1       0.265  11.164  21.367  0.00  0.00    +0.000 A 
ATOM     12  C   UNL     1       0.833  10.271  20.457  0.00  0.00    +0.000 A 
ATOM     13  N   UNL     1       1.513  10.807  19.358  0.00  0.00    +0.000 N 
ATOM     14  H   UNL     1       1.667  11.802  19.277  0.00  0.00    +0.000 HD
ENDROOT
BRANCH   5  15
ATOM     15  C   UNL     1       2.510   5.811  19.100  0.00  0.00    +0.000 A 
ATOM     16  C   UNL     1       1.688   5.068  18.238  0.00  0.00    +0.000 A 
ATOM     17  C   UNL     1       2.242   4.122  17.375  0.00  0.00    +0.000 A 
ATOM     18  C   UNL     1       3.619   3.905  17.380  0.00  0.00    +0.000 A 
ATOM     19  C   UNL     1       4.449   4.720  18.157  0.00  0.00    +0.000 A 
ATOM     20  C   UNL     1       3.896   5.689  18.993  0.00  0.00    +0.000 A 
BRANCH  19  21
ATOM     21  O   UNL     1       5.815   4.586  18.245  0.00  0.00    +0.000 OA
BRANCH  21  22
ATOM     22  C   UNL     1       6.612   5.705  18.213  0.00  0.00    +0.000 A 
ATOM     23  C   UNL     1       7.680   5.927  19.085  0.00  0.00    +0.000 A 
ATOM     24  C   UNL     1       8.412   7.111  18.998  0.00  0.00    +0.000 A 
ATOM     25  C   UNL     1       8.115   8.041  18.004  0.00  0.00    +0.000 A 
ATOM     26  C   UNL     1       7.091   7.788  17.090  0.00  0.00    +0.000 A 
ATOM     27  C   UNL     1       6.338   6.619  17.195  0.00  0.00    +0.000 A 
ENDBRANCH  21  22
ENDBRANCH  19  21
ENDBRANCH   5  15
TORSDOF 3
ENDMDL
MODEL 8
REMARK VINA RESULT:      -8.2      3.286      8.681
REMARK  Name = 
REMARK  3 active torsions:
REMARK  status: ('A' for Active; 'I' for Inactive)
REMARK    1  A    between atoms: C_5  and  C_7
REMARK    2  A    between atoms: C_11  and  O_12
REMARK    3  A    between atoms: O_12  and  C_13
REMARK                            x       y       z     vdW  Elec       q    Type
REMARK                         _______ _______ _______ _____ _____    ______ ____
ROOT
ATOM      1  O   UNL     1       2.056   3.009  19.280  0.00  0.00    +0.000 OA
ATOM      2  C   UNL     1       2.727   3.682  18.500  0.00  0.00    +0.000 C 
ATOM      3  C   UNL     1       2.320   5.078  18.064  0.00  0.00    +0.000 C 
ATOM      4  N   UNL     1       3.395   5.932  17.525  0.00  0.00    +0.000 N 
ATOM      5  C   UNL     1       3.542   7.303  17.827  0.00  0.00    +0.000 C 
ATOM      6  O   UNL     1       4.520   7.988  17.519  0.00  0.00    +0.000 OA
ATOM      7  C   UNL     1       4.360   5.230  16.718  0.00  0.00    +0.000 A 
ATOM      8  C   UNL     1       5.162   5.872  15.767  0.00  0.00    +0.000 A 
ATOM      9  C   UNL     1       6.101   5.156  15.019  0.00  0.00    +0.000 A 
ATOM     10  C   UNL     1       6.272   3.788  15.215  0.00  0.00    +0.000 A 
ATOM     11  C   UNL     1       5.489   3.130  16.159  0.00  0.00    +0.000 A 
ATOM     12  C   UNL     1       4.536   3.840  16.891  0.00  0.00    +0.000 A 
ATOM     13  N   UNL     1       3.782   3.134  17.836  0.00  0.00    +0.000 N 
ATOM     14  H   UNL     1       3.988   2.167  18.046  0.00  0.00    +0.000 HD
ENDROOT
BRANCH   5  15
ATOM     15  C   UNL     1       2.522   8.007  18.656  0.00  0.00    +0.000 A 
ATOM     16  C   UNL     1       2.182   7.460  19.904  0.00  0.00    +0.000 A 
ATOM     17  C   UNL     1       1.146   8.011  20.659  0.00  0.00    +0.000 A 
ATOM     18  C   UNL     1       0.436   9.104  20.164  0.00  0.00    +0.000 A 
ATOM     19  C   UNL     1       0.844   9.717  18.975  0.00  0.00    +0.000 A 
ATOM     20  C   UNL     1       1.902   9.186  18.239  0.00  0.00    +0.000 A 
BRANCH  19  21
ATOM     21  O   UNL     1       0.210  10.790  18.392  0.00  0.00    +0.000 OA
BRANCH  21  22
ATOM     22  C   UNL     1      -1.155  10.768  18.230  0.00  0.00    +0.000 A 
ATOM     23  C   UNL     1      -2.032  11.636  18.882  0.00  0.00    +0.000 A 
ATOM     24  C   UNL     1      -3.407  11.516  18.679  0.00  0.00    +0.000 A 
ATOM     25  C   UNL     1      -3.897  10.570  17.781  0.00  0.00    +0.000 A 
ATOM     26  C   UNL     1      -3.016   9.747  17.078  0.00  0.00    +0.000 A 
ATOM     27  C   UNL     1      -1.643   9.846  17.303  0.00  0.00    +0.000 A 
ENDBRANCH  21  22
ENDBRANCH  19  21
ENDBRANCH   5  15
TORSDOF 3
ENDMDL
MODEL 9
REMARK VINA RESULT:      -8.1      3.072      8.477
REMARK  Name = 
REMARK  3 active torsions:
REMARK  status: ('A' for Active; 'I' for Inactive)
REMARK    1  A    between atoms: C_5  and  C_7
REMARK    2  A    between atoms: C_11  and  O_12
REMARK    3  A    between atoms: O_12  and  C_13
REMARK                            x       y       z     vdW  Elec       q    Type
REMARK                         _______ _______ _______ _____ _____    ______ ____
ROOT
ATOM      1  O   UNL     1       1.524   3.274  19.553  0.00  0.00    +0.000 OA
ATOM      2  C   UNL     1       2.248   3.906  18.787  0.00  0.00    +0.000 C 
ATOM      3  C   UNL     1       1.916   5.311  18.318  0.00  0.00    +0.000 C 
ATOM      4  N   UNL     1       3.044   6.110  17.805  0.00  0.00    +0.000 N 
ATOM      5  C   UNL     1       3.240   7.479  18.093  0.00  0.00    +0.000 C 
ATOM      6  O   UNL     1       4.255   8.116  17.809  0.00  0.00    +0.000 OA
ATOM      7  C   UNL     1       4.004   5.357  17.041  0.00  0.00    +0.000 A 
ATOM      8  C   UNL     1       4.864   5.950  16.109  0.00  0.00    +0.000 A 
ATOM      9  C   UNL     1       5.796   5.183  15.403  0.00  0.00    +0.000 A 
ATOM     10  C   UNL     1       5.901   3.813  15.623  0.00  0.00    +0.000 A 
ATOM     11  C   UNL     1       5.061   3.202  16.549  0.00  0.00    +0.000 A 
ATOM     12  C   UNL     1       4.114   3.963  17.238  0.00  0.00    +0.000 A 
ATOM     13  N   UNL     1       3.300   3.303  18.167  0.00  0.00    +0.000 N 
ATOM     14  H   UNL     1       3.457   2.332  18.397  0.00  0.00    +0.000 HD
ENDROOT
BRANCH   5  15
ATOM     15  C   UNL     1       2.223   8.238  18.878  0.00  0.00    +0.000 A 
ATOM     16  C   UNL     1       1.899   7.784  20.167  0.00  0.00    +0.000 A 
ATOM     17  C   UNL     1       0.867   8.385  20.889  0.00  0.00    +0.000 A 
ATOM     18  C   UNL     1       0.146   9.434  20.320  0.00  0.00    +0.000 A 
ATOM     19  C   UNL     1       0.539   9.958  19.085  0.00  0.00    +0.000 A 
ATOM     20  C   UNL     1       1.593   9.379  18.380  0.00  0.00    +0.000 A 
BRANCH  19  21
ATOM     21  O   UNL     1      -0.106  10.981  18.430  0.00  0.00    +0.000 OA
BRANCH  21  22
ATOM     22  C   UNL     1      -1.433  10.845  18.094  0.00  0.00    +0.000 A 
ATOM     23  C   UNL     1      -1.916   9.890  17.199  0.00  0.00    +0.000 A 
ATOM     24  C   UNL     1      -3.277   9.850  16.893  0.00  0.00    +0.000 A 
ATOM     25  C   UNL     1      -4.157  10.724  17.528  0.00  0.00    +0.000 A 
ATOM     26  C   UNL     1      -3.683  11.634  18.473  0.00  0.00    +0.000 A 
ATOM     27  C   UNL     1      -2.319  11.695  18.756  0.00  0.00    +0.000 A 
ENDBRANCH  21  22
ENDBRANCH  19  21
ENDBRANCH   5  15
TORSDOF 3
ENDMDL
