MODEL 1
REMARK VINA RESULT:      -8.8      0.000      0.000
REMARK  Name = 
REMARK  5 active torsions:
REMARK  status: ('A' for Active; 'I' for Inactive)
REMARK    1  A    between atoms: C_2  and  C_21
REMARK    2  A    between atoms: N_3  and  C_4
REMARK    3  A    between atoms: C_7  and  N_8
REMARK    4  A    between atoms: N_8  and  S_9
REMARK    5  A    between atoms: S_9  and  C_12
REMARK                            x       y       z     vdW  Elec       q    Type
REMARK                         _______ _______ _______ _____ _____    ______ ____
ROOT
ATOM      1  C   UNL     1       1.734   8.311  19.644  0.00  0.00    +0.000 A 
ATOM      2  C   UNL     1       2.368   8.088  18.425  0.00  0.00    +0.000 A 
ATOM      3  C   UNL     1       2.901   6.822  18.084  0.00  0.00    +0.000 A 
ATOM      4  C   UNL     1       2.773   5.778  19.000  0.00  0.00    +0.000 A 
ATOM      5  C   UNL     1       2.153   5.997  20.236  0.00  0.00    +0.000 A 
ATOM      6  C   UNL     1       1.633   7.260  20.553  0.00  0.00    +0.000 A 
ENDROOT
BRANCH   1   9
ATOM      7  O   UNL     1      -0.108   9.975  18.118  0.00  0.00    +0.000 OA
ATOM      8  C   UNL     1       0.301  10.323  19.231  0.00  0.00    +0.000 C 
ATOM      9  N   UNL     1       1.171   9.560  19.995  0.00  0.00    +0.000 N 
ATOM     10  H   UNL     1       1.373   9.934  20.939  0.00  0.00    +0.000 HD
BRANCH   8  11
ATOM     11  C   UNL     1      -0.264  11.598  19.768  0.00  0.00    +0.000 A 
ATOM     12  C   UNL     1      -0.123  12.724  18.925  0.00  0.00    +0.000 A 
ATOM     13  C   UNL     1      -0.770  13.919  19.198  0.00  0.00    +0.000 A 
ATOM     14  C   UNL     1      -1.694  13.940  20.224  0.00  0.00    +0.000 A 
ATOM     15  C   UNL     1      -1.821  12.833  21.079  0.00  0.00    +0.000 A 
ATOM     16  C   UNL     1      -2.748  12.870  22.114  0.00  0.00    +0.000 A 
ATOM     17  C   UNL     1      -2.480  12.154  23.260  0.00  0.00    +0.000 A 
ATOM     18  C   UNL     1      -1.515  11.173  23.174  0.00  0.00    +0.000 A 
ATOM     19  N   UNL     1      -0.873  10.843  22.022  0.00  0.00    +0.000 NA
ATOM     20  C   UNL     1      -0.975  11.708  20.974  0.00  0.00    +0.000 A 
ENDBRANCH   8  11
ENDBRANCH   1   9
BRANCH   4  21
ATOM     21  N   UNL     1       3.294   4.488  18.705  0.00  0.00    +0.000 N 
ATOM     22  H   UNL     1       2.971   4.032  17.849  0.00  0.00    +0.000 HD
BRANCH  21  23
ATOM     23  S   UNL     1       4.934   4.195  18.982  0.00  0.00    +0.000 S 
ATOM     24  O   UNL     1       5.430   5.323  19.748  0.00  0.00    +0.000 OA
ATOM     25  O   UNL     1       5.099   2.840  19.471  0.00  0.00    +0.000 OA
BRANCH  23  26
ATOM     26  C   UNL     1       5.626   4.316  17.355  0.00  0.00    +0.000 A 
ATOM     27  C   UNL     1       6.979   4.647  17.223  0.00  0.00    +0.000 A 
ATOM     28  C   UNL     1       7.511   4.840  15.948  0.00  0.00    +0.000 A 
ATOM     29  C   UNL     1       6.695   4.683  14.831  0.00  0.00    +0.000 A 
ATOM     30  F   UNL     1       7.207   4.889  13.610  0.00  0.00    +0.000 F 
ATOM     31  C   UNL     1       5.353   4.330  14.960  0.00  0.00    +0.000 A 
ATOM     32  C   UNL     1       4.811   4.143  16.232  0.00  0.00    +0.000 A 
ENDBRANCH  23  26
ENDBRANCH  21  23
ENDBRANCH   4  21
TORSDOF 5
ENDMDL
MODEL 2
REMARK VINA RESULT:      -8.6      1.537      2.370
REMARK  Name = 
REMARK  5 active torsions:
REMARK  status: ('A' for Active; 'I' for Inactive)
REMARK    1  A    between atoms: C_2  and  C_21
REMARK    2  A    between atoms: N_3  and  C_4
REMARK    3  A    between atoms: C_7  and  N_8
REMARK    4  A    between atoms: N_8  and  S_9
REMARK    5  A    between atoms: S_9  and  C_12
REMARK                            x       y       z     vdW  Elec       q    Type
REMARK                         _______ _______ _______ _____ _____    ______ ____
ROOT
ATOM      1  C   UNL     1       1.498   8.105  19.843  0.00  0.00    +0.000 A 
ATOM      2  C   UNL     1       2.225   8.011  18.658  0.00  0.00    +0.000 A 
ATOM      3  C   UNL     1       2.870   6.811  18.274  0.00  0.00    +0.000 A 
ATOM      4  C   UNL     1       2.758   5.699  19.110  0.00  0.00    +0.000 A 
ATOM      5  C   UNL     1       2.046   5.790  20.311  0.00  0.00    +0.000 A 
ATOM      6  C   UNL     1       1.415   6.989  20.673  0.00  0.00    +0.000 A 
ENDROOT
BRANCH   1   9
ATOM      7  O   UNL     1       1.590   9.497  22.401  0.00  0.00    +0.000 OA
ATOM      8  C   UNL     1       0.892   9.911  21.469  0.00  0.00    +0.000 C 
ATOM      9  N   UNL     1       0.824   9.285  20.233  0.00  0.00    +0.000 N 
ATOM     10  H   UNL     1       0.261   9.779  19.519  0.00  0.00    +0.000 HD
BRANCH   8  11
ATOM     11  C   UNL     1       0.169  11.196  21.711  0.00  0.00    +0.000 A 
ATOM     12  C   UNL     1      -0.914  11.119  22.617  0.00  0.00    +0.000 A 
ATOM     13  C   UNL     1      -1.545  12.258  23.091  0.00  0.00    +0.000 A 
ATOM     14  C   UNL     1      -0.987  13.485  22.789  0.00  0.00    +0.000 A 
ATOM     15  C   UNL     1       0.073  13.569  21.870  0.00  0.00    +0.000 A 
ATOM     16  C   UNL     1       0.619  14.811  21.568  0.00  0.00    +0.000 A 
ATOM     17  C   UNL     1       1.160  15.001  20.315  0.00  0.00    +0.000 A 
ATOM     18  C   UNL     1       1.453  13.872  19.581  0.00  0.00    +0.000 A 
ATOM     19  N   UNL     1       1.298  12.604  20.049  0.00  0.00    +0.000 NA
ATOM     20  C   UNL     1       0.551  12.437  21.177  0.00  0.00    +0.000 A 
ENDBRANCH   8  11
ENDBRANCH   1   9
BRANCH   4  21
ATOM     21  N   UNL     1       3.391   4.471  18.770  0.00  0.00    +0.000 N 
ATOM     22  H   UNL     1       3.095   4.012  17.907  0.00  0.00    +0.000 HD
BRANCH  21  23
ATOM     23  S   UNL     1       5.055   4.324  19.013  0.00  0.00    +0.000 S 
ATOM     24  O   UNL     1       5.481   5.534  19.690  0.00  0.00    +0.000 OA
ATOM     25  O   UNL     1       5.339   3.020  19.579  0.00  0.00    +0.000 OA
BRANCH  23  26
ATOM     26  C   UNL     1       5.692   4.391  17.359  0.00  0.00    +0.000 A 
ATOM     27  C   UNL     1       7.047   4.687  17.173  0.00  0.00    +0.000 A 
ATOM     28  C   UNL     1       7.538   4.838  15.875  0.00  0.00    +0.000 A 
ATOM     29  C   UNL     1       6.679   4.676  14.792  0.00  0.00    +0.000 A 
ATOM     30  F   UNL     1       7.151   4.843  13.549  0.00  0.00    +0.000 F 
ATOM     31  C   UNL     1       5.334   4.359  14.976  0.00  0.00    +0.000 A 
ATOM     32  C   UNL     1       4.833   4.213  16.270  0.00  0.00    +0.000 A 
ENDBRANCH  23  26
ENDBRANCH  21  23
ENDBRANCH   4  21
TORSDOF 5
ENDMDL
MODEL 3
REMARK VINA RESULT:      -8.6      6.499      8.317
REMARK  Name = 
REMARK  5 active torsions:
REMARK  status: ('A' for Active; 'I' for Inactive)
REMARK    1  A    between atoms: C_2  and  C_21
REMARK    2  A    between atoms: N_3  and  C_4
REMARK    3  A    between atoms: C_7  and  N_8
REMARK    4  A    between atoms: N_8  and  S_9
REMARK    5  A    between atoms: S_9  and  C_12
REMARK                            x       y       z     vdW  Elec       q    Type
REMARK                         _______ _______ _______ _____ _____    ______ ____
ROOT
ATOM      1  C   UNL     1       8.096   7.361  18.537  0.00  0.00    +0.000 A 
ATOM      2  C   UNL     1       7.422   7.214  17.327  0.00  0.00    +0.000 A 
ATOM      3  C   UNL     1       6.551   6.124  17.087  0.00  0.00    +0.000 A 
ATOM      4  C   UNL     1       6.365   5.186  18.103  0.00  0.00    +0.000 A 
ATOM      5  C   UNL     1       7.051   5.315  19.316  0.00  0.00    +0.000 A 
ATOM      6  C   UNL     1       7.910   6.403  19.532  0.00  0.00    +0.000 A 
ENDROOT
BRANCH   1   9
ATOM      7  O   UNL     1       7.750  10.165  17.824  0.00  0.00    +0.000 OA
ATOM      8  C   UNL     1       8.748   9.777  18.441  0.00  0.00    +0.000 C 
ATOM      9  N   UNL     1       8.950   8.455  18.807  0.00  0.00    +0.000 N 
ATOM     10  H   UNL     1       9.790   8.280  19.386  0.00  0.00    +0.000 HD
BRANCH   8  11
ATOM     11  C   UNL     1       9.714  10.837  18.860  0.00  0.00    +0.000 A 
ATOM     12  C   UNL     1      10.778  11.076  17.959  0.00  0.00    +0.000 A 
ATOM     13  C   UNL     1      11.630  12.158  18.113  0.00  0.00    +0.000 A 
ATOM     14  C   UNL     1      11.319  13.100  19.074  0.00  0.00    +0.000 A 
ATOM     15  C   UNL     1      10.279  12.856  19.987  0.00  0.00    +0.000 A 
ATOM     16  C   UNL     1       9.983  13.808  20.956  0.00  0.00    +0.000 A 
ATOM     17  C   UNL     1       9.467  13.380  22.159  0.00  0.00    +0.000 A 
ATOM     18  C   UNL     1       8.943  12.105  22.198  0.00  0.00    +0.000 A 
ATOM     19  N   UNL     1       8.854  11.291  21.112  0.00  0.00    +0.000 NA
ATOM     20  C   UNL     1       9.575  11.634  20.008  0.00  0.00    +0.000 A 
ENDBRANCH   8  11
ENDBRANCH   1   9
BRANCH   4  21
ATOM     21  N   UNL     1       5.502   4.072  17.910  0.00  0.00    +0.000 N 
ATOM     22  H   UNL     1       5.593   3.287  18.559  0.00  0.00    +0.000 HD
BRANCH  21  23
ATOM     23  S   UNL     1       3.888   4.359  17.506  0.00  0.00    +0.000 S 
ATOM     24  O   UNL     1       3.711   5.799  17.514  0.00  0.00    +0.000 OA
ATOM     25  O   UNL     1       3.545   3.579  16.334  0.00  0.00    +0.000 OA
BRANCH  23  26
ATOM     26  C   UNL     1       3.019   3.713  18.910  0.00  0.00    +0.000 A 
ATOM     27  C   UNL     1       1.654   3.991  19.043  0.00  0.00    +0.000 A 
ATOM     28  C   UNL     1       0.983   3.570  20.191  0.00  0.00    +0.000 A 
ATOM     29  C   UNL     1       1.674   2.868  21.174  0.00  0.00    +0.000 A 
ATOM     30  F   UNL     1       1.029   2.485  22.284  0.00  0.00    +0.000 F 
ATOM     31  C   UNL     1       3.028   2.570  21.033  0.00  0.00    +0.000 A 
ATOM     32  C   UNL     1       3.710   2.993  19.891  0.00  0.00    +0.000 A 
ENDBRANCH  23  26
ENDBRANCH  21  23
ENDBRANCH   4  21
TORSDOF 5
ENDMDL
MODEL 4
REMARK VINA RESULT:      -8.5      5.745      7.996
REMARK  Name = 
REMARK  5 active torsions:
REMARK  status: ('A' for Active; 'I' for Inactive)
REMARK    1  A    between atoms: C_2  and  C_21
REMARK    2  A    between atoms: N_3  and  C_4
REMARK    3  A    between atoms: C_7  and  N_8
REMARK    4  A    between atoms: N_8  and  S_9
REMARK    5  A    between atoms: S_9  and  C_12
REMARK                            x       y       z     vdW  Elec       q    Type
REMARK                         _______ _______ _______ _____ _____    ______ ____
ROOT
ATOM      1  C   UNL     1       8.152   7.403  18.549  0.00  0.00    +0.000 A 
ATOM      2  C   UNL     1       7.478   7.470  17.332  0.00  0.00    +0.000 A 
ATOM      3  C   UNL     1       6.663   6.408  16.873  0.00  0.00    +0.000 A 
ATOM      4  C   UNL     1       6.534   5.274  17.675  0.00  0.00    +0.000 A 
ATOM      5  C   UNL     1       7.221   5.189  18.891  0.00  0.00    +0.000 A 
ATOM      6  C   UNL     1       8.024   6.253  19.327  0.00  0.00    +0.000 A 
ENDROOT
BRANCH   1   9
ATOM      7  O   UNL     1       8.074  10.227  17.837  0.00  0.00    +0.000 OA
ATOM      8  C   UNL     1       8.882   9.796  18.666  0.00  0.00    +0.000 C 
ATOM      9  N   UNL     1       8.950   8.462  19.041  0.00  0.00    +0.000 N 
ATOM     10  H   UNL     1       9.621   8.250  19.800  0.00  0.00    +0.000 HD
BRANCH   8  11
ATOM     11  C   UNL     1       9.752  10.815  19.327  0.00  0.00    +0.000 A 
ATOM     12  C   UNL     1      10.935  11.147  18.625  0.00  0.00    +0.000 A 
ATOM     13  C   UNL     1      11.731  12.213  19.011  0.00  0.00    +0.000 A 
ATOM     14  C   UNL     1      11.260  13.054  19.999  0.00  0.00    +0.000 A 
ATOM     15  C   UNL     1      10.099  12.717  20.716  0.00  0.00    +0.000 A 
ATOM     16  C   UNL     1       9.641  13.567  21.715  0.00  0.00    +0.000 A 
ATOM     17  C   UNL     1       8.958  13.020  22.779  0.00  0.00    +0.000 A 
ATOM     18  C   UNL     1       8.460  11.745  22.615  0.00  0.00    +0.000 A 
ATOM     19  N   UNL     1       8.553  11.040  21.455  0.00  0.00    +0.000 NA
ATOM     20  C   UNL     1       9.425  11.494  20.511  0.00  0.00    +0.000 A 
ENDBRANCH   8  11
ENDBRANCH   1   9
BRANCH   4  21
ATOM     21  N   UNL     1       5.729   4.179  17.256  0.00  0.00    +0.000 N 
ATOM     22  H   UNL     1       6.204   3.379  16.834  0.00  0.00    +0.000 HD
BRANCH  21  23
ATOM     23  S   UNL     1       4.449   3.690  18.244  0.00  0.00    +0.000 S 
ATOM     24  O   UNL     1       3.552   2.921  17.404  0.00  0.00    +0.000 OA
ATOM     25  O   UNL     1       4.983   3.125  19.467  0.00  0.00    +0.000 OA
BRANCH  23  26
ATOM     26  C   UNL     1       3.642   5.225  18.614  0.00  0.00    +0.000 A 
ATOM     27  C   UNL     1       3.125   5.419  19.900  0.00  0.00    +0.000 A 
ATOM     28  C   UNL     1       2.404   6.581  20.175  0.00  0.00    +0.000 A 
ATOM     29  C   UNL     1       2.225   7.533  19.175  0.00  0.00    +0.000 A 
ATOM     30  F   UNL     1       1.514   8.637  19.439  0.00  0.00    +0.000 F 
ATOM     31  C   UNL     1       2.760   7.351  17.900  0.00  0.00    +0.000 A 
ATOM     32  C   UNL     1       3.476   6.189  17.615  0.00  0.00    +0.000 A 
ENDBRANCH  23  26
ENDBRANCH  21  23
ENDBRANCH   4  21
TORSDOF 5
ENDMDL
MODEL 5
REMARK VINA RESULT:      -8.5      1.379      2.631
REMARK  Name = 
REMARK  5 active torsions:
REMARK  status: ('A' for Active; 'I' for Inactive)
REMARK    1  A    between atoms: C_2  and  C_21
REMARK    2  A    between atoms: N_3  and  C_4
REMARK    3  A    between atoms: C_7  and  N_8
REMARK    4  A    between atoms: N_8  and  S_9
REMARK    5  A    between atoms: S_9  and  C_12
REMARK                            x       y       z     vdW  Elec       q    Type
REMARK                         _______ _______ _______ _____ _____    ______ ____
ROOT
ATOM      1  C   UNL     1       1.864   8.623  19.166  0.00  0.00    +0.000 A 
ATOM      2  C   UNL     1       1.714   7.692  20.190  0.00  0.00    +0.000 A 
ATOM      3  C   UNL     1       2.182   6.362  20.061  0.00  0.00    +0.000 A 
ATOM      4  C   UNL     1       2.816   5.992  18.874  0.00  0.00    +0.000 A 
ATOM      5  C   UNL     1       2.955   6.916  17.832  0.00  0.00    +0.000 A 
ATOM      6  C   UNL     1       2.483   8.229  17.981  0.00  0.00    +0.000 A 
ENDROOT
BRANCH   1   9
ATOM      7  O   UNL     1      -0.556   9.854  18.106  0.00  0.00    +0.000 OA
ATOM      8  C   UNL     1       0.268  10.509  18.753  0.00  0.00    +0.000 C 
ATOM      9  N   UNL     1       1.428   9.963  19.283  0.00  0.00    +0.000 N 
ATOM     10  H   UNL     1       1.991  10.606  19.867  0.00  0.00    +0.000 HD
BRANCH   8  11
ATOM     11  C   UNL     1      -0.091  11.935  19.020  0.00  0.00    +0.000 A 
ATOM     12  C   UNL     1      -1.419  12.152  19.454  0.00  0.00    +0.000 A 
ATOM     13  C   UNL     1      -1.833  13.387  19.929  0.00  0.00    +0.000 A 
ATOM     14  C   UNL     1      -0.876  14.362  20.130  0.00  0.00    +0.000 A 
ATOM     15  C   UNL     1       0.439  14.160  19.678  0.00  0.00    +0.000 A 
ATOM     16  C   UNL     1       1.390  15.154  19.878  0.00  0.00    +0.000 A 
ATOM     17  C   UNL     1       2.418  15.268  18.968  0.00  0.00    +0.000 A 
ATOM     18  C   UNL     1       2.646  14.189  18.141  0.00  0.00    +0.000 A 
ATOM     19  N   UNL     1       1.961  13.016  18.221  0.00  0.00    +0.000 NA
ATOM     20  C   UNL     1       0.810  13.009  18.951  0.00  0.00    +0.000 A 
ENDBRANCH   8  11
ENDBRANCH   1   9
BRANCH   4  21
ATOM     21  N   UNL     1       3.301   4.667  18.695  0.00  0.00    +0.000 N 
ATOM     22  H   UNL     1       2.955   4.144  17.888  0.00  0.00    +0.000 HD
BRANCH  21  23
ATOM     23  S   UNL     1       4.936   4.358  18.979  0.00  0.00    +0.000 S 
ATOM     24  O   UNL     1       5.453   5.508  19.697  0.00  0.00    +0.000 OA
ATOM     25  O   UNL     1       5.080   3.022  19.522  0.00  0.00    +0.000 OA
BRANCH  23  26
ATOM     26  C   UNL     1       5.626   4.401  17.347  0.00  0.00    +0.000 A 
ATOM     27  C   UNL     1       6.977   4.732  17.196  0.00  0.00    +0.000 A 
ATOM     28  C   UNL     1       7.506   4.863  15.912  0.00  0.00    +0.000 A 
ATOM     29  C   UNL     1       6.689   4.648  14.806  0.00  0.00    +0.000 A 
ATOM     30  F   UNL     1       7.198   4.795  13.575  0.00  0.00    +0.000 F 
ATOM     31  C   UNL     1       5.349   4.296  14.955  0.00  0.00    +0.000 A 
ATOM     32  C   UNL     1       4.809   4.169  16.235  0.00  0.00    +0.000 A 
ENDBRANCH  23  26
ENDBRANCH  21  23
ENDBRANCH   4  21
TORSDOF 5
ENDMDL
MODEL 6
REMARK VINA RESULT:      -8.4      6.369      8.309
REMARK  Name = 
REMARK  5 active torsions:
REMARK  status: ('A' for Active; 'I' for Inactive)
REMARK    1  A    between atoms: C_2  and  C_21
REMARK    2  A    between atoms: N_3  and  C_4
REMARK    3  A    between atoms: C_7  and  N_8
REMARK    4  A    between atoms: N_8  and  S_9
REMARK    5  A    between atoms: S_9  and  C_12
REMARK                            x       y       z     vdW  Elec       q    Type
REMARK                         _______ _______ _______ _____ _____    ______ ____
ROOT
ATOM      1  C   UNL     1       8.049   7.290  18.564  0.00  0.00    +0.000 A 
ATOM      2  C   UNL     1       7.778   6.348  19.554  0.00  0.00    +0.000 A 
ATOM      3  C   UNL     1       6.934   5.237  19.312  0.00  0.00    +0.000 A 
ATOM      4  C   UNL     1       6.376   5.090  18.042  0.00  0.00    +0.000 A 
ATOM      5  C   UNL     1       6.628   6.041  17.047  0.00  0.00    +0.000 A 
ATOM      6  C   UNL     1       7.466   7.135  17.308  0.00  0.00    +0.000 A 
ENDROOT
BRANCH   1   9
ATOM      7  O   UNL     1       7.651  10.081  17.828  0.00  0.00    +0.000 OA
ATOM      8  C   UNL     1       8.681   9.708  18.400  0.00  0.00    +0.000 C 
ATOM      9  N   UNL     1       8.909   8.393  18.775  0.00  0.00    +0.000 N 
ATOM     10  H   UNL     1       9.779   8.232  19.313  0.00  0.00    +0.000 HD
BRANCH   8  11
ATOM     11  C   UNL     1       9.660  10.780  18.753  0.00  0.00    +0.000 A 
ATOM     12  C   UNL     1      10.676  11.010  17.796  0.00  0.00    +0.000 A 
ATOM     13  C   UNL     1      11.528  12.098  17.891  0.00  0.00    +0.000 A 
ATOM     14  C   UNL     1      11.259  13.054  18.852  0.00  0.00    +0.000 A 
ATOM     15  C   UNL     1      10.268  12.820  19.819  0.00  0.00    +0.000 A 
ATOM     16  C   UNL     1      10.014  13.785  20.786  0.00  0.00    +0.000 A 
ATOM     17  C   UNL     1       9.561  13.374  22.020  0.00  0.00    +0.000 A 
ATOM     18  C   UNL     1       9.048  12.097  22.105  0.00  0.00    +0.000 A 
ATOM     19  N   UNL     1       8.910  11.265  21.038  0.00  0.00    +0.000 NA
ATOM     20  C   UNL     1       9.573  11.594  19.894  0.00  0.00    +0.000 A 
ENDBRANCH   8  11
ENDBRANCH   1   9
BRANCH   4  21
ATOM     21  N   UNL     1       5.519   3.993  17.750  0.00  0.00    +0.000 N 
ATOM     22  H   UNL     1       5.628   3.147  18.314  0.00  0.00    +0.000 HD
BRANCH  21  23
ATOM     23  S   UNL     1       3.896   4.302  17.403  0.00  0.00    +0.000 S 
ATOM     24  O   UNL     1       3.771   5.741  17.269  0.00  0.00    +0.000 OA
ATOM     25  O   UNL     1       3.461   3.420  16.339  0.00  0.00    +0.000 OA
BRANCH  23  26
ATOM     26  C   UNL     1       3.086   3.839  18.911  0.00  0.00    +0.000 A 
ATOM     27  C   UNL     1       3.752   2.987  19.798  0.00  0.00    +0.000 A 
ATOM     28  C   UNL     1       3.088   2.540  20.940  0.00  0.00    +0.000 A 
ATOM     29  C   UNL     1       1.784   2.959  21.186  0.00  0.00    +0.000 A 
ATOM     30  F   UNL     1       1.143   2.510  22.274  0.00  0.00    +0.000 F 
ATOM     31  C   UNL     1       1.127   3.827  20.315  0.00  0.00    +0.000 A 
ATOM     32  C   UNL     1       1.781   4.274  19.167  0.00  0.00    +0.000 A 
ENDBRANCH  23  26
ENDBRANCH  21  23
ENDBRANCH   4  21
TORSDOF 5
ENDMDL
MODEL 7
REMARK VINA RESULT:      -8.4      1.283      1.755
REMARK  Name = 
REMARK  5 active torsions:
REMARK  status: ('A' for Active; 'I' for Inactive)
REMARK    1  A    between atoms: C_2  and  C_21
REMARK    2  A    between atoms: N_3  and  C_4
REMARK    3  A    between atoms: C_7  and  N_8
REMARK    4  A    between atoms: N_8  and  S_9
REMARK    5  A    between atoms: S_9  and  C_12
REMARK                            x       y       z     vdW  Elec       q    Type
REMARK                         _______ _______ _______ _____ _____    ______ ____
ROOT
ATOM      1  C   UNL     1       1.694   8.413  19.549  0.00  0.00    +0.000 A 
ATOM      2  C   UNL     1       2.332   8.165  18.337  0.00  0.00    +0.000 A 
ATOM      3  C   UNL     1       2.879   6.897  18.029  0.00  0.00    +0.000 A 
ATOM      4  C   UNL     1       2.761   5.875  18.972  0.00  0.00    +0.000 A 
ATOM      5  C   UNL     1       2.137   6.119  20.201  0.00  0.00    +0.000 A 
ATOM      6  C   UNL     1       1.603   7.384  20.485  0.00  0.00    +0.000 A 
ENDROOT
BRANCH   1   9
ATOM      7  O   UNL     1      -0.367   9.889  18.112  0.00  0.00    +0.000 OA
ATOM      8  C   UNL     1       0.139  10.335  19.147  0.00  0.00    +0.000 C 
ATOM      9  N   UNL     1       1.117   9.664  19.867  0.00  0.00    +0.000 N 
ATOM     10  H   UNL     1       1.399  10.115  20.755  0.00  0.00    +0.000 HD
BRANCH   8  11
ATOM     11  C   UNL     1      -0.421  11.626  19.649  0.00  0.00    +0.000 A 
ATOM     12  C   UNL     1      -1.821  11.774  19.504  0.00  0.00    +0.000 A 
ATOM     13  C   UNL     1      -2.504  12.821  20.101  0.00  0.00    +0.000 A 
ATOM     14  C   UNL     1      -1.815  13.630  20.983  0.00  0.00    +0.000 A 
ATOM     15  C   UNL     1      -0.422  13.504  21.112  0.00  0.00    +0.000 A 
ATOM     16  C   UNL     1       0.260  14.330  21.997  0.00  0.00    +0.000 A 
ATOM     17  C   UNL     1       1.566  14.662  21.708  0.00  0.00    +0.000 A 
ATOM     18  C   UNL     1       2.221  13.882  20.780  0.00  0.00    +0.000 A 
ATOM     19  N   UNL     1       1.672  12.783  20.194  0.00  0.00    +0.000 NA
ATOM     20  C   UNL     1       0.324  12.616  20.309  0.00  0.00    +0.000 A 
ENDBRANCH   8  11
ENDBRANCH   1   9
BRANCH   4  21
ATOM     21  N   UNL     1       3.297   4.584  18.711  0.00  0.00    +0.000 N 
ATOM     22  H   UNL     1       2.976   4.101  17.869  0.00  0.00    +0.000 HD
BRANCH  21  23
ATOM     23  S   UNL     1       4.941   4.318  18.990  0.00  0.00    +0.000 S 
ATOM     24  O   UNL     1       5.428   5.479  19.711  0.00  0.00    +0.000 OA
ATOM     25  O   UNL     1       5.122   2.984  19.528  0.00  0.00    +0.000 OA
BRANCH  23  26
ATOM     26  C   UNL     1       5.624   4.385  17.356  0.00  0.00    +0.000 A 
ATOM     27  C   UNL     1       6.979   4.700  17.206  0.00  0.00    +0.000 A 
ATOM     28  C   UNL     1       7.505   4.851  15.923  0.00  0.00    +0.000 A 
ATOM     29  C   UNL     1       6.681   4.669  14.816  0.00  0.00    +0.000 A 
ATOM     30  F   UNL     1       7.187   4.836  13.586  0.00  0.00    +0.000 F 
ATOM     31  C   UNL     1       5.336   4.333  14.963  0.00  0.00    +0.000 A 
ATOM     32  C   UNL     1       4.800   4.187  16.243  0.00  0.00    +0.000 A 
ENDBRANCH  23  26
ENDBRANCH  21  23
ENDBRANCH   4  21
TORSDOF 5
ENDMDL
MODEL 8
REMARK VINA RESULT:      -8.4      1.193      2.544
REMARK  Name = 
REMARK  5 active torsions:
REMARK  status: ('A' for Active; 'I' for Inactive)
REMARK    1  A    between atoms: C_2  and  C_21
REMARK    2  A    between atoms: N_3  and  C_4
REMARK    3  A    between atoms: C_7  and  N_8
REMARK    4  A    between atoms: N_8  and  S_9
REMARK    5  A    between atoms: S_9  and  C_12
REMARK                            x       y       z     vdW  Elec       q    Type
REMARK                         _______ _______ _______ _____ _____    ______ ____
ROOT
ATOM      1  C   UNL     1       1.480   8.257  19.790  0.00  0.00    +0.000 A 
ATOM      2  C   UNL     1       1.489   7.186  20.681  0.00  0.00    +0.000 A 
ATOM      3  C   UNL     1       2.079   5.944  20.346  0.00  0.00    +0.000 A 
ATOM      4  C   UNL     1       2.671   5.806  19.091  0.00  0.00    +0.000 A 
ATOM      5  C   UNL     1       2.651   6.870  18.181  0.00  0.00    +0.000 A 
ATOM      6  C   UNL     1       2.060   8.092  18.533  0.00  0.00    +0.000 A 
ENDROOT
BRANCH   1   9
ATOM      7  O   UNL     1      -0.556   8.892  21.776  0.00  0.00    +0.000 OA
ATOM      8  C   UNL     1      -0.056   9.770  21.065  0.00  0.00    +0.000 C 
ATOM      9  N   UNL     1       0.920   9.515  20.113  0.00  0.00    +0.000 N 
ATOM     10  H   UNL     1       1.306  10.351  19.640  0.00  0.00    +0.000 HD
BRANCH   8  11
ATOM     11  C   UNL     1      -0.500  11.170  21.339  0.00  0.00    +0.000 A 
ATOM     12  C   UNL     1      -0.978  11.406  22.650  0.00  0.00    +0.000 A 
ATOM     13  C   UNL     1      -1.233  12.689  23.108  0.00  0.00    +0.000 A 
ATOM     14  C   UNL     1      -0.852  13.752  22.312  0.00  0.00    +0.000 A 
ATOM     15  C   UNL     1      -0.400  13.524  21.002  0.00  0.00    +0.000 A 
ATOM     16  C   UNL     1      -0.029  14.603  20.209  0.00  0.00    +0.000 A 
ATOM     17  C   UNL     1      -0.189  14.500  18.845  0.00  0.00    +0.000 A 
ATOM     18  C   UNL     1      -0.357  13.233  18.328  0.00  0.00    +0.000 A 
ATOM     19  N   UNL     1      -0.308  12.098  19.077  0.00  0.00    +0.000 NA
ATOM     20  C   UNL     1      -0.389  12.234  20.430  0.00  0.00    +0.000 A 
ENDBRANCH   8  11
ENDBRANCH   1   9
BRANCH   4  21
ATOM     21  N   UNL     1       3.274   4.577  18.705  0.00  0.00    +0.000 N 
ATOM     22  H   UNL     1       2.973   4.160  17.822  0.00  0.00    +0.000 HD
BRANCH  21  23
ATOM     23  S   UNL     1       4.932   4.376  18.953  0.00  0.00    +0.000 S 
ATOM     24  O   UNL     1       5.371   5.512  19.742  0.00  0.00    +0.000 OA
ATOM     25  O   UNL     1       5.186   3.022  19.402  0.00  0.00    +0.000 OA
BRANCH  23  26
ATOM     26  C   UNL     1       5.592   4.581  17.320  0.00  0.00    +0.000 A 
ATOM     27  C   UNL     1       4.901   4.018  16.241  0.00  0.00    +0.000 A 
ATOM     28  C   UNL     1       5.460   4.089  14.964  0.00  0.00    +0.000 A 
ATOM     29  C   UNL     1       6.682   4.731  14.783  0.00  0.00    +0.000 A 
ATOM     30  F   UNL     1       7.223   4.778  13.558  0.00  0.00    +0.000 F 
ATOM     31  C   UNL     1       7.359   5.312  15.853  0.00  0.00    +0.000 A 
ATOM     32  C   UNL     1       6.812   5.239  17.134  0.00  0.00    +0.000 A 
ENDBRANCH  23  26
ENDBRANCH  21  23
ENDBRANCH   4  21
TORSDOF 5
ENDMDL
MODEL 9
REMARK VINA RESULT:      -8.2      1.749      2.894
REMARK  Name = 
REMARK  5 active torsions:
REMARK  status: ('A' for Active; 'I' for Inactive)
REMARK    1  A    between atoms: C_2  and  C_21
REMARK    2  A    between atoms: N_3  and  C_4
REMARK    3  A    between atoms: C_7  and  N_8
REMARK    4  A    between atoms: N_8  and  S_9
REMARK    5  A    between atoms: S_9  and  C_12
REMARK                            x       y       z     vdW  Elec       q    Type
REMARK                         _______ _______ _______ _____ _____    ______ ____
ROOT
ATOM      1  C   UNL     1       1.627   7.587  20.120  0.00  0.00    +0.000 A 
ATOM      2  C   UNL     1       1.445   6.417  20.853  0.00  0.00    +0.000 A 
ATOM      3  C   UNL     1       2.194   5.246  20.584  0.00  0.00    +0.000 A 
ATOM      4  C   UNL     1       3.141   5.283  19.562  0.00  0.00    +0.000 A 
ATOM      5  C   UNL     1       3.319   6.448  18.807  0.00  0.00    +0.000 A 
ATOM      6  C   UNL     1       2.566   7.597  19.089  0.00  0.00    +0.000 A 
ENDROOT
BRANCH   1   9
ATOM      7  O   UNL     1       1.701   9.265  22.501  0.00  0.00    +0.000 OA
ATOM      8  C   UNL     1       0.971   9.541  21.543  0.00  0.00    +0.000 C 
ATOM      9  N   UNL     1       0.910   8.776  20.387  0.00  0.00    +0.000 N 
ATOM     10  H   UNL     1       0.315   9.161  19.633  0.00  0.00    +0.000 HD
BRANCH   8  11
ATOM     11  C   UNL     1       0.198  10.815  21.651  0.00  0.00    +0.000 A 
ATOM     12  C   UNL     1      -0.719  10.875  22.726  0.00  0.00    +0.000 A 
ATOM     13  C   UNL     1      -1.354  12.058  23.071  0.00  0.00    +0.000 A 
ATOM     14  C   UNL     1      -0.947  13.222  22.449  0.00  0.00    +0.000 A 
ATOM     15  C   UNL     1      -0.054  13.165  21.365  0.00  0.00    +0.000 A 
ATOM     16  C   UNL     1       0.340  14.342  20.742  0.00  0.00    +0.000 A 
ATOM     17  C   UNL     1       0.661  14.299  19.403  0.00  0.00    +0.000 A 
ATOM     18  C   UNL     1       0.921  13.059  18.860  0.00  0.00    +0.000 A 
ATOM     19  N   UNL     1       0.940  11.906  19.583  0.00  0.00    +0.000 NA
ATOM     20  C   UNL     1       0.394  11.938  20.832  0.00  0.00    +0.000 A 
ENDBRANCH   8  11
ENDBRANCH   1   9
BRANCH   4  21
ATOM     21  N   UNL     1       3.917   4.132  19.251  0.00  0.00    +0.000 N 
ATOM     22  H   UNL     1       4.111   3.475  20.010  0.00  0.00    +0.000 HD
BRANCH  21  23
ATOM     23  S   UNL     1       3.626   3.328  17.795  0.00  0.00    +0.000 S 
ATOM     24  O   UNL     1       3.933   1.930  18.028  0.00  0.00    +0.000 OA
ATOM     25  O   UNL     1       2.329   3.725  17.284  0.00  0.00    +0.000 OA
BRANCH  23  26
ATOM     26  C   UNL     1       4.892   3.979  16.737  0.00  0.00    +0.000 A 
ATOM     27  C   UNL     1       4.661   4.016  15.358  0.00  0.00    +0.000 A 
ATOM     28  C   UNL     1       5.686   4.435  14.508  0.00  0.00    +0.000 A 
ATOM     29  C   UNL     1       6.910   4.824  15.046  0.00  0.00    +0.000 A 
ATOM     30  F   UNL     1       7.896   5.205  14.223  0.00  0.00    +0.000 F 
ATOM     31  C   UNL     1       7.133   4.808  16.421  0.00  0.00    +0.000 A 
ATOM     32  C   UNL     1       6.117   4.384  17.278  0.00  0.00    +0.000 A 
ENDBRANCH  23  26
ENDBRANCH  21  23
ENDBRANCH   4  21
TORSDOF 5
ENDMDL
