MODEL 1
REMARK VINA RESULT:      -9.2      0.000      0.000
REMARK  Name = 
REMARK  6 active torsions:
REMARK  status: ('A' for Active; 'I' for Inactive)
REMARK    1  A    between atoms: C_1  and  N_2
REMARK    2  A    between atoms: C_7  and  C_8
REMARK    3  A    between atoms: N_10  and  C_11
REMARK    4  A    between atoms: C_11  and  C_12
REMARK    5  A    between atoms: C_11  and  C_20
REMARK    6  A    between atoms: C_12  and  C_13
REMARK                            x       y       z     vdW  Elec       q    Type
REMARK                         _______ _______ _______ _____ _____    ______ ____
ROOT
ATOM      1  C   UNL     1       3.983   5.936  17.363  0.00  0.00    +0.000 C 
ENDROOT
BRANCH   1   2
ATOM      2  C   UNL     1       5.404   6.112  17.884  0.00  0.00    +0.000 A 
ATOM      3  C   UNL     1       5.930   5.351  18.943  0.00  0.00    +0.000 A 
ATOM      4  C   UNL     1       7.232   5.567  19.404  0.00  0.00    +0.000 A 
ATOM      5  C   UNL     1       8.035   6.530  18.799  0.00  0.00    +0.000 A 
ATOM      6  C   UNL     1       7.536   7.257  17.726  0.00  0.00    +0.000 A 
ATOM      7  F   UNL     1       8.312   8.172  17.131  0.00  0.00    +0.000 F 
ATOM      8  C   UNL     1       6.240   7.054  17.263  0.00  0.00    +0.000 A 
ENDBRANCH   1   2
BRANCH   1  11
ATOM      9  C   UNL     1       3.085   3.645  17.726  0.00  0.00    +0.000 C 
ATOM     10  O   UNL     1       3.311   3.286  16.574  0.00  0.00    +0.000 OA
ATOM     11  N   UNL     1       3.310   4.932  18.179  0.00  0.00    +0.000 N 
ATOM     12  H   UNL     1       3.208   5.104  19.172  0.00  0.00    +0.000 HD
BRANCH   9  19
ATOM     13  C   UNL     1       4.369   2.159  20.187  0.00  0.00    +0.000 C 
ATOM     14  N   UNL     1       3.045   2.722  20.020  0.00  0.00    +0.000 N 
ATOM     15  C   UNL     1       2.208   3.036  21.070  0.00  0.00    +0.000 C 
ATOM     16  O   UNL     1       2.512   3.062  22.250  0.00  0.00    +0.000 OA
ATOM     17  C   UNL     1       0.840   3.327  20.527  0.00  0.00    +0.000 C 
ATOM     18  C   UNL     1       0.960   3.191  19.016  0.00  0.00    +0.000 C 
ATOM     19  C   UNL     1       2.381   2.717  18.732  0.00  0.00    +0.000 C 
ENDBRANCH   9  19
ENDBRANCH   1  11
BRANCH   1  20
ATOM     20  C   UNL     1       3.191   7.271  17.286  0.00  0.00    +0.000 C 
BRANCH  20  21
ATOM     21  C   UNL     1       2.418   7.704  18.514  0.00  0.00    +0.000 A 
ATOM     22  C   UNL     1       2.327   6.929  19.678  0.00  0.00    +0.000 A 
ATOM     23  C   UNL     1       1.661   7.408  20.812  0.00  0.00    +0.000 A 
ATOM     24  C   UNL     1       1.039   8.653  20.780  0.00  0.00    +0.000 A 
ATOM     25  C   UNL     1       1.061   9.392  19.606  0.00  0.00    +0.000 A 
ATOM     26  F   UNL     1       0.437  10.577  19.560  0.00  0.00    +0.000 F 
ATOM     27  C   UNL     1       1.731   8.929  18.479  0.00  0.00    +0.000 A 
ENDBRANCH  20  21
ENDBRANCH   1  20
TORSDOF 5
ENDMDL
MODEL 2
REMARK VINA RESULT:      -9.0      1.693      2.085
REMARK  Name = 
REMARK  6 active torsions:
REMARK  status: ('A' for Active; 'I' for Inactive)
REMARK    1  A    between atoms: C_1  and  N_2
REMARK    2  A    between atoms: C_7  and  C_8
REMARK    3  A    between atoms: N_10  and  C_11
REMARK    4  A    between atoms: C_11  and  C_12
REMARK    5  A    between atoms: C_11  and  C_20
REMARK    6  A    between atoms: C_12  and  C_13
REMARK                            x       y       z     vdW  Elec       q    Type
REMARK                         _______ _______ _______ _____ _____    ______ ____
ROOT
ATOM      1  C   UNL     1       3.534   5.987  17.328  0.00  0.00    +0.000 C 
ENDROOT
BRANCH   1   2
ATOM      2  C   UNL     1       4.818   5.455  16.703  0.00  0.00    +0.000 A 
ATOM      3  C   UNL     1       4.999   5.333  15.314  0.00  0.00    +0.000 A 
ATOM      4  C   UNL     1       6.186   4.814  14.788  0.00  0.00    +0.000 A 
ATOM      5  C   UNL     1       7.217   4.431  15.641  0.00  0.00    +0.000 A 
ATOM      6  C   UNL     1       7.061   4.586  17.012  0.00  0.00    +0.000 A 
ATOM      7  F   UNL     1       8.058   4.234  17.834  0.00  0.00    +0.000 F 
ATOM      8  C   UNL     1       5.882   5.096  17.546  0.00  0.00    +0.000 A 
ENDBRANCH   1   2
BRANCH   1  11
ATOM      9  C   UNL     1       1.921   4.257  18.097  0.00  0.00    +0.000 C 
ATOM     10  O   UNL     1       1.164   4.423  17.146  0.00  0.00    +0.000 OA
ATOM     11  N   UNL     1       3.057   5.018  18.307  0.00  0.00    +0.000 N 
ATOM     12  H   UNL     1       3.684   4.731  19.049  0.00  0.00    +0.000 HD
BRANCH   9  19
ATOM     13  C   UNL     1       3.344   1.525  18.751  0.00  0.00    +0.000 C 
ATOM     14  N   UNL     1       2.742   2.502  19.634  0.00  0.00    +0.000 N 
ATOM     15  C   UNL     1       3.014   2.585  20.984  0.00  0.00    +0.000 C 
ATOM     16  O   UNL     1       3.903   1.998  21.577  0.00  0.00    +0.000 OA
ATOM     17  C   UNL     1       2.021   3.511  21.621  0.00  0.00    +0.000 C 
ATOM     18  C   UNL     1       1.138   4.011  20.486  0.00  0.00    +0.000 C 
ATOM     19  C   UNL     1       1.583   3.271  19.229  0.00  0.00    +0.000 C 
ENDBRANCH   9  19
ENDBRANCH   1  11
BRANCH   1  20
ATOM     20  C   UNL     1       3.693   7.413  17.926  0.00  0.00    +0.000 C 
BRANCH  20  21
ATOM     21  C   UNL     1       2.511   8.000  18.671  0.00  0.00    +0.000 A 
ATOM     22  C   UNL     1       2.149   7.611  19.968  0.00  0.00    +0.000 A 
ATOM     23  C   UNL     1       1.093   8.237  20.639  0.00  0.00    +0.000 A 
ATOM     24  C   UNL     1       0.356   9.232  20.003  0.00  0.00    +0.000 A 
ATOM     25  C   UNL     1       0.661   9.569  18.692  0.00  0.00    +0.000 A 
ATOM     26  F   UNL     1      -0.064  10.504  18.064  0.00  0.00    +0.000 F 
ATOM     27  C   UNL     1       1.718   8.961  18.022  0.00  0.00    +0.000 A 
ENDBRANCH  20  21
ENDBRANCH   1  20
TORSDOF 5
ENDMDL
MODEL 3
REMARK VINA RESULT:      -9.0      3.424      5.469
REMARK  Name = 
REMARK  6 active torsions:
REMARK  status: ('A' for Active; 'I' for Inactive)
REMARK    1  A    between atoms: C_1  and  N_2
REMARK    2  A    between atoms: C_7  and  C_8
REMARK    3  A    between atoms: N_10  and  C_11
REMARK    4  A    between atoms: C_11  and  C_12
REMARK    5  A    between atoms: C_11  and  C_20
REMARK    6  A    between atoms: C_12  and  C_13
REMARK                            x       y       z     vdW  Elec       q    Type
REMARK                         _______ _______ _______ _____ _____    ______ ____
ROOT
ATOM      1  C   UNL     1       5.815   3.965  16.508  0.00  0.00    +0.000 C 
ENDROOT
BRANCH   1   2
ATOM      2  C   UNL     1       6.604   4.948  17.363  0.00  0.00    +0.000 A 
ATOM      3  C   UNL     1       7.183   4.597  18.595  0.00  0.00    +0.000 A 
ATOM      4  C   UNL     1       7.876   5.541  19.358  0.00  0.00    +0.000 A 
ATOM      5  C   UNL     1       8.021   6.844  18.890  0.00  0.00    +0.000 A 
ATOM      6  C   UNL     1       7.487   7.188  17.655  0.00  0.00    +0.000 A 
ATOM      7  F   UNL     1       7.640   8.436  17.195  0.00  0.00    +0.000 F 
ATOM      8  C   UNL     1       6.791   6.258  16.891  0.00  0.00    +0.000 A 
ENDBRANCH   1   2
BRANCH   1  11
ATOM      9  C   UNL     1       3.704   3.968  17.824  0.00  0.00    +0.000 C 
ATOM     10  O   UNL     1       3.524   5.173  17.685  0.00  0.00    +0.000 OA
ATOM     11  N   UNL     1       4.824   3.307  17.350  0.00  0.00    +0.000 N 
ATOM     12  H   UNL     1       4.830   2.295  17.404  0.00  0.00    +0.000 HD
BRANCH   9  19
ATOM     13  C   UNL     1       4.439   2.243  20.354  0.00  0.00    +0.000 C 
ATOM     14  N   UNL     1       3.233   2.981  20.042  0.00  0.00    +0.000 N 
ATOM     15  C   UNL     1       2.306   3.368  20.987  0.00  0.00    +0.000 C 
ATOM     16  O   UNL     1       2.445   3.315  22.197  0.00  0.00    +0.000 OA
ATOM     17  C   UNL     1       1.074   3.857  20.284  0.00  0.00    +0.000 C 
ATOM     18  C   UNL     1       1.383   3.757  18.797  0.00  0.00    +0.000 C 
ATOM     19  C   UNL     1       2.758   3.108  18.679  0.00  0.00    +0.000 C 
ENDBRANCH   9  19
ENDBRANCH   1  11
BRANCH   1  20
ATOM     20  C   UNL     1       5.187   4.621  15.246  0.00  0.00    +0.000 C 
BRANCH  20  21
ATOM     21  C   UNL     1       5.790   4.279  13.899  0.00  0.00    +0.000 A 
ATOM     22  C   UNL     1       6.966   4.866  13.412  0.00  0.00    +0.000 A 
ATOM     23  C   UNL     1       7.521   4.461  12.194  0.00  0.00    +0.000 A 
ATOM     24  C   UNL     1       6.881   3.495  11.423  0.00  0.00    +0.000 A 
ATOM     25  C   UNL     1       5.677   2.965  11.864  0.00  0.00    +0.000 A 
ATOM     26  F   UNL     1       5.040   2.056  11.112  0.00  0.00    +0.000 F 
ATOM     27  C   UNL     1       5.125   3.352  13.081  0.00  0.00    +0.000 A 
ENDBRANCH  20  21
ENDBRANCH   1  20
TORSDOF 5
ENDMDL
MODEL 4
REMARK VINA RESULT:      -9.0      1.783      2.351
REMARK  Name = 
REMARK  6 active torsions:
REMARK  status: ('A' for Active; 'I' for Inactive)
REMARK    1  A    between atoms: C_1  and  N_2
REMARK    2  A    between atoms: C_7  and  C_8
REMARK    3  A    between atoms: N_10  and  C_11
REMARK    4  A    between atoms: C_11  and  C_12
REMARK    5  A    between atoms: C_11  and  C_20
REMARK    6  A    between atoms: C_12  and  C_13
REMARK                            x       y       z     vdW  Elec       q    Type
REMARK                         _______ _______ _______ _____ _____    ______ ____
ROOT
ATOM      1  C   UNL     1       3.557   6.000  17.443  0.00  0.00    +0.000 C 
ENDROOT
BRANCH   1   2
ATOM      2  C   UNL     1       4.812   5.468  16.762  0.00  0.00    +0.000 A 
ATOM      3  C   UNL     1       4.936   5.357  15.366  0.00  0.00    +0.000 A 
ATOM      4  C   UNL     1       6.099   4.838  14.788  0.00  0.00    +0.000 A 
ATOM      5  C   UNL     1       7.163   4.444  15.596  0.00  0.00    +0.000 A 
ATOM      6  C   UNL     1       7.063   4.589  16.973  0.00  0.00    +0.000 A 
ATOM      7  F   UNL     1       8.091   4.227  17.751  0.00  0.00    +0.000 F 
ATOM      8  C   UNL     1       5.908   5.099  17.559  0.00  0.00    +0.000 A 
ENDBRANCH   1   2
BRANCH   1  11
ATOM      9  C   UNL     1       1.949   4.233  18.135  0.00  0.00    +0.000 C 
ATOM     10  O   UNL     1       1.200   4.427  17.183  0.00  0.00    +0.000 OA
ATOM     11  N   UNL     1       3.076   4.995  18.383  0.00  0.00    +0.000 N 
ATOM     12  H   UNL     1       3.699   4.686  19.121  0.00  0.00    +0.000 HD
BRANCH   9  19
ATOM     13  C   UNL     1       3.433   1.527  18.761  0.00  0.00    +0.000 C 
ATOM     14  N   UNL     1       2.775   2.461  19.650  0.00  0.00    +0.000 N 
ATOM     15  C   UNL     1       3.003   2.515  21.010  0.00  0.00    +0.000 C 
ATOM     16  O   UNL     1       3.891   1.938  21.614  0.00  0.00    +0.000 OA
ATOM     17  C   UNL     1       1.964   3.394  21.640  0.00  0.00    +0.000 C 
ATOM     18  C   UNL     1       1.101   3.898  20.492  0.00  0.00    +0.000 C 
ATOM     19  C   UNL     1       1.606   3.207  19.230  0.00  0.00    +0.000 C 
ENDBRANCH   9  19
ENDBRANCH   1  11
BRANCH   1  20
ATOM     20  C   UNL     1       3.765   7.389  18.108  0.00  0.00    +0.000 C 
BRANCH  20  21
ATOM     21  C   UNL     1       2.533   8.147  18.558  0.00  0.00    +0.000 A 
ATOM     22  C   UNL     1       1.853   9.062  17.741  0.00  0.00    +0.000 A 
ATOM     23  C   UNL     1       0.678   9.681  18.179  0.00  0.00    +0.000 A 
ATOM     24  C   UNL     1       0.191   9.427  19.458  0.00  0.00    +0.000 A 
ATOM     25  C   UNL     1       0.901   8.581  20.298  0.00  0.00    +0.000 A 
ATOM     26  F   UNL     1       0.454   8.357  21.541  0.00  0.00    +0.000 F 
ATOM     27  C   UNL     1       2.064   7.951  19.867  0.00  0.00    +0.000 A 
ENDBRANCH  20  21
ENDBRANCH   1  20
TORSDOF 5
ENDMDL
MODEL 5
REMARK VINA RESULT:      -8.8      3.693      7.112
REMARK  Name = 
REMARK  6 active torsions:
REMARK  status: ('A' for Active; 'I' for Inactive)
REMARK    1  A    between atoms: C_1  and  N_2
REMARK    2  A    between atoms: C_7  and  C_8
REMARK    3  A    between atoms: N_10  and  C_11
REMARK    4  A    between atoms: C_11  and  C_12
REMARK    5  A    between atoms: C_11  and  C_20
REMARK    6  A    between atoms: C_12  and  C_13
REMARK                            x       y       z     vdW  Elec       q    Type
REMARK                         _______ _______ _______ _____ _____    ______ ____
ROOT
ATOM      1  C   UNL     1       2.845   6.909  18.237  0.00  0.00    +0.000 C 
ENDROOT
BRANCH   1   2
ATOM      2  C   UNL     1       2.330   5.560  18.722  0.00  0.00    +0.000 A 
ATOM      3  C   UNL     1       1.825   4.576  17.854  0.00  0.00    +0.000 A 
ATOM      4  C   UNL     1       1.339   3.363  18.349  0.00  0.00    +0.000 A 
ATOM      5  C   UNL     1       1.372   3.104  19.717  0.00  0.00    +0.000 A 
ATOM      6  C   UNL     1       1.907   4.054  20.576  0.00  0.00    +0.000 A 
ATOM      7  F   UNL     1       1.956   3.802  21.890  0.00  0.00    +0.000 F 
ATOM      8  C   UNL     1       2.388   5.268  20.095  0.00  0.00    +0.000 A 
ENDBRANCH   1   2
BRANCH   1  11
ATOM      9  C   UNL     1       1.755   9.141  18.375  0.00  0.00    +0.000 C 
ATOM     10  O   UNL     1       2.052   9.447  17.225  0.00  0.00    +0.000 OA
ATOM     11  N   UNL     1       2.159   7.962  18.975  0.00  0.00    +0.000 N 
ATOM     12  H   UNL     1       1.767   7.739  19.883  0.00  0.00    +0.000 HD
BRANCH   9  19
ATOM     13  C   UNL     1       2.136  12.262  18.541  0.00  0.00    +0.000 C 
ATOM     14  N   UNL     1       0.950  11.452  18.727  0.00  0.00    +0.000 N 
ATOM     15  C   UNL     1      -0.335  11.947  18.650  0.00  0.00    +0.000 C 
ATOM     16  O   UNL     1      -0.659  13.051  18.247  0.00  0.00    +0.000 OA
ATOM     17  C   UNL     1      -1.285  10.906  19.164  0.00  0.00    +0.000 C 
ATOM     18  C   UNL     1      -0.423   9.704  19.524  0.00  0.00    +0.000 C 
ATOM     19  C   UNL     1       1.026  10.126  19.305  0.00  0.00    +0.000 C 
ENDBRANCH   9  19
ENDBRANCH   1  11
BRANCH   1  20
ATOM     20  C   UNL     1       4.392   7.036  18.315  0.00  0.00    +0.000 C 
BRANCH  20  21
ATOM     21  C   UNL     1       5.219   6.160  17.396  0.00  0.00    +0.000 A 
ATOM     22  C   UNL     1       4.915   5.966  16.041  0.00  0.00    +0.000 A 
ATOM     23  C   UNL     1       5.753   5.206  15.218  0.00  0.00    +0.000 A 
ATOM     24  C   UNL     1       6.883   4.591  15.751  0.00  0.00    +0.000 A 
ATOM     25  C   UNL     1       7.147   4.717  17.107  0.00  0.00    +0.000 A 
ATOM     26  F   UNL     1       8.215   4.102  17.632  0.00  0.00    +0.000 F 
ATOM     27  C   UNL     1       6.326   5.481  17.930  0.00  0.00    +0.000 A 
ENDBRANCH  20  21
ENDBRANCH   1  20
TORSDOF 5
ENDMDL
MODEL 6
REMARK VINA RESULT:      -8.8      0.916      1.314
REMARK  Name = 
REMARK  6 active torsions:
REMARK  status: ('A' for Active; 'I' for Inactive)
REMARK    1  A    between atoms: C_1  and  N_2
REMARK    2  A    between atoms: C_7  and  C_8
REMARK    3  A    between atoms: N_10  and  C_11
REMARK    4  A    between atoms: C_11  and  C_12
REMARK    5  A    between atoms: C_11  and  C_20
REMARK    6  A    between atoms: C_12  and  C_13
REMARK                            x       y       z     vdW  Elec       q    Type
REMARK                         _______ _______ _______ _____ _____    ______ ____
ROOT
ATOM      1  C   UNL     1       4.168   5.998  17.166  0.00  0.00    +0.000 C 
ENDROOT
BRANCH   1   2
ATOM      2  C   UNL     1       5.545   6.169  17.794  0.00  0.00    +0.000 A 
ATOM      3  C   UNL     1       6.015   5.355  18.840  0.00  0.00    +0.000 A 
ATOM      4  C   UNL     1       7.277   5.567  19.402  0.00  0.00    +0.000 A 
ATOM      5  C   UNL     1       8.098   6.580  18.912  0.00  0.00    +0.000 A 
ATOM      6  C   UNL     1       7.657   7.360  17.852  0.00  0.00    +0.000 A 
ATOM      7  F   UNL     1       8.451   8.323  17.367  0.00  0.00    +0.000 F 
ATOM      8  C   UNL     1       6.401   7.162  17.289  0.00  0.00    +0.000 A 
ENDBRANCH   1   2
BRANCH   1  11
ATOM      9  C   UNL     1       3.357   3.717  17.737  0.00  0.00    +0.000 C 
ATOM     10  O   UNL     1       3.859   3.201  16.743  0.00  0.00    +0.000 OA
ATOM     11  N   UNL     1       3.393   5.077  17.988  0.00  0.00    +0.000 N 
ATOM     12  H   UNL     1       3.060   5.397  18.890  0.00  0.00    +0.000 HD
BRANCH   9  19
ATOM     13  C   UNL     1       4.344   2.154  20.287  0.00  0.00    +0.000 C 
ATOM     14  N   UNL     1       3.102   2.858  20.042  0.00  0.00    +0.000 N 
ATOM     15  C   UNL     1       2.256   3.289  21.043  0.00  0.00    +0.000 C 
ATOM     16  O   UNL     1       2.504   3.308  22.237  0.00  0.00    +0.000 OA
ATOM     17  C   UNL     1       0.958   3.720  20.427  0.00  0.00    +0.000 C 
ATOM     18  C   UNL     1       1.135   3.536  18.926  0.00  0.00    +0.000 C 
ATOM     19  C   UNL     1       2.505   2.898  18.723  0.00  0.00    +0.000 C 
ENDBRANCH   9  19
ENDBRANCH   1  11
BRANCH   1  20
ATOM     20  C   UNL     1       3.434   7.347  16.928  0.00  0.00    +0.000 C 
BRANCH  20  21
ATOM     21  C   UNL     1       2.619   7.919  18.071  0.00  0.00    +0.000 A 
ATOM     22  C   UNL     1       2.009   9.180  18.024  0.00  0.00    +0.000 A 
ATOM     23  C   UNL     1       1.206   9.629  19.077  0.00  0.00    +0.000 A 
ATOM     24  C   UNL     1       1.041   8.842  20.213  0.00  0.00    +0.000 A 
ATOM     25  C   UNL     1       1.704   7.626  20.297  0.00  0.00    +0.000 A 
ATOM     26  F   UNL     1       1.574   6.877  21.401  0.00  0.00    +0.000 F 
ATOM     27  C   UNL     1       2.493   7.165  19.249  0.00  0.00    +0.000 A 
ENDBRANCH  20  21
ENDBRANCH   1  20
TORSDOF 5
ENDMDL
MODEL 7
REMARK VINA RESULT:      -8.8      3.548      5.647
REMARK  Name = 
REMARK  6 active torsions:
REMARK  status: ('A' for Active; 'I' for Inactive)
REMARK    1  A    between atoms: C_1  and  N_2
REMARK    2  A    between atoms: C_7  and  C_8
REMARK    3  A    between atoms: N_10  and  C_11
REMARK    4  A    between atoms: C_11  and  C_12
REMARK    5  A    between atoms: C_11  and  C_20
REMARK    6  A    between atoms: C_12  and  C_13
REMARK                            x       y       z     vdW  Elec       q    Type
REMARK                         _______ _______ _______ _____ _____    ______ ____
ROOT
ATOM      1  C   UNL     1       5.779   4.007  16.471  0.00  0.00    +0.000 C 
ENDROOT
BRANCH   1   2
ATOM      2  C   UNL     1       6.538   5.051  17.280  0.00  0.00    +0.000 A 
ATOM      3  C   UNL     1       6.759   6.362  16.822  0.00  0.00    +0.000 A 
ATOM      4  C   UNL     1       7.484   7.278  17.589  0.00  0.00    +0.000 A 
ATOM      5  C   UNL     1       7.979   6.905  18.836  0.00  0.00    +0.000 A 
ATOM      6  C   UNL     1       7.729   5.626  19.313  0.00  0.00    +0.000 A 
ATOM      7  F   UNL     1       8.190   5.270  20.520  0.00  0.00    +0.000 F 
ATOM      8  C   UNL     1       7.014   4.704  18.555  0.00  0.00    +0.000 A 
ENDBRANCH   1   2
BRANCH   1  11
ATOM      9  C   UNL     1       3.654   4.010  17.764  0.00  0.00    +0.000 C 
ATOM     10  O   UNL     1       3.431   5.197  17.551  0.00  0.00    +0.000 OA
ATOM     11  N   UNL     1       4.802   3.364  17.342  0.00  0.00    +0.000 N 
ATOM     12  H   UNL     1       4.845   2.359  17.457  0.00  0.00    +0.000 HD
BRANCH   9  19
ATOM     13  C   UNL     1       4.459   2.306  20.287  0.00  0.00    +0.000 C 
ATOM     14  N   UNL     1       3.249   3.052  20.008  0.00  0.00    +0.000 N 
ATOM     15  C   UNL     1       2.358   3.457  20.979  0.00  0.00    +0.000 C 
ATOM     16  O   UNL     1       2.538   3.416  22.184  0.00  0.00    +0.000 OA
ATOM     17  C   UNL     1       1.107   3.949  20.313  0.00  0.00    +0.000 C 
ATOM     18  C   UNL     1       1.365   3.830  18.817  0.00  0.00    +0.000 C 
ATOM     19  C   UNL     1       2.729   3.168  18.660  0.00  0.00    +0.000 C 
ENDBRANCH   9  19
ENDBRANCH   1  11
BRANCH   1  20
ATOM     20  C   UNL     1       5.138   4.584  15.178  0.00  0.00    +0.000 C 
BRANCH  20  21
ATOM     21  C   UNL     1       5.787   4.237  13.854  0.00  0.00    +0.000 A 
ATOM     22  C   UNL     1       6.960   4.847  13.389  0.00  0.00    +0.000 A 
ATOM     23  C   UNL     1       7.558   4.438  12.193  0.00  0.00    +0.000 A 
ATOM     24  C   UNL     1       6.966   3.442  11.422  0.00  0.00    +0.000 A 
ATOM     25  C   UNL     1       5.764   2.887  11.839  0.00  0.00    +0.000 A 
ATOM     26  F   UNL     1       5.173   1.950  11.086  0.00  0.00    +0.000 F 
ATOM     27  C   UNL     1       5.169   3.278  13.034  0.00  0.00    +0.000 A 
ENDBRANCH  20  21
ENDBRANCH   1  20
TORSDOF 5
ENDMDL
MODEL 8
REMARK VINA RESULT:      -8.8      2.330      5.567
REMARK  Name = 
REMARK  6 active torsions:
REMARK  status: ('A' for Active; 'I' for Inactive)
REMARK    1  A    between atoms: C_1  and  N_2
REMARK    2  A    between atoms: C_7  and  C_8
REMARK    3  A    between atoms: N_10  and  C_11
REMARK    4  A    between atoms: C_11  and  C_12
REMARK    5  A    between atoms: C_11  and  C_20
REMARK    6  A    between atoms: C_12  and  C_13
REMARK                            x       y       z     vdW  Elec       q    Type
REMARK                         _______ _______ _______ _____ _____    ______ ____
ROOT
ATOM      1  C   UNL     1       3.776   6.950  18.295  0.00  0.00    +0.000 C 
ENDROOT
BRANCH   1   2
ATOM      2  C   UNL     1       2.599   7.852  18.648  0.00  0.00    +0.000 A 
ATOM      3  C   UNL     1       2.017   8.743  17.730  0.00  0.00    +0.000 A 
ATOM      4  C   UNL     1       0.954   9.570  18.107  0.00  0.00    +0.000 A 
ATOM      5  C   UNL     1       0.444   9.502  19.401  0.00  0.00    +0.000 A 
ATOM      6  C   UNL     1       0.987   8.595  20.301  0.00  0.00    +0.000 A 
ATOM      7  F   UNL     1       0.487   8.515  21.540  0.00  0.00    +0.000 F 
ATOM      8  C   UNL     1       2.048   7.771  19.937  0.00  0.00    +0.000 A 
ENDBRANCH   1   2
BRANCH   1  11
ATOM      9  C   UNL     1       4.084   4.722  19.358  0.00  0.00    +0.000 C 
ATOM     10  O   UNL     1       5.152   5.028  19.879  0.00  0.00    +0.000 OA
ATOM     11  N   UNL     1       3.381   5.564  18.515  0.00  0.00    +0.000 N 
ATOM     12  H   UNL     1       2.453   5.274  18.229  0.00  0.00    +0.000 HD
BRANCH   9  19
ATOM     13  C   UNL     1       1.508   3.830  20.934  0.00  0.00    +0.000 C 
ATOM     14  N   UNL     1       2.075   3.322  19.703  0.00  0.00    +0.000 N 
ATOM     15  C   UNL     1       1.367   2.575  18.784  0.00  0.00    +0.000 C 
ATOM     16  O   UNL     1       0.161   2.395  18.778  0.00  0.00    +0.000 OA
ATOM     17  C   UNL     1       2.328   1.994  17.789  0.00  0.00    +0.000 C 
ATOM     18  C   UNL     1       3.701   2.514  18.193  0.00  0.00    +0.000 C 
ATOM     19  C   UNL     1       3.507   3.301  19.484  0.00  0.00    +0.000 C 
ENDBRANCH   9  19
ENDBRANCH   1  11
BRANCH   1  20
ATOM     20  C   UNL     1       4.324   7.195  16.862  0.00  0.00    +0.000 C 
BRANCH  20  21
ATOM     21  C   UNL     1       5.319   6.195  16.307  0.00  0.00    +0.000 A 
ATOM     22  C   UNL     1       6.563   5.939  16.900  0.00  0.00    +0.000 A 
ATOM     23  C   UNL     1       7.413   4.953  16.390  0.00  0.00    +0.000 A 
ATOM     24  C   UNL     1       7.050   4.240  15.251  0.00  0.00    +0.000 A 
ATOM     25  C   UNL     1       5.854   4.542  14.616  0.00  0.00    +0.000 A 
ATOM     26  F   UNL     1       5.513   3.881  13.502  0.00  0.00    +0.000 F 
ATOM     27  C   UNL     1       4.996   5.512  15.124  0.00  0.00    +0.000 A 
ENDBRANCH  20  21
ENDBRANCH   1  20
TORSDOF 5
ENDMDL
MODEL 9
REMARK VINA RESULT:      -8.7      1.872      5.366
REMARK  Name = 
REMARK  6 active torsions:
REMARK  status: ('A' for Active; 'I' for Inactive)
REMARK    1  A    between atoms: C_1  and  N_2
REMARK    2  A    between atoms: C_7  and  C_8
REMARK    3  A    between atoms: N_10  and  C_11
REMARK    4  A    between atoms: C_11  and  C_12
REMARK    5  A    between atoms: C_11  and  C_20
REMARK    6  A    between atoms: C_12  and  C_13
REMARK                            x       y       z     vdW  Elec       q    Type
REMARK                         _______ _______ _______ _____ _____    ______ ____
ROOT
ATOM      1  C   UNL     1       3.347   6.994  18.795  0.00  0.00    +0.000 C 
ENDROOT
BRANCH   1   2
ATOM      2  C   UNL     1       2.223   8.009  18.959  0.00  0.00    +0.000 A 
ATOM      3  C   UNL     1       1.721   8.774  17.892  0.00  0.00    +0.000 A 
ATOM      4  C   UNL     1       0.706   9.713  18.097  0.00  0.00    +0.000 A 
ATOM      5  C   UNL     1       0.161   9.885  19.367  0.00  0.00    +0.000 A 
ATOM      6  C   UNL     1       0.624   9.104  20.417  0.00  0.00    +0.000 A 
ATOM      7  F   UNL     1       0.090   9.255  21.637  0.00  0.00    +0.000 F 
ATOM      8  C   UNL     1       1.638   8.171  20.226  0.00  0.00    +0.000 A 
ENDBRANCH   1   2
BRANCH   1  11
ATOM      9  C   UNL     1       2.098   4.851  18.608  0.00  0.00    +0.000 C 
ATOM     10  O   UNL     1       1.599   5.142  17.525  0.00  0.00    +0.000 OA
ATOM     11  N   UNL     1       2.900   5.714  19.332  0.00  0.00    +0.000 N 
ATOM     12  H   UNL     1       3.364   5.346  20.154  0.00  0.00    +0.000 HD
BRANCH   9  19
ATOM     13  C   UNL     1       3.822   2.221  18.757  0.00  0.00    +0.000 C 
ATOM     14  N   UNL     1       2.930   2.812  19.733  0.00  0.00    +0.000 N 
ATOM     15  C   UNL     1       2.959   2.511  21.078  0.00  0.00    +0.000 C 
ATOM     16  O   UNL     1       3.821   1.871  21.655  0.00  0.00    +0.000 OA
ATOM     17  C   UNL     1       1.735   3.086  21.728  0.00  0.00    +0.000 C 
ATOM     18  C   UNL     1       0.982   3.808  20.620  0.00  0.00    +0.000 C 
ATOM     19  C   UNL     1       1.744   3.538  19.327  0.00  0.00    +0.000 C 
ENDBRANCH   9  19
ENDBRANCH   1  11
BRANCH   1  20
ATOM     20  C   UNL     1       3.858   6.881  17.331  0.00  0.00    +0.000 C 
BRANCH  20  21
ATOM     21  C   UNL     1       5.118   6.076  17.084  0.00  0.00    +0.000 A 
ATOM     22  C   UNL     1       6.291   6.235  17.835  0.00  0.00    +0.000 A 
ATOM     23  C   UNL     1       7.402   5.415  17.614  0.00  0.00    +0.000 A 
ATOM     24  C   UNL     1       7.371   4.454  16.608  0.00  0.00    +0.000 A 
ATOM     25  C   UNL     1       6.240   4.343  15.812  0.00  0.00    +0.000 A 
ATOM     26  F   UNL     1       6.215   3.441  14.821  0.00  0.00    +0.000 F 
ATOM     27  C   UNL     1       5.125   5.145  16.032  0.00  0.00    +0.000 A 
ENDBRANCH  20  21
ENDBRANCH   1  20
TORSDOF 5
ENDMDL
