MODEL 1
REMARK VINA RESULT:      -8.6      0.000      0.000
REMARK  Name = 
REMARK  7 active torsions:
REMARK  status: ('A' for Active; 'I' for Inactive)
REMARK    1  A    between atoms: C_1  and  C_2
REMARK    2  A    between atoms: N_4  and  C_5
REMARK    3  A    between atoms: C_5  and  C_6
REMARK    4  A    between atoms: C_8  and  C_9
REMARK    5  A    between atoms: C_9  and  C_10
REMARK    6  A    between atoms: C_13  and  C_14
REMARK    7  A    between atoms: N_27  and  C_28
REMARK                            x       y       z     vdW  Elec       q    Type
REMARK                         _______ _______ _______ _____ _____    ______ ____
ROOT
ATOM      1  C   UNL     1       1.715   8.625  19.391  0.00  0.00    +0.000 A 
ATOM      2  N   UNL     1       2.209   7.475  18.987  0.00  0.00    +0.000 NA
ATOM      3  C   UNL     1       1.996   6.666  20.077  0.00  0.00    +0.000 A 
ATOM      4  N   UNL     1       1.459   7.290  21.138  0.00  0.00    +0.000 NA
ATOM      5  O   UNL     1       1.269   8.595  20.681  0.00  0.00    +0.000 OA
ENDROOT
BRANCH   3   6
ATOM      6  C   UNL     1       2.210   5.144  20.024  0.00  0.00    +0.000 C 
ATOM      7  C   UNL     1       0.874   4.331  19.895  0.00  0.00    +0.000 C 
ATOM      8  C   UNL     1       1.435   3.355  20.947  0.00  0.00    +0.000 C 
ATOM      9  C   UNL     1       2.346   4.493  21.450  0.00  0.00    +0.000 C 
BRANCH   6  10
ATOM     10  C   UNL     1       3.381   4.780  18.964  0.00  0.00    +0.000 A 
ATOM     11  C   UNL     1       3.091   4.171  17.727  0.00  0.00    +0.000 A 
ATOM     12  C   UNL     1       4.056   4.013  16.728  0.00  0.00    +0.000 A 
ATOM     13  C   UNL     1       5.372   4.436  16.941  0.00  0.00    +0.000 A 
ATOM     14  C   UNL     1       5.711   4.955  18.195  0.00  0.00    +0.000 A 
ATOM     15  C   UNL     1       4.735   5.109  19.187  0.00  0.00    +0.000 A 
BRANCH  13  16
ATOM     16  C   UNL     1       6.397   4.375  15.838  0.00  0.00    +0.000 C 
ATOM     17  F   UNL     1       7.682   4.293  16.292  0.00  0.00    +0.000 F 
ATOM     18  F   UNL     1       6.222   3.291  15.031  0.00  0.00    +0.000 F 
ATOM     19  F   UNL     1       6.360   5.460  15.019  0.00  0.00    +0.000 F 
ENDBRANCH  13  16
ENDBRANCH   6  10
ENDBRANCH   3   6
BRANCH   1  20
ATOM     20  C   UNL     1       1.499   9.884  18.639  0.00  0.00    +0.000 C 
BRANCH  20  24
ATOM     21  C   UNL     1      -3.045   9.886  16.857  0.00  0.00    +0.000 C 
ATOM     22  C   UNL     1      -1.857  10.182  17.712  0.00  0.00    +0.000 A 
ATOM     23  N   UNL     1      -0.710   9.589  17.554  0.00  0.00    +0.000 NA
ATOM     24  N   UNL     1       0.083  10.142  18.535  0.00  0.00    +0.000 N 
ATOM     25  C   UNL     1      -0.630  11.106  19.248  0.00  0.00    +0.000 A 
ATOM     26  O   UNL     1      -0.222  11.813  20.152  0.00  0.00    +0.000 OA
ATOM     27  N   UNL     1      -1.893  11.087  18.709  0.00  0.00    +0.000 N 
ATOM     28  C   UNL     1      -2.987  11.920  19.151  0.00  0.00    +0.000 C 
ENDBRANCH  20  24
ENDBRANCH   1  20
TORSDOF 5
ENDMDL
MODEL 2
REMARK VINA RESULT:      -8.5      1.218      1.596
REMARK  Name = 
REMARK  7 active torsions:
REMARK  status: ('A' for Active; 'I' for Inactive)
REMARK    1  A    between atoms: C_1  and  C_2
REMARK    2  A    between atoms: N_4  and  C_5
REMARK    3  A    between atoms: C_5  and  C_6
REMARK    4  A    between atoms: C_8  and  C_9
REMARK    5  A    between atoms: C_9  and  C_10
REMARK    6  A    between atoms: C_13  and  C_14
REMARK    7  A    between atoms: N_27  and  C_28
REMARK                            x       y       z     vdW  Elec       q    Type
REMARK                         _______ _______ _______ _____ _____    ______ ____
ROOT
ATOM      1  C   UNL     1       1.299   8.181  20.897  0.00  0.00    +0.000 A 
ATOM      2  N   UNL     1       1.156   6.898  21.149  0.00  0.00    +0.000 NA
ATOM      3  C   UNL     1       1.870   6.318  20.129  0.00  0.00    +0.000 A 
ATOM      4  N   UNL     1       2.379   7.187  19.240  0.00  0.00    +0.000 NA
ATOM      5  O   UNL     1       2.001   8.428  19.751  0.00  0.00    +0.000 OA
ENDROOT
BRANCH   3   6
ATOM      6  C   UNL     1       2.189   4.814  20.102  0.00  0.00    +0.000 C 
ATOM      7  C   UNL     1       0.912   3.906  20.035  0.00  0.00    +0.000 C 
ATOM      8  C   UNL     1       1.572   2.997  21.090  0.00  0.00    +0.000 C 
ATOM      9  C   UNL     1       2.416   4.208  21.537  0.00  0.00    +0.000 C 
BRANCH   6  10
ATOM     10  C   UNL     1       3.350   4.507  19.013  0.00  0.00    +0.000 A 
ATOM     11  C   UNL     1       3.039   4.106  17.699  0.00  0.00    +0.000 A 
ATOM     12  C   UNL     1       4.010   4.011  16.698  0.00  0.00    +0.000 A 
ATOM     13  C   UNL     1       5.351   4.289  16.983  0.00  0.00    +0.000 A 
ATOM     14  C   UNL     1       5.704   4.594  18.302  0.00  0.00    +0.000 A 
ATOM     15  C   UNL     1       4.722   4.687  19.295  0.00  0.00    +0.000 A 
BRANCH  13  16
ATOM     16  C   UNL     1       6.393   4.299  15.893  0.00  0.00    +0.000 C 
ATOM     17  F   UNL     1       7.670   4.186  16.359  0.00  0.00    +0.000 F 
ATOM     18  F   UNL     1       6.229   3.270  15.015  0.00  0.00    +0.000 F 
ATOM     19  F   UNL     1       6.367   5.435  15.146  0.00  0.00    +0.000 F 
ENDBRANCH  13  16
ENDBRANCH   6  10
ENDBRANCH   3   6
BRANCH   1  20
ATOM     20  C   UNL     1       0.895   9.359  21.701  0.00  0.00    +0.000 C 
BRANCH  20  24
ATOM     21  C   UNL     1      -1.940  11.242  18.201  0.00  0.00    +0.000 C 
ATOM     22  C   UNL     1      -0.915  11.113  19.281  0.00  0.00    +0.000 A 
ATOM     23  N   UNL     1      -0.747  10.021  19.966  0.00  0.00    +0.000 NA
ATOM     24  N   UNL     1       0.270  10.334  20.839  0.00  0.00    +0.000 N 
ATOM     25  C   UNL     1       0.717  11.637  20.615  0.00  0.00    +0.000 A 
ATOM     26  O   UNL     1       1.628  12.217  21.180  0.00  0.00    +0.000 OA
ATOM     27  N   UNL     1      -0.092  12.125  19.617  0.00  0.00    +0.000 N 
ATOM     28  C   UNL     1      -0.003  13.457  19.066  0.00  0.00    +0.000 C 
ENDBRANCH  20  24
ENDBRANCH   1  20
TORSDOF 5
ENDMDL
MODEL 3
REMARK VINA RESULT:      -8.3      0.663      1.102
REMARK  Name = 
REMARK  7 active torsions:
REMARK  status: ('A' for Active; 'I' for Inactive)
REMARK    1  A    between atoms: C_1  and  C_2
REMARK    2  A    between atoms: N_4  and  C_5
REMARK    3  A    between atoms: C_5  and  C_6
REMARK    4  A    between atoms: C_8  and  C_9
REMARK    5  A    between atoms: C_9  and  C_10
REMARK    6  A    between atoms: C_13  and  C_14
REMARK    7  A    between atoms: N_27  and  C_28
REMARK                            x       y       z     vdW  Elec       q    Type
REMARK                         _______ _______ _______ _____ _____    ______ ____
ROOT
ATOM      1  C   UNL     1       1.338   8.781  19.983  0.00  0.00    +0.000 A 
ATOM      2  N   UNL     1       2.076   7.791  19.529  0.00  0.00    +0.000 NA
ATOM      3  C   UNL     1       1.715   6.755  20.357  0.00  0.00    +0.000 A 
ATOM      4  N   UNL     1       0.846   7.091  21.324  0.00  0.00    +0.000 NA
ATOM      5  O   UNL     1       0.593   8.440  21.075  0.00  0.00    +0.000 OA
ENDROOT
BRANCH   3   6
ATOM      6  C   UNL     1       2.149   5.304  20.092  0.00  0.00    +0.000 C 
ATOM      7  C   UNL     1       0.953   4.346  19.755  0.00  0.00    +0.000 C 
ATOM      8  C   UNL     1       1.601   3.303  20.685  0.00  0.00    +0.000 C 
ATOM      9  C   UNL     1       2.315   4.461  21.411  0.00  0.00    +0.000 C 
BRANCH   6  10
ATOM     10  C   UNL     1       3.407   5.274  19.069  0.00  0.00    +0.000 A 
ATOM     11  C   UNL     1       4.734   5.359  19.533  0.00  0.00    +0.000 A 
ATOM     12  C   UNL     1       5.833   5.155  18.694  0.00  0.00    +0.000 A 
ATOM     13  C   UNL     1       5.645   4.884  17.335  0.00  0.00    +0.000 A 
ATOM     14  C   UNL     1       4.342   4.890  16.827  0.00  0.00    +0.000 A 
ATOM     15  C   UNL     1       3.250   5.094  17.678  0.00  0.00    +0.000 A 
BRANCH  13  16
ATOM     16  C   UNL     1       6.811   4.553  16.438  0.00  0.00    +0.000 C 
ATOM     17  F   UNL     1       7.930   4.168  17.118  0.00  0.00    +0.000 F 
ATOM     18  F   UNL     1       6.529   3.531  15.583  0.00  0.00    +0.000 F 
ATOM     19  F   UNL     1       7.192   5.600  15.657  0.00  0.00    +0.000 F 
ENDBRANCH  13  16
ENDBRANCH   6  10
ENDBRANCH   3   6
BRANCH   1  20
ATOM     20  C   UNL     1       1.140  10.146  19.439  0.00  0.00    +0.000 C 
BRANCH  20  24
ATOM     21  C   UNL     1      -2.553   9.843  16.261  0.00  0.00    +0.000 C 
ATOM     22  C   UNL     1      -1.753  10.170  17.480  0.00  0.00    +0.000 A 
ATOM     23  N   UNL     1      -0.544   9.731  17.668  0.00  0.00    +0.000 NA
ATOM     24  N   UNL     1      -0.191  10.254  18.892  0.00  0.00    +0.000 N 
ATOM     25  C   UNL     1      -1.224  11.044  19.396  0.00  0.00    +0.000 A 
ATOM     26  O   UNL     1      -1.230  11.685  20.433  0.00  0.00    +0.000 OA
ATOM     27  N   UNL     1      -2.234  10.945  18.470  0.00  0.00    +0.000 N 
ATOM     28  C   UNL     1      -3.519  11.595  18.585  0.00  0.00    +0.000 C 
ENDBRANCH  20  24
ENDBRANCH   1  20
TORSDOF 5
ENDMDL
MODEL 4
REMARK VINA RESULT:      -8.3      0.809      1.196
REMARK  Name = 
REMARK  7 active torsions:
REMARK  status: ('A' for Active; 'I' for Inactive)
REMARK    1  A    between atoms: C_1  and  C_2
REMARK    2  A    between atoms: N_4  and  C_5
REMARK    3  A    between atoms: C_5  and  C_6
REMARK    4  A    between atoms: C_8  and  C_9
REMARK    5  A    between atoms: C_9  and  C_10
REMARK    6  A    between atoms: C_13  and  C_14
REMARK    7  A    between atoms: N_27  and  C_28
REMARK                            x       y       z     vdW  Elec       q    Type
REMARK                         _______ _______ _______ _____ _____    ______ ____
ROOT
ATOM      1  C   UNL     1       1.768   8.404  19.505  0.00  0.00    +0.000 A 
ATOM      2  N   UNL     1       2.355   7.280  19.156  0.00  0.00    +0.000 NA
ATOM      3  C   UNL     1       1.963   6.422  20.155  0.00  0.00    +0.000 A 
ATOM      4  N   UNL     1       1.223   6.992  21.121  0.00  0.00    +0.000 NA
ATOM      5  O   UNL     1       1.091   8.312  20.688  0.00  0.00    +0.000 OA
ENDROOT
BRANCH   3   6
ATOM      6  C   UNL     1       2.218   4.908  20.083  0.00  0.00    +0.000 C 
ATOM      7  C   UNL     1       0.904   4.059  19.956  0.00  0.00    +0.000 C 
ATOM      8  C   UNL     1       1.501   3.087  20.992  0.00  0.00    +0.000 C 
ATOM      9  C   UNL     1       2.385   4.244  21.500  0.00  0.00    +0.000 C 
BRANCH   6  10
ATOM     10  C   UNL     1       3.389   4.588  19.009  0.00  0.00    +0.000 A 
ATOM     11  C   UNL     1       3.094   4.101  17.720  0.00  0.00    +0.000 A 
ATOM     12  C   UNL     1       4.067   3.990  16.723  0.00  0.00    +0.000 A 
ATOM     13  C   UNL     1       5.395   4.337  16.987  0.00  0.00    +0.000 A 
ATOM     14  C   UNL     1       5.736   4.730  18.286  0.00  0.00    +0.000 A 
ATOM     15  C   UNL     1       4.753   4.839  19.276  0.00  0.00    +0.000 A 
BRANCH  13  16
ATOM     16  C   UNL     1       6.435   4.329  15.896  0.00  0.00    +0.000 C 
ATOM     17  F   UNL     1       6.444   5.466  15.143  0.00  0.00    +0.000 F 
ATOM     18  F   UNL     1       7.699   4.203  16.390  0.00  0.00    +0.000 F 
ATOM     19  F   UNL     1       6.273   3.302  15.019  0.00  0.00    +0.000 F 
ENDBRANCH  13  16
ENDBRANCH   6  10
ENDBRANCH   3   6
BRANCH   1  20
ATOM     20  C   UNL     1       1.666   9.691  18.776  0.00  0.00    +0.000 C 
BRANCH  20  24
ATOM     21  C   UNL     1      -2.873  11.478  18.608  0.00  0.00    +0.000 C 
ATOM     22  C   UNL     1      -1.478  11.189  19.057  0.00  0.00    +0.000 A 
ATOM     23  N   UNL     1      -0.704  10.339  18.449  0.00  0.00    +0.000 NA
ATOM     24  N   UNL     1       0.461  10.375  19.182  0.00  0.00    +0.000 N 
ATOM     25  C   UNL     1       0.355  11.304  20.217  0.00  0.00    +0.000 A 
ATOM     26  O   UNL     1       1.211  11.616  21.026  0.00  0.00    +0.000 OA
ATOM     27  N   UNL     1      -0.926  11.793  20.126  0.00  0.00    +0.000 N 
ATOM     28  C   UNL     1      -1.492  12.780  21.016  0.00  0.00    +0.000 C 
ENDBRANCH  20  24
ENDBRANCH   1  20
TORSDOF 5
ENDMDL
MODEL 5
REMARK VINA RESULT:      -8.2      1.352      1.839
REMARK  Name = 
REMARK  7 active torsions:
REMARK  status: ('A' for Active; 'I' for Inactive)
REMARK    1  A    between atoms: C_1  and  C_2
REMARK    2  A    between atoms: N_4  and  C_5
REMARK    3  A    between atoms: C_5  and  C_6
REMARK    4  A    between atoms: C_8  and  C_9
REMARK    5  A    between atoms: C_9  and  C_10
REMARK    6  A    between atoms: C_13  and  C_14
REMARK    7  A    between atoms: N_27  and  C_28
REMARK                            x       y       z     vdW  Elec       q    Type
REMARK                         _______ _______ _______ _____ _____    ______ ____
ROOT
ATOM      1  C   UNL     1       1.407   8.127  20.970  0.00  0.00    +0.000 A 
ATOM      2  N   UNL     1       1.295   6.840  21.215  0.00  0.00    +0.000 NA
ATOM      3  C   UNL     1       1.857   6.279  20.094  0.00  0.00    +0.000 A 
ATOM      4  N   UNL     1       2.240   7.164  19.160  0.00  0.00    +0.000 NA
ATOM      5  O   UNL     1       1.943   8.396  19.743  0.00  0.00    +0.000 OA
ENDROOT
BRANCH   3   6
ATOM      6  C   UNL     1       2.163   4.775  19.994  0.00  0.00    +0.000 C 
ATOM      7  C   UNL     1       0.889   3.895  19.747  0.00  0.00    +0.000 C 
ATOM      8  C   UNL     1       1.438   2.906  20.793  0.00  0.00    +0.000 C 
ATOM      9  C   UNL     1       2.248   4.071  21.399  0.00  0.00    +0.000 C 
BRANCH   6  10
ATOM     10  C   UNL     1       3.418   4.524  18.999  0.00  0.00    +0.000 A 
ATOM     11  C   UNL     1       3.234   4.025  17.695  0.00  0.00    +0.000 A 
ATOM     12  C   UNL     1       4.274   3.971  16.763  0.00  0.00    +0.000 A 
ATOM     13  C   UNL     1       5.561   4.391  17.113  0.00  0.00    +0.000 A 
ATOM     14  C   UNL     1       5.795   4.799  18.430  0.00  0.00    +0.000 A 
ATOM     15  C   UNL     1       4.745   4.850  19.354  0.00  0.00    +0.000 A 
BRANCH  13  16
ATOM     16  C   UNL     1       6.668   4.443  16.091  0.00  0.00    +0.000 C 
ATOM     17  F   UNL     1       6.469   3.611  15.028  0.00  0.00    +0.000 F 
ATOM     18  F   UNL     1       6.822   5.689  15.560  0.00  0.00    +0.000 F 
ATOM     19  F   UNL     1       7.881   4.106  16.607  0.00  0.00    +0.000 F 
ENDBRANCH  13  16
ENDBRANCH   6  10
ENDBRANCH   3   6
BRANCH   1  20
ATOM     20  C   UNL     1       1.124   9.291  21.845  0.00  0.00    +0.000 C 
BRANCH  20  24
ATOM     21  C   UNL     1      -1.703  11.342  18.435  0.00  0.00    +0.000 C 
ATOM     22  C   UNL     1      -1.079  11.016  19.753  0.00  0.00    +0.000 A 
ATOM     23  N   UNL     1      -0.221  10.051  19.907  0.00  0.00    +0.000 NA
ATOM     24  N   UNL     1       0.086  10.096  21.248  0.00  0.00    +0.000 N 
ATOM     25  C   UNL     1      -0.595  11.146  21.866  0.00  0.00    +0.000 A 
ATOM     26  O   UNL     1      -0.523  11.493  23.032  0.00  0.00    +0.000 OA
ATOM     27  N   UNL     1      -1.364  11.704  20.874  0.00  0.00    +0.000 N 
ATOM     28  C   UNL     1      -2.257  12.825  21.061  0.00  0.00    +0.000 C 
ENDBRANCH  20  24
ENDBRANCH   1  20
TORSDOF 5
ENDMDL
MODEL 6
REMARK VINA RESULT:      -8.2      4.834      8.400
REMARK  Name = 
REMARK  7 active torsions:
REMARK  status: ('A' for Active; 'I' for Inactive)
REMARK    1  A    between atoms: C_1  and  C_2
REMARK    2  A    between atoms: N_4  and  C_5
REMARK    3  A    between atoms: C_5  and  C_6
REMARK    4  A    between atoms: C_8  and  C_9
REMARK    5  A    between atoms: C_9  and  C_10
REMARK    6  A    between atoms: C_13  and  C_14
REMARK    7  A    between atoms: N_27  and  C_28
REMARK                            x       y       z     vdW  Elec       q    Type
REMARK                         _______ _______ _______ _____ _____    ______ ____
ROOT
ATOM      1  C   UNL     1       2.617   7.629  18.314  0.00  0.00    +0.000 A 
ATOM      2  N   UNL     1       1.939   7.981  19.384  0.00  0.00    +0.000 NA
ATOM      3  C   UNL     1       1.427   9.203  19.016  0.00  0.00    +0.000 A 
ATOM      4  N   UNL     1       1.819   9.629  17.804  0.00  0.00    +0.000 NA
ATOM      5  O   UNL     1       2.610   8.581  17.334  0.00  0.00    +0.000 OA
ENDROOT
BRANCH   3   6
ATOM      6  C   UNL     1       0.371   9.937  19.858  0.00  0.00    +0.000 C 
ATOM      7  C   UNL     1       0.977  11.039  20.796  0.00  0.00    +0.000 C 
ATOM      8  C   UNL     1       0.040  10.527  21.907  0.00  0.00    +0.000 C 
ATOM      9  C   UNL     1      -0.005   9.168  21.179  0.00  0.00    +0.000 C 
BRANCH   6  10
ATOM     10  C   UNL     1      -0.874  10.390  18.924  0.00  0.00    +0.000 A 
ATOM     11  C   UNL     1      -1.253   9.644  17.791  0.00  0.00    +0.000 A 
ATOM     12  C   UNL     1      -2.426   9.912  17.079  0.00  0.00    +0.000 A 
ATOM     13  C   UNL     1      -3.260  10.968  17.459  0.00  0.00    +0.000 A 
ATOM     14  C   UNL     1      -2.859  11.786  18.521  0.00  0.00    +0.000 A 
ATOM     15  C   UNL     1      -1.683  11.507  19.227  0.00  0.00    +0.000 A 
BRANCH  13  16
ATOM     16  C   UNL     1      -4.581  11.203  16.773  0.00  0.00    +0.000 C 
ATOM     17  F   UNL     1      -4.643  10.679  15.515  0.00  0.00    +0.000 F 
ATOM     18  F   UNL     1      -5.622  10.648  17.455  0.00  0.00    +0.000 F 
ATOM     19  F   UNL     1      -4.883  12.523  16.642  0.00  0.00    +0.000 F 
ENDBRANCH  13  16
ENDBRANCH   6  10
ENDBRANCH   3   6
BRANCH   1  20
ATOM     20  C   UNL     1       3.293   6.348  17.995  0.00  0.00    +0.000 C 
BRANCH  20  24
ATOM     21  C   UNL     1       2.469   3.046  21.495  0.00  0.00    +0.000 C 
ATOM     22  C   UNL     1       2.364   3.820  20.221  0.00  0.00    +0.000 A 
ATOM     23  N   UNL     1       3.067   4.888  19.985  0.00  0.00    +0.000 NA
ATOM     24  N   UNL     1       2.661   5.278  18.730  0.00  0.00    +0.000 N 
ATOM     25  C   UNL     1       1.721   4.380  18.224  0.00  0.00    +0.000 A 
ATOM     26  O   UNL     1       1.187   4.402  17.129  0.00  0.00    +0.000 OA
ATOM     27  N   UNL     1       1.529   3.462  19.228  0.00  0.00    +0.000 N 
ATOM     28  C   UNL     1       0.619   2.343  19.153  0.00  0.00    +0.000 C 
ENDBRANCH  20  24
ENDBRANCH   1  20
TORSDOF 5
ENDMDL
MODEL 7
REMARK VINA RESULT:      -8.1      4.932      8.320
REMARK  Name = 
REMARK  7 active torsions:
REMARK  status: ('A' for Active; 'I' for Inactive)
REMARK    1  A    between atoms: C_1  and  C_2
REMARK    2  A    between atoms: N_4  and  C_5
REMARK    3  A    between atoms: C_5  and  C_6
REMARK    4  A    between atoms: C_8  and  C_9
REMARK    5  A    between atoms: C_9  and  C_10
REMARK    6  A    between atoms: C_13  and  C_14
REMARK    7  A    between atoms: N_27  and  C_28
REMARK                            x       y       z     vdW  Elec       q    Type
REMARK                         _______ _______ _______ _____ _____    ______ ____
ROOT
ATOM      1  C   UNL     1       6.011   5.688  17.405  0.00  0.00    +0.000 A 
ATOM      2  N   UNL     1       5.172   5.316  18.347  0.00  0.00    +0.000 NA
ATOM      3  C   UNL     1       4.129   6.193  18.174  0.00  0.00    +0.000 A 
ATOM      4  N   UNL     1       4.328   7.114  17.217  0.00  0.00    +0.000 NA
ATOM      5  O   UNL     1       5.580   6.777  16.702  0.00  0.00    +0.000 OA
ENDROOT
BRANCH   3   6
ATOM      6  C   UNL     1       2.787   6.028  18.907  0.00  0.00    +0.000 C 
ATOM      7  C   UNL     1       2.867   5.069  20.145  0.00  0.00    +0.000 C 
ATOM      8  C   UNL     1       1.535   4.451  19.681  0.00  0.00    +0.000 C 
ATOM      9  C   UNL     1       1.861   4.936  18.254  0.00  0.00    +0.000 C 
BRANCH   6  10
ATOM     10  C   UNL     1       2.105   7.476  19.159  0.00  0.00    +0.000 A 
ATOM     11  C   UNL     1       1.845   8.363  18.095  0.00  0.00    +0.000 A 
ATOM     12  C   UNL     1       1.099   9.533  18.263  0.00  0.00    +0.000 A 
ATOM     13  C   UNL     1       0.603   9.881  19.523  0.00  0.00    +0.000 A 
ATOM     14  C   UNL     1       0.928   9.070  20.616  0.00  0.00    +0.000 A 
ATOM     15  C   UNL     1       1.675   7.901  20.435  0.00  0.00    +0.000 A 
BRANCH  13  16
ATOM     16  C   UNL     1      -0.295  11.078  19.703  0.00  0.00    +0.000 C 
ATOM     17  F   UNL     1       0.360  12.271  19.599  0.00  0.00    +0.000 F 
ATOM     18  F   UNL     1      -1.289  11.121  18.772  0.00  0.00    +0.000 F 
ATOM     19  F   UNL     1      -0.916  11.098  20.913  0.00  0.00    +0.000 F 
ENDBRANCH  13  16
ENDBRANCH   6  10
ENDBRANCH   3   6
BRANCH   1  20
ATOM     20  C   UNL     1       7.274   5.058  16.953  0.00  0.00    +0.000 C 
BRANCH  20  24
ATOM     21  C   UNL     1       7.821   5.523  12.124  0.00  0.00    +0.000 C 
ATOM     22  C   UNL     1       7.379   5.021  13.460  0.00  0.00    +0.000 A 
ATOM     23  N   UNL     1       7.837   5.499  14.579  0.00  0.00    +0.000 NA
ATOM     24  N   UNL     1       7.184   4.764  15.542  0.00  0.00    +0.000 N 
ATOM     25  C   UNL     1       6.299   3.864  14.947  0.00  0.00    +0.000 A 
ATOM     26  O   UNL     1       5.537   3.093  15.505  0.00  0.00    +0.000 OA
ATOM     27  N   UNL     1       6.471   4.036  13.595  0.00  0.00    +0.000 N 
ATOM     28  C   UNL     1       5.765   3.294  12.577  0.00  0.00    +0.000 C 
ENDBRANCH  20  24
ENDBRANCH   1  20
TORSDOF 5
ENDMDL
MODEL 8
REMARK VINA RESULT:      -8.0      1.016      1.663
REMARK  Name = 
REMARK  7 active torsions:
REMARK  status: ('A' for Active; 'I' for Inactive)
REMARK    1  A    between atoms: C_1  and  C_2
REMARK    2  A    between atoms: N_4  and  C_5
REMARK    3  A    between atoms: C_5  and  C_6
REMARK    4  A    between atoms: C_8  and  C_9
REMARK    5  A    between atoms: C_9  and  C_10
REMARK    6  A    between atoms: C_13  and  C_14
REMARK    7  A    between atoms: N_27  and  C_28
REMARK                            x       y       z     vdW  Elec       q    Type
REMARK                         _______ _______ _______ _____ _____    ______ ____
ROOT
ATOM      1  C   UNL     1       1.742   8.672  19.095  0.00  0.00    +0.000 A 
ATOM      2  N   UNL     1       2.318   7.524  18.811  0.00  0.00    +0.000 NA
ATOM      3  C   UNL     1       1.993   6.756  19.903  0.00  0.00    +0.000 A 
ATOM      4  N   UNL     1       1.307   7.406  20.858  0.00  0.00    +0.000 NA
ATOM      5  O   UNL     1       1.137   8.682  20.320  0.00  0.00    +0.000 OA
ENDROOT
BRANCH   3   6
ATOM      6  C   UNL     1       2.257   5.242  19.950  0.00  0.00    +0.000 C 
ATOM      7  C   UNL     1       0.961   4.377  19.772  0.00  0.00    +0.000 C 
ATOM      8  C   UNL     1       1.473   3.478  20.913  0.00  0.00    +0.000 C 
ATOM      9  C   UNL     1       2.309   4.672  21.416  0.00  0.00    +0.000 C 
BRANCH   6  10
ATOM     10  C   UNL     1       3.513   4.863  18.998  0.00  0.00    +0.000 A 
ATOM     11  C   UNL     1       3.325   4.303  17.719  0.00  0.00    +0.000 A 
ATOM     12  C   UNL     1       4.377   4.137  16.814  0.00  0.00    +0.000 A 
ATOM     13  C   UNL     1       5.680   4.501  17.168  0.00  0.00    +0.000 A 
ATOM     14  C   UNL     1       5.913   4.969  18.466  0.00  0.00    +0.000 A 
ATOM     15  C   UNL     1       4.850   5.132  19.363  0.00  0.00    +0.000 A 
BRANCH  13  16
ATOM     16  C   UNL     1       6.807   4.432  16.170  0.00  0.00    +0.000 C 
ATOM     17  F   UNL     1       7.030   5.609  15.516  0.00  0.00    +0.000 F 
ATOM     18  F   UNL     1       7.994   4.105  16.754  0.00  0.00    +0.000 F 
ATOM     19  F   UNL     1       6.599   3.500  15.201  0.00  0.00    +0.000 F 
ENDBRANCH  13  16
ENDBRANCH   6  10
ENDBRANCH   3   6
BRANCH   1  20
ATOM     20  C   UNL     1       1.585   9.889  18.263  0.00  0.00    +0.000 C 
BRANCH  20  24
ATOM     21  C   UNL     1      -1.320  12.632  21.066  0.00  0.00    +0.000 C 
ATOM     22  C   UNL     1      -0.833  11.755  19.959  0.00  0.00    +0.000 A 
ATOM     23  N   UNL     1       0.414  11.408  19.832  0.00  0.00    +0.000 NA
ATOM     24  N   UNL     1       0.422  10.622  18.702  0.00  0.00    +0.000 N 
ATOM     25  C   UNL     1      -0.871  10.489  18.194  0.00  0.00    +0.000 A 
ATOM     26  O   UNL     1      -1.227   9.833  17.232  0.00  0.00    +0.000 OA
ATOM     27  N   UNL     1      -1.657  11.260  19.016  0.00  0.00    +0.000 N 
ATOM     28  C   UNL     1      -3.082  11.437  18.859  0.00  0.00    +0.000 C 
ENDBRANCH  20  24
ENDBRANCH   1  20
TORSDOF 5
ENDMDL
MODEL 9
REMARK VINA RESULT:      -7.9      4.841      8.669
REMARK  Name = 
REMARK  7 active torsions:
REMARK  status: ('A' for Active; 'I' for Inactive)
REMARK    1  A    between atoms: C_1  and  C_2
REMARK    2  A    between atoms: N_4  and  C_5
REMARK    3  A    between atoms: C_5  and  C_6
REMARK    4  A    between atoms: C_8  and  C_9
REMARK    5  A    between atoms: C_9  and  C_10
REMARK    6  A    between atoms: C_13  and  C_14
REMARK    7  A    between atoms: N_27  and  C_28
REMARK                            x       y       z     vdW  Elec       q    Type
REMARK                         _______ _______ _______ _____ _____    ______ ____
ROOT
ATOM      1  C   UNL     1       2.580   7.806  18.414  0.00  0.00    +0.000 A 
ATOM      2  N   UNL     1       2.060   8.947  18.014  0.00  0.00    +0.000 NA
ATOM      3  C   UNL     1       1.389   9.371  19.136  0.00  0.00    +0.000 A 
ATOM      4  N   UNL     1       1.426   8.511  20.167  0.00  0.00    +0.000 NA
ATOM      5  O   UNL     1       2.221   7.469  19.688  0.00  0.00    +0.000 OA
ENDROOT
BRANCH   3   6
ATOM      6  C   UNL     1       0.785  10.781  19.246  0.00  0.00    +0.000 C 
ATOM      7  C   UNL     1       1.708  11.903  18.654  0.00  0.00    +0.000 C 
ATOM      8  C   UNL     1       1.364  12.758  19.889  0.00  0.00    +0.000 C 
ATOM      9  C   UNL     1       1.044  11.452  20.646  0.00  0.00    +0.000 C 
BRANCH   6  10
ATOM     10  C   UNL     1      -0.755  10.772  18.740  0.00  0.00    +0.000 A 
ATOM     11  C   UNL     1      -1.728  11.602  19.329  0.00  0.00    +0.000 A 
ATOM     12  C   UNL     1      -3.012  11.743  18.794  0.00  0.00    +0.000 A 
ATOM     13  C   UNL     1      -3.387  11.027  17.653  0.00  0.00    +0.000 A 
ATOM     14  C   UNL     1      -2.473  10.120  17.105  0.00  0.00    +0.000 A 
ATOM     15  C   UNL     1      -1.190   9.989  17.648  0.00  0.00    +0.000 A 
BRANCH  13  16
ATOM     16  C   UNL     1      -4.727  11.248  17.000  0.00  0.00    +0.000 C 
ATOM     17  F   UNL     1      -5.081  12.563  16.913  0.00  0.00    +0.000 F 
ATOM     18  F   UNL     1      -4.763  10.771  15.724  0.00  0.00    +0.000 F 
ATOM     19  F   UNL     1      -5.745  10.631  17.658  0.00  0.00    +0.000 F 
ENDBRANCH  13  16
ENDBRANCH   6  10
ENDBRANCH   3   6
BRANCH   1  20
ATOM     20  C   UNL     1       3.541   6.908  17.731  0.00  0.00    +0.000 C 
BRANCH  20  24
ATOM     21  C   UNL     1       1.186   2.719  18.587  0.00  0.00    +0.000 C 
ATOM     22  C   UNL     1       2.246   3.771  18.564  0.00  0.00    +0.000 A 
ATOM     23  N   UNL     1       2.117   4.887  17.908  0.00  0.00    +0.000 NA
ATOM     24  N   UNL     1       3.302   5.547  18.147  0.00  0.00    +0.000 N 
ATOM     25  C   UNL     1       4.113   4.794  18.997  0.00  0.00    +0.000 A 
ATOM     26  O   UNL     1       5.206   5.098  19.441  0.00  0.00    +0.000 OA
ATOM     27  N   UNL     1       3.411   3.635  19.225  0.00  0.00    +0.000 N 
ATOM     28  C   UNL     1       3.877   2.542  20.046  0.00  0.00    +0.000 C 
ENDBRANCH  20  24
ENDBRANCH   1  20
TORSDOF 5
ENDMDL
