MODEL 1
REMARK VINA RESULT:      -8.6      0.000      0.000
REMARK  Name = 
REMARK  8 active torsions:
REMARK  status: ('A' for Active; 'I' for Inactive)
REMARK    1  A    between atoms: C_1  and  C_2
REMARK    2  A    between atoms: C_2  and  C_3
REMARK    3  A    between atoms: C_3  and  N_4
REMARK    4  A    between atoms: C_6  and  C_7
REMARK    5  A    between atoms: N_9  and  C_10
REMARK    6  A    between atoms: C_10  and  C_11
REMARK    7  A    between atoms: C_14  and  C_15
REMARK    8  A    between atoms: C_15  and  N_16
REMARK                            x       y       z     vdW  Elec       q    Type
REMARK                         _______ _______ _______ _____ _____    ______ ____
ROOT
ATOM      1  C   UNL     1       1.863   7.886  19.828  0.00  0.00    +0.000 C 
ATOM      2  O   UNL     1       1.706   7.870  21.041  0.00  0.00    +0.000 OA
ATOM      3  N   UNL     1       1.462   8.905  18.996  0.00  0.00    +0.000 N 
ATOM      4  H   UNL     1       1.788   8.872  18.035  0.00  0.00    +0.000 HD
ENDROOT
BRANCH   1   7
ATOM      5  N   UNL     1       4.186   6.037  17.616  0.00  0.00    +0.000 N 
ATOM      6  N   UNL     1       3.446   7.045  18.203  0.00  0.00    +0.000 NA
ATOM      7  C   UNL     1       2.581   6.727  19.127  0.00  0.00    +0.000 A 
ATOM      8  C   UNL     1       2.285   5.332  19.516  0.00  0.00    +0.000 A 
ATOM      9  C   UNL     1       1.230   4.965  20.360  0.00  0.00    +0.000 A 
ATOM     10  C   UNL     1       0.998   3.618  20.654  0.00  0.00    +0.000 A 
ATOM     11  C   UNL     1       1.813   2.630  20.107  0.00  0.00    +0.000 A 
ATOM     12  C   UNL     1       2.865   2.988  19.268  0.00  0.00    +0.000 A 
ATOM     13  C   UNL     1       3.093   4.341  18.972  0.00  0.00    +0.000 A 
ATOM     14  C   UNL     1       4.166   4.708  18.037  0.00  0.00    +0.000 A 
ATOM     15  O   UNL     1       4.948   3.844  17.648  0.00  0.00    +0.000 OA
BRANCH   5  16
ATOM     16  C   UNL     1       5.141   6.434  16.582  0.00  0.00    +0.000 C 
BRANCH  16  18
ATOM     17  C   UNL     1       7.400   6.373  17.759  0.00  0.00    +0.000 C 
ATOM     18  C   UNL     1       6.322   7.244  17.130  0.00  0.00    +0.000 C 
ENDBRANCH  16  18
ENDBRANCH   5  16
ENDBRANCH   1   7
BRANCH   3  19
ATOM     19  C   UNL     1       0.835  10.111  19.497  0.00  0.00    +0.000 C 
BRANCH  19  20
ATOM     20  C   UNL     1      -0.473  10.394  18.800  0.00  0.00    +0.000 A 
ATOM     21  C   UNL     1      -0.859   9.648  17.678  0.00  0.00    +0.000 A 
ATOM     22  C   UNL     1      -2.039   9.946  16.989  0.00  0.00    +0.000 A 
ATOM     23  C   UNL     1      -2.857  11.005  17.402  0.00  0.00    +0.000 A 
ATOM     24  C   UNL     1      -2.507  11.708  18.564  0.00  0.00    +0.000 A 
ATOM     25  C   UNL     1      -1.327  11.410  19.253  0.00  0.00    +0.000 A 
BRANCH  23  26
ATOM     26  C   UNL     1      -4.044  11.435  16.578  0.00  0.00    +0.000 C 
BRANCH  26  27
ATOM     27  N   UNL     1      -5.303  11.430  17.308  0.00  0.00    +0.000 N 
ATOM     28  C   UNL     1      -6.207  12.458  17.372  0.00  0.00    +0.000 A 
ATOM     29  C   UNL     1      -7.106  12.118  18.356  0.00  0.00    +0.000 A 
ATOM     30  C   UNL     1      -6.664  10.869  18.826  0.00  0.00    +0.000 A 
ATOM     31  N   UNL     1      -5.563  10.447  18.197  0.00  0.00    +0.000 NA
ENDBRANCH  26  27
ENDBRANCH  23  26
ENDBRANCH  19  20
ENDBRANCH   3  19
TORSDOF 7
ENDMDL
MODEL 2
REMARK VINA RESULT:      -8.3      0.521      1.167
REMARK  Name = 
REMARK  8 active torsions:
REMARK  status: ('A' for Active; 'I' for Inactive)
REMARK    1  A    between atoms: C_1  and  C_2
REMARK    2  A    between atoms: C_2  and  C_3
REMARK    3  A    between atoms: C_3  and  N_4
REMARK    4  A    between atoms: C_6  and  C_7
REMARK    5  A    between atoms: N_9  and  C_10
REMARK    6  A    between atoms: C_10  and  C_11
REMARK    7  A    between atoms: C_14  and  C_15
REMARK    8  A    between atoms: C_15  and  N_16
REMARK                            x       y       z     vdW  Elec       q    Type
REMARK                         _______ _______ _______ _____ _____    ______ ____
ROOT
ATOM      1  C   UNL     1       1.785   7.855  20.069  0.00  0.00    +0.000 C 
ATOM      2  O   UNL     1       1.562   7.812  21.271  0.00  0.00    +0.000 OA
ATOM      3  N   UNL     1       1.372   8.861  19.227  0.00  0.00    +0.000 N 
ATOM      4  H   UNL     1       1.752   8.861  18.286  0.00  0.00    +0.000 HD
ENDROOT
BRANCH   1   7
ATOM      5  N   UNL     1       4.371   6.176  18.019  0.00  0.00    +0.000 N 
ATOM      6  N   UNL     1       3.542   7.134  18.570  0.00  0.00    +0.000 NA
ATOM      7  C   UNL     1       2.608   6.750  19.397  0.00  0.00    +0.000 A 
ATOM      8  C   UNL     1       2.331   5.331  19.705  0.00  0.00    +0.000 A 
ATOM      9  C   UNL     1       1.217   4.896  20.432  0.00  0.00    +0.000 A 
ATOM     10  C   UNL     1       1.010   3.530  20.654  0.00  0.00    +0.000 A 
ATOM     11  C   UNL     1       1.908   2.593  20.150  0.00  0.00    +0.000 A 
ATOM     12  C   UNL     1       3.018   3.021  19.428  0.00  0.00    +0.000 A 
ATOM     13  C   UNL     1       3.222   4.391  19.203  0.00  0.00    +0.000 A 
ATOM     14  C   UNL     1       4.363   4.831  18.388  0.00  0.00    +0.000 A 
ATOM     15  O   UNL     1       5.209   4.011  18.042  0.00  0.00    +0.000 OA
BRANCH   5  16
ATOM     16  C   UNL     1       5.402   6.647  17.095  0.00  0.00    +0.000 C 
BRANCH  16  18
ATOM     17  C   UNL     1       5.990   5.345  14.985  0.00  0.00    +0.000 C 
ATOM     18  C   UNL     1       5.066   6.371  15.624  0.00  0.00    +0.000 C 
ENDBRANCH  16  18
ENDBRANCH   5  16
ENDBRANCH   1   7
BRANCH   3  19
ATOM     19  C   UNL     1       0.648  10.021  19.705  0.00  0.00    +0.000 C 
BRANCH  19  20
ATOM     20  C   UNL     1      -0.492  10.389  18.787  0.00  0.00    +0.000 A 
ATOM     21  C   UNL     1      -1.253  11.542  19.022  0.00  0.00    +0.000 A 
ATOM     22  C   UNL     1      -2.351  11.854  18.214  0.00  0.00    +0.000 A 
ATOM     23  C   UNL     1      -2.718  11.014  17.155  0.00  0.00    +0.000 A 
ATOM     24  C   UNL     1      -1.916   9.897  16.877  0.00  0.00    +0.000 A 
ATOM     25  C   UNL     1      -0.819   9.584  17.686  0.00  0.00    +0.000 A 
BRANCH  23  26
ATOM     26  C   UNL     1      -3.987  11.255  16.378  0.00  0.00    +0.000 C 
BRANCH  26  27
ATOM     27  N   UNL     1      -5.174  11.381  17.212  0.00  0.00    +0.000 N 
ATOM     28  C   UNL     1      -5.999  12.473  17.288  0.00  0.00    +0.000 A 
ATOM     29  C   UNL     1      -6.827  12.253  18.364  0.00  0.00    +0.000 A 
ATOM     30  C   UNL     1      -6.428  11.004  18.872  0.00  0.00    +0.000 A 
ATOM     31  N   UNL     1      -5.418  10.471  18.179  0.00  0.00    +0.000 NA
ENDBRANCH  26  27
ENDBRANCH  23  26
ENDBRANCH  19  20
ENDBRANCH   3  19
TORSDOF 7
ENDMDL
MODEL 3
REMARK VINA RESULT:      -8.2      2.877      9.708
REMARK  Name = 
REMARK  8 active torsions:
REMARK  status: ('A' for Active; 'I' for Inactive)
REMARK    1  A    between atoms: C_1  and  C_2
REMARK    2  A    between atoms: C_2  and  C_3
REMARK    3  A    between atoms: C_3  and  N_4
REMARK    4  A    between atoms: C_6  and  C_7
REMARK    5  A    between atoms: N_9  and  C_10
REMARK    6  A    between atoms: C_10  and  C_11
REMARK    7  A    between atoms: C_14  and  C_15
REMARK    8  A    between atoms: C_15  and  N_16
REMARK                            x       y       z     vdW  Elec       q    Type
REMARK                         _______ _______ _______ _____ _____    ______ ____
ROOT
ATOM      1  C   UNL     1       0.257  10.612  20.536  0.00  0.00    +0.000 C 
ATOM      2  O   UNL     1       1.238  11.320  20.359  0.00  0.00    +0.000 OA
ATOM      3  N   UNL     1       0.295   9.301  20.951  0.00  0.00    +0.000 N 
ATOM      4  H   UNL     1      -0.587   8.873  21.211  0.00  0.00    +0.000 HD
ENDROOT
BRANCH   1   7
ATOM      5  N   UNL     1      -2.918  12.412  21.167  0.00  0.00    +0.000 N 
ATOM      6  N   UNL     1      -1.692  11.800  21.342  0.00  0.00    +0.000 NA
ATOM      7  C   UNL     1      -1.152  11.180  20.328  0.00  0.00    +0.000 A 
ATOM      8  C   UNL     1      -1.828  11.020  19.023  0.00  0.00    +0.000 A 
ATOM      9  C   UNL     1      -1.351  10.198  17.995  0.00  0.00    +0.000 A 
ATOM     10  C   UNL     1      -2.068  10.076  16.800  0.00  0.00    +0.000 A 
ATOM     11  C   UNL     1      -3.263  10.769  16.625  0.00  0.00    +0.000 A 
ATOM     12  C   UNL     1      -3.741  11.589  17.643  0.00  0.00    +0.000 A 
ATOM     13  C   UNL     1      -3.022  11.706  18.843  0.00  0.00    +0.000 A 
ATOM     14  C   UNL     1      -3.564  12.525  19.936  0.00  0.00    +0.000 A 
ATOM     15  O   UNL     1      -4.558  13.219  19.735  0.00  0.00    +0.000 OA
BRANCH   5  16
ATOM     16  C   UNL     1      -3.489  13.091  22.328  0.00  0.00    +0.000 C 
BRANCH  16  18
ATOM     17  C   UNL     1      -4.368  12.499  24.645  0.00  0.00    +0.000 C 
ATOM     18  C   UNL     1      -3.227  12.356  23.648  0.00  0.00    +0.000 C 
ENDBRANCH  16  18
ENDBRANCH   5  16
ENDBRANCH   1   7
BRANCH   3  19
ATOM     19  C   UNL     1       1.538   8.627  21.267  0.00  0.00    +0.000 C 
BRANCH  19  20
ATOM     20  C   UNL     1       1.834   7.513  20.293  0.00  0.00    +0.000 A 
ATOM     21  C   UNL     1       1.728   6.172  20.690  0.00  0.00    +0.000 A 
ATOM     22  C   UNL     1       2.063   5.136  19.812  0.00  0.00    +0.000 A 
ATOM     23  C   UNL     1       2.519   5.417  18.518  0.00  0.00    +0.000 A 
ATOM     24  C   UNL     1       2.561   6.754  18.098  0.00  0.00    +0.000 A 
ATOM     25  C   UNL     1       2.227   7.792  18.975  0.00  0.00    +0.000 A 
BRANCH  23  26
ATOM     26  C   UNL     1       3.031   4.319  17.622  0.00  0.00    +0.000 C 
BRANCH  26  27
ATOM     27  N   UNL     1       4.470   4.352  17.409  0.00  0.00    +0.000 N 
ATOM     28  C   UNL     1       5.432   4.406  18.384  0.00  0.00    +0.000 A 
ATOM     29  C   UNL     1       6.618   4.673  17.738  0.00  0.00    +0.000 A 
ATOM     30  C   UNL     1       6.271   4.761  16.378  0.00  0.00    +0.000 A 
ATOM     31  N   UNL     1       4.965   4.573  16.171  0.00  0.00    +0.000 NA
ENDBRANCH  26  27
ENDBRANCH  23  26
ENDBRANCH  19  20
ENDBRANCH   3  19
TORSDOF 7
ENDMDL
MODEL 4
REMARK VINA RESULT:      -8.1      1.438      3.317
REMARK  Name = 
REMARK  8 active torsions:
REMARK  status: ('A' for Active; 'I' for Inactive)
REMARK    1  A    between atoms: C_1  and  C_2
REMARK    2  A    between atoms: C_2  and  C_3
REMARK    3  A    between atoms: C_3  and  N_4
REMARK    4  A    between atoms: C_6  and  C_7
REMARK    5  A    between atoms: N_9  and  C_10
REMARK    6  A    between atoms: C_10  and  C_11
REMARK    7  A    between atoms: C_14  and  C_15
REMARK    8  A    between atoms: C_15  and  N_16
REMARK                            x       y       z     vdW  Elec       q    Type
REMARK                         _______ _______ _______ _____ _____    ______ ____
ROOT
ATOM      1  C   UNL     1       1.995   7.779  19.279  0.00  0.00    +0.000 C 
ATOM      2  O   UNL     1       2.111   8.122  20.447  0.00  0.00    +0.000 OA
ATOM      3  N   UNL     1       1.629   8.610  18.246  0.00  0.00    +0.000 N 
ATOM      4  H   UNL     1       1.722   8.244  17.304  0.00  0.00    +0.000 HD
ENDROOT
BRANCH   1   7
ATOM      5  N   UNL     1       1.736   4.096  18.990  0.00  0.00    +0.000 N 
ATOM      6  N   UNL     1       1.563   5.401  19.408  0.00  0.00    +0.000 NA
ATOM      7  C   UNL     1       2.299   6.333  18.867  0.00  0.00    +0.000 A 
ATOM      8  C   UNL     1       3.375   6.054  17.892  0.00  0.00    +0.000 A 
ATOM      9  C   UNL     1       4.295   7.012  17.452  0.00  0.00    +0.000 A 
ATOM     10  C   UNL     1       5.305   6.658  16.551  0.00  0.00    +0.000 A 
ATOM     11  C   UNL     1       5.405   5.349  16.089  0.00  0.00    +0.000 A 
ATOM     12  C   UNL     1       4.491   4.392  16.521  0.00  0.00    +0.000 A 
ATOM     13  C   UNL     1       3.481   4.749  17.428  0.00  0.00    +0.000 A 
ATOM     14  C   UNL     1       2.558   3.720  17.929  0.00  0.00    +0.000 A 
ATOM     15  O   UNL     1       2.582   2.596  17.433  0.00  0.00    +0.000 OA
BRANCH   5  16
ATOM     16  C   UNL     1       0.896   3.082  19.625  0.00  0.00    +0.000 C 
BRANCH  16  18
ATOM     17  C   UNL     1       2.163   3.350  21.819  0.00  0.00    +0.000 C 
ATOM     18  C   UNL     1       1.582   2.378  20.802  0.00  0.00    +0.000 C 
ENDBRANCH  16  18
ENDBRANCH   5  16
ENDBRANCH   1   7
BRANCH   3  19
ATOM     19  C   UNL     1       1.378  10.023  18.442  0.00  0.00    +0.000 C 
BRANCH  19  20
ATOM     20  C   UNL     1      -0.086  10.357  18.296  0.00  0.00    +0.000 A 
ATOM     21  C   UNL     1      -0.911   9.595  17.456  0.00  0.00    +0.000 A 
ATOM     22  C   UNL     1      -2.253   9.939  17.266  0.00  0.00    +0.000 A 
ATOM     23  C   UNL     1      -2.800  11.058  17.906  0.00  0.00    +0.000 A 
ATOM     24  C   UNL     1      -1.995  11.779  18.799  0.00  0.00    +0.000 A 
ATOM     25  C   UNL     1      -0.652  11.438  18.989  0.00  0.00    +0.000 A 
BRANCH  23  26
ATOM     26  C   UNL     1      -4.197  11.527  17.587  0.00  0.00    +0.000 C 
BRANCH  26  27
ATOM     27  N   UNL     1      -5.147  11.334  18.672  0.00  0.00    +0.000 N 
ATOM     28  C   UNL     1      -6.194  10.449  18.686  0.00  0.00    +0.000 A 
ATOM     29  C   UNL     1      -6.960  10.778  19.780  0.00  0.00    +0.000 A 
ATOM     30  C   UNL     1      -6.297  11.871  20.364  0.00  0.00    +0.000 A 
ATOM     31  N   UNL     1      -5.196  12.219  19.692  0.00  0.00    +0.000 NA
ENDBRANCH  26  27
ENDBRANCH  23  26
ENDBRANCH  19  20
ENDBRANCH   3  19
TORSDOF 7
ENDMDL
MODEL 5
REMARK VINA RESULT:      -8.0      1.404      3.236
REMARK  Name = 
REMARK  8 active torsions:
REMARK  status: ('A' for Active; 'I' for Inactive)
REMARK    1  A    between atoms: C_1  and  C_2
REMARK    2  A    between atoms: C_2  and  C_3
REMARK    3  A    between atoms: C_3  and  N_4
REMARK    4  A    between atoms: C_6  and  C_7
REMARK    5  A    between atoms: N_9  and  C_10
REMARK    6  A    between atoms: C_10  and  C_11
REMARK    7  A    between atoms: C_14  and  C_15
REMARK    8  A    between atoms: C_15  and  N_16
REMARK                            x       y       z     vdW  Elec       q    Type
REMARK                         _______ _______ _______ _____ _____    ______ ____
ROOT
ATOM      1  C   UNL     1       2.314   8.099  18.585  0.00  0.00    +0.000 C 
ATOM      2  O   UNL     1       2.923   8.853  17.839  0.00  0.00    +0.000 OA
ATOM      3  N   UNL     1       1.400   8.497  19.532  0.00  0.00    +0.000 N 
ATOM      4  H   UNL     1       0.849   7.771  19.977  0.00  0.00    +0.000 HD
ENDROOT
BRANCH   1   7
ATOM      5  N   UNL     1       1.827   4.463  19.092  0.00  0.00    +0.000 N 
ATOM      6  N   UNL     1       1.745   5.836  19.226  0.00  0.00    +0.000 NA
ATOM      7  C   UNL     1       2.517   6.583  18.483  0.00  0.00    +0.000 A 
ATOM      8  C   UNL     1       3.540   6.034  17.569  0.00  0.00    +0.000 A 
ATOM      9  C   UNL     1       4.500   6.815  16.916  0.00  0.00    +0.000 A 
ATOM     10  C   UNL     1       5.456   6.214  16.090  0.00  0.00    +0.000 A 
ATOM     11  C   UNL     1       5.462   4.833  15.915  0.00  0.00    +0.000 A 
ATOM     12  C   UNL     1       4.509   4.051  16.561  0.00  0.00    +0.000 A 
ATOM     13  C   UNL     1       3.553   4.656  17.391  0.00  0.00    +0.000 A 
ATOM     14  C   UNL     1       2.588   3.818  18.118  0.00  0.00    +0.000 A 
ATOM     15  O   UNL     1       2.529   2.616  17.873  0.00  0.00    +0.000 OA
BRANCH   5  16
ATOM     16  C   UNL     1       0.950   3.663  19.945  0.00  0.00    +0.000 C 
BRANCH  16  18
ATOM     17  C   UNL     1       2.697   2.579  21.450  0.00  0.00    +0.000 C 
ATOM     18  C   UNL     1       1.484   3.495  21.373  0.00  0.00    +0.000 C 
ENDBRANCH  16  18
ENDBRANCH   5  16
ENDBRANCH   1   7
BRANCH   3  19
ATOM     19  C   UNL     1       1.030   9.886  19.714  0.00  0.00    +0.000 C 
BRANCH  19  20
ATOM     20  C   UNL     1      -0.249  10.226  18.988  0.00  0.00    +0.000 A 
ATOM     21  C   UNL     1      -0.609   9.540  17.820  0.00  0.00    +0.000 A 
ATOM     22  C   UNL     1      -1.759   9.893  17.107  0.00  0.00    +0.000 A 
ATOM     23  C   UNL     1      -2.573  10.946  17.543  0.00  0.00    +0.000 A 
ATOM     24  C   UNL     1      -2.251  11.587  18.748  0.00  0.00    +0.000 A 
ATOM     25  C   UNL     1      -1.100  11.236  19.461  0.00  0.00    +0.000 A 
BRANCH  23  26
ATOM     26  C   UNL     1      -3.723  11.436  16.701  0.00  0.00    +0.000 C 
BRANCH  26  27
ATOM     27  N   UNL     1      -5.021  11.325  17.352  0.00  0.00    +0.000 N 
ATOM     28  C   UNL     1      -6.014  12.269  17.346  0.00  0.00    +0.000 A 
ATOM     29  C   UNL     1      -6.940  11.857  18.277  0.00  0.00    +0.000 A 
ATOM     30  C   UNL     1      -6.419  10.656  18.790  0.00  0.00    +0.000 A 
ATOM     31  N   UNL     1      -5.249  10.329  18.236  0.00  0.00    +0.000 NA
ENDBRANCH  26  27
ENDBRANCH  23  26
ENDBRANCH  19  20
ENDBRANCH   3  19
TORSDOF 7
ENDMDL
MODEL 6
REMARK VINA RESULT:      -8.0      2.754      9.569
REMARK  Name = 
REMARK  8 active torsions:
REMARK  status: ('A' for Active; 'I' for Inactive)
REMARK    1  A    between atoms: C_1  and  C_2
REMARK    2  A    between atoms: C_2  and  C_3
REMARK    3  A    between atoms: C_3  and  N_4
REMARK    4  A    between atoms: C_6  and  C_7
REMARK    5  A    between atoms: N_9  and  C_10
REMARK    6  A    between atoms: C_10  and  C_11
REMARK    7  A    between atoms: C_14  and  C_15
REMARK    8  A    between atoms: C_15  and  N_16
REMARK                            x       y       z     vdW  Elec       q    Type
REMARK                         _______ _______ _______ _____ _____    ______ ____
ROOT
ATOM      1  C   UNL     1       0.500  10.398  20.878  0.00  0.00    +0.000 C 
ATOM      2  O   UNL     1       1.413  11.029  21.392  0.00  0.00    +0.000 OA
ATOM      3  N   UNL     1       0.470   9.030  20.736  0.00  0.00    +0.000 N 
ATOM      4  H   UNL     1      -0.407   8.616  20.438  0.00  0.00    +0.000 HD
ENDROOT
BRANCH   1   7
ATOM      5  N   UNL     1      -2.168  11.578  18.597  0.00  0.00    +0.000 N 
ATOM      6  N   UNL     1      -1.003  11.020  19.086  0.00  0.00    +0.000 NA
ATOM      7  C   UNL     1      -0.746  11.127  20.362  0.00  0.00    +0.000 A 
ATOM      8  C   UNL     1      -1.595  11.893  21.299  0.00  0.00    +0.000 A 
ATOM      9  C   UNL     1      -1.235  12.177  22.621  0.00  0.00    +0.000 A 
ATOM     10  C   UNL     1      -2.082  12.937  23.434  0.00  0.00    +0.000 A 
ATOM     11  C   UNL     1      -3.289  13.419  22.933  0.00  0.00    +0.000 A 
ATOM     12  C   UNL     1      -3.653  13.138  21.620  0.00  0.00    +0.000 A 
ATOM     13  C   UNL     1      -2.800  12.379  20.805  0.00  0.00    +0.000 A 
ATOM     14  C   UNL     1      -3.162  12.138  19.400  0.00  0.00    +0.000 A 
ATOM     15  O   UNL     1      -4.274  12.469  18.999  0.00  0.00    +0.000 OA
BRANCH   5  16
ATOM     16  C   UNL     1      -2.416  11.441  17.163  0.00  0.00    +0.000 C 
BRANCH  16  18
ATOM     17  C   UNL     1      -2.994   9.859  15.252  0.00  0.00    +0.000 C 
ATOM     18  C   UNL     1      -2.852  10.028  16.758  0.00  0.00    +0.000 C 
ENDBRANCH  16  18
ENDBRANCH   5  16
ENDBRANCH   1   7
BRANCH   3  19
ATOM     19  C   UNL     1       1.530   8.178  21.235  0.00  0.00    +0.000 C 
BRANCH  19  20
ATOM     20  C   UNL     1       1.937   7.137  20.220  0.00  0.00    +0.000 A 
ATOM     21  C   UNL     1       1.863   5.772  20.531  0.00  0.00    +0.000 A 
ATOM     22  C   UNL     1       2.299   4.805  19.620  0.00  0.00    +0.000 A 
ATOM     23  C   UNL     1       2.825   5.182  18.377  0.00  0.00    +0.000 A 
ATOM     24  C   UNL     1       2.835   6.543  18.039  0.00  0.00    +0.000 A 
ATOM     25  C   UNL     1       2.400   7.511  18.950  0.00  0.00    +0.000 A 
BRANCH  23  26
ATOM     26  C   UNL     1       3.441   4.161  17.455  0.00  0.00    +0.000 C 
BRANCH  26  27
ATOM     27  N   UNL     1       4.893   4.234  17.379  0.00  0.00    +0.000 N 
ATOM     28  C   UNL     1       5.747   4.491  18.419  0.00  0.00    +0.000 A 
ATOM     29  C   UNL     1       6.983   4.712  17.855  0.00  0.00    +0.000 A 
ATOM     30  C   UNL     1       6.775   4.564  16.472  0.00  0.00    +0.000 A 
ATOM     31  N   UNL     1       5.504   4.279  16.175  0.00  0.00    +0.000 NA
ENDBRANCH  26  27
ENDBRANCH  23  26
ENDBRANCH  19  20
ENDBRANCH   3  19
TORSDOF 7
ENDMDL
MODEL 7
REMARK VINA RESULT:      -8.0      3.701      5.025
REMARK  Name = 
REMARK  8 active torsions:
REMARK  status: ('A' for Active; 'I' for Inactive)
REMARK    1  A    between atoms: C_1  and  C_2
REMARK    2  A    between atoms: C_2  and  C_3
REMARK    3  A    between atoms: C_3  and  N_4
REMARK    4  A    between atoms: C_6  and  C_7
REMARK    5  A    between atoms: N_9  and  C_10
REMARK    6  A    between atoms: C_10  and  C_11
REMARK    7  A    between atoms: C_14  and  C_15
REMARK    8  A    between atoms: C_15  and  N_16
REMARK                            x       y       z     vdW  Elec       q    Type
REMARK                         _______ _______ _______ _____ _____    ______ ____
ROOT
ATOM      1  C   UNL     1       2.213   7.682  18.766  0.00  0.00    +0.000 C 
ATOM      2  O   UNL     1       1.992   7.614  19.967  0.00  0.00    +0.000 OA
ATOM      3  N   UNL     1       1.624   8.579  17.906  0.00  0.00    +0.000 N 
ATOM      4  H   UNL     1       2.006   8.639  16.968  0.00  0.00    +0.000 HD
ENDROOT
BRANCH   1   7
ATOM      5  N   UNL     1       5.344   6.468  17.206  0.00  0.00    +0.000 N 
ATOM      6  N   UNL     1       4.353   7.289  17.707  0.00  0.00    +0.000 NA
ATOM      7  C   UNL     1       3.239   6.746  18.117  0.00  0.00    +0.000 A 
ATOM      8  C   UNL     1       2.946   5.303  17.989  0.00  0.00    +0.000 A 
ATOM      9  C   UNL     1       1.691   4.739  18.243  0.00  0.00    +0.000 A 
ATOM     10  C   UNL     1       1.487   3.366  18.068  0.00  0.00    +0.000 A 
ATOM     11  C   UNL     1       2.530   2.551  17.635  0.00  0.00    +0.000 A 
ATOM     12  C   UNL     1       3.781   3.107  17.383  0.00  0.00    +0.000 A 
ATOM     13  C   UNL     1       3.982   4.485  17.556  0.00  0.00    +0.000 A 
ATOM     14  C   UNL     1       5.288   5.075  17.229  0.00  0.00    +0.000 A 
ATOM     15  O   UNL     1       6.232   4.336  16.957  0.00  0.00    +0.000 OA
BRANCH   5  16
ATOM     16  C   UNL     1       6.574   7.116  16.754  0.00  0.00    +0.000 C 
BRANCH  16  18
ATOM     17  C   UNL     1       8.139   8.752  17.923  0.00  0.00    +0.000 C 
ATOM     18  C   UNL     1       7.593   7.332  17.879  0.00  0.00    +0.000 C 
ENDBRANCH  16  18
ENDBRANCH   5  16
ENDBRANCH   1   7
BRANCH   3  19
ATOM     19  C   UNL     1       0.686   9.585  18.361  0.00  0.00    +0.000 C 
BRANCH  19  20
ATOM     20  C   UNL     1       1.378  10.883  18.703  0.00  0.00    +0.000 A 
ATOM     21  C   UNL     1       1.113  11.534  19.916  0.00  0.00    +0.000 A 
ATOM     22  C   UNL     1       1.702  12.768  20.211  0.00  0.00    +0.000 A 
ATOM     23  C   UNL     1       2.564  13.383  19.294  0.00  0.00    +0.000 A 
ATOM     24  C   UNL     1       2.883  12.700  18.112  0.00  0.00    +0.000 A 
ATOM     25  C   UNL     1       2.294  11.467  17.816  0.00  0.00    +0.000 A 
BRANCH  23  26
ATOM     26  C   UNL     1       3.078  14.780  19.532  0.00  0.00    +0.000 C 
BRANCH  26  27
ATOM     27  N   UNL     1       2.576  15.763  18.583  0.00  0.00    +0.000 N 
ATOM     28  C   UNL     1       3.272  16.307  17.535  0.00  0.00    +0.000 A 
ATOM     29  C   UNL     1       2.510  17.353  17.070  0.00  0.00    +0.000 A 
ATOM     30  C   UNL     1       1.374  17.362  17.898  0.00  0.00    +0.000 A 
ATOM     31  N   UNL     1       1.410  16.400  18.825  0.00  0.00    +0.000 NA
ENDBRANCH  26  27
ENDBRANCH  23  26
ENDBRANCH  19  20
ENDBRANCH   3  19
TORSDOF 7
ENDMDL
MODEL 8
REMARK VINA RESULT:      -7.9      1.420      3.362
REMARK  Name = 
REMARK  8 active torsions:
REMARK  status: ('A' for Active; 'I' for Inactive)
REMARK    1  A    between atoms: C_1  and  C_2
REMARK    2  A    between atoms: C_2  and  C_3
REMARK    3  A    between atoms: C_3  and  N_4
REMARK    4  A    between atoms: C_6  and  C_7
REMARK    5  A    between atoms: N_9  and  C_10
REMARK    6  A    between atoms: C_10  and  C_11
REMARK    7  A    between atoms: C_14  and  C_15
REMARK    8  A    between atoms: C_15  and  N_16
REMARK                            x       y       z     vdW  Elec       q    Type
REMARK                         _______ _______ _______ _____ _____    ______ ____
ROOT
ATOM      1  C   UNL     1       1.927   7.716  19.608  0.00  0.00    +0.000 C 
ATOM      2  O   UNL     1       2.108   8.015  20.779  0.00  0.00    +0.000 OA
ATOM      3  N   UNL     1       1.476   8.577  18.635  0.00  0.00    +0.000 N 
ATOM      4  H   UNL     1       1.517   8.251  17.675  0.00  0.00    +0.000 HD
ENDROOT
BRANCH   1   7
ATOM      5  N   UNL     1       1.727   4.044  19.171  0.00  0.00    +0.000 N 
ATOM      6  N   UNL     1       1.549   5.326  19.654  0.00  0.00    +0.000 NA
ATOM      7  C   UNL     1       2.238   6.296  19.117  0.00  0.00    +0.000 A 
ATOM      8  C   UNL     1       3.267   6.083  18.078  0.00  0.00    +0.000 A 
ATOM      9  C   UNL     1       4.144   7.079  17.634  0.00  0.00    +0.000 A 
ATOM     10  C   UNL     1       5.113   6.787  16.669  0.00  0.00    +0.000 A 
ATOM     11  C   UNL     1       5.215   5.501  16.145  0.00  0.00    +0.000 A 
ATOM     12  C   UNL     1       4.345   4.506  16.581  0.00  0.00    +0.000 A 
ATOM     13  C   UNL     1       3.376   4.801  17.553  0.00  0.00    +0.000 A 
ATOM     14  C   UNL     1       2.501   3.731  18.054  0.00  0.00    +0.000 A 
ATOM     15  O   UNL     1       2.522   2.631  17.509  0.00  0.00    +0.000 OA
BRANCH   5  16
ATOM     16  C   UNL     1       0.941   2.985  19.802  0.00  0.00    +0.000 C 
BRANCH  16  18
ATOM     17  C   UNL     1       2.725   2.547  21.568  0.00  0.00    +0.000 C 
ATOM     18  C   UNL     1       1.251   2.809  21.294  0.00  0.00    +0.000 C 
ENDBRANCH  16  18
ENDBRANCH   5  16
ENDBRANCH   1   7
BRANCH   3  19
ATOM     19  C   UNL     1       1.204   9.974  18.905  0.00  0.00    +0.000 C 
BRANCH  19  20
ATOM     20  C   UNL     1      -0.127  10.406  18.338  0.00  0.00    +0.000 A 
ATOM     21  C   UNL     1      -0.601  11.709  18.547  0.00  0.00    +0.000 A 
ATOM     22  C   UNL     1      -1.861  12.097  18.080  0.00  0.00    +0.000 A 
ATOM     23  C   UNL     1      -2.679  11.187  17.399  0.00  0.00    +0.000 A 
ATOM     24  C   UNL     1      -2.178   9.905  17.131  0.00  0.00    +0.000 A 
ATOM     25  C   UNL     1      -0.918   9.516  17.598  0.00  0.00    +0.000 A 
BRANCH  23  26
ATOM     26  C   UNL     1      -4.097  11.545  17.031  0.00  0.00    +0.000 C 
BRANCH  26  27
ATOM     27  N   UNL     1      -5.004  11.607  18.168  0.00  0.00    +0.000 N 
ATOM     28  C   UNL     1      -4.863  12.402  19.275  0.00  0.00    +0.000 A 
ATOM     29  C   UNL     1      -5.793  11.959  20.187  0.00  0.00    +0.000 A 
ATOM     30  C   UNL     1      -6.448  10.897  19.539  0.00  0.00    +0.000 A 
ATOM     31  N   UNL     1      -5.969  10.673  18.313  0.00  0.00    +0.000 NA
ENDBRANCH  26  27
ENDBRANCH  23  26
ENDBRANCH  19  20
ENDBRANCH   3  19
TORSDOF 7
ENDMDL
MODEL 9
REMARK VINA RESULT:      -7.9      2.914      4.652
REMARK  Name = 
REMARK  8 active torsions:
REMARK  status: ('A' for Active; 'I' for Inactive)
REMARK    1  A    between atoms: C_1  and  C_2
REMARK    2  A    between atoms: C_2  and  C_3
REMARK    3  A    between atoms: C_3  and  N_4
REMARK    4  A    between atoms: C_6  and  C_7
REMARK    5  A    between atoms: N_9  and  C_10
REMARK    6  A    between atoms: C_10  and  C_11
REMARK    7  A    between atoms: C_14  and  C_15
REMARK    8  A    between atoms: C_15  and  N_16
REMARK                            x       y       z     vdW  Elec       q    Type
REMARK                         _______ _______ _______ _____ _____    ______ ____
ROOT
ATOM      1  C   UNL     1       2.724   7.826  18.044  0.00  0.00    +0.000 C 
ATOM      2  O   UNL     1       2.957   8.205  16.905  0.00  0.00    +0.000 OA
ATOM      3  N   UNL     1       1.851   8.437  18.914  0.00  0.00    +0.000 N 
ATOM      4  H   UNL     1       1.628   7.938  19.769  0.00  0.00    +0.000 HD
ENDROOT
BRANCH   1   7
ATOM      5  N   UNL     1       3.246   4.660  19.892  0.00  0.00    +0.000 N 
ATOM      6  N   UNL     1       2.716   5.857  19.450  0.00  0.00    +0.000 NA
ATOM      7  C   UNL     1       3.399   6.562  18.590  0.00  0.00    +0.000 A 
ATOM      8  C   UNL     1       4.754   6.191  18.130  0.00  0.00    +0.000 A 
ATOM      9  C   UNL     1       5.572   7.028  17.364  0.00  0.00    +0.000 A 
ATOM     10  C   UNL     1       6.857   6.614  16.996  0.00  0.00    +0.000 A 
ATOM     11  C   UNL     1       7.333   5.367  17.393  0.00  0.00    +0.000 A 
ATOM     12  C   UNL     1       6.522   4.530  18.154  0.00  0.00    +0.000 A 
ATOM     13  C   UNL     1       5.235   4.949  18.525  0.00  0.00    +0.000 A 
ATOM     14  C   UNL     1       4.409   4.085  19.380  0.00  0.00    +0.000 A 
ATOM     15  O   UNL     1       4.789   2.944  19.632  0.00  0.00    +0.000 OA
BRANCH   5  16
ATOM     16  C   UNL     1       2.453   3.902  20.859  0.00  0.00    +0.000 C 
BRANCH  16  18
ATOM     17  C   UNL     1       0.880   2.698  19.257  0.00  0.00    +0.000 C 
ATOM     18  C   UNL     1       1.003   3.683  20.410  0.00  0.00    +0.000 C 
ENDBRANCH  16  18
ENDBRANCH   5  16
ENDBRANCH   1   7
BRANCH   3  19
ATOM     19  C   UNL     1       1.072   9.599  18.539  0.00  0.00    +0.000 C 
BRANCH  19  20
ATOM     20  C   UNL     1       0.330  10.180  19.718  0.00  0.00    +0.000 A 
ATOM     21  C   UNL     1      -0.556  11.253  19.543  0.00  0.00    +0.000 A 
ATOM     22  C   UNL     1      -1.198  11.838  20.639  0.00  0.00    +0.000 A 
ATOM     23  C   UNL     1      -0.962  11.368  21.937  0.00  0.00    +0.000 A 
ATOM     24  C   UNL     1      -0.130  10.253  22.105  0.00  0.00    +0.000 A 
ATOM     25  C   UNL     1       0.513   9.667  21.010  0.00  0.00    +0.000 A 
BRANCH  23  26
ATOM     26  C   UNL     1      -1.524  12.090  23.136  0.00  0.00    +0.000 C 
BRANCH  26  27
ATOM     27  N   UNL     1      -2.734  12.849  22.855  0.00  0.00    +0.000 N 
ATOM     28  C   UNL     1      -2.826  14.209  22.723  0.00  0.00    +0.000 A 
ATOM     29  C   UNL     1      -4.169  14.504  22.714  0.00  0.00    +0.000 A 
ATOM     30  C   UNL     1      -4.808  13.259  22.843  0.00  0.00    +0.000 A 
ATOM     31  N   UNL     1      -3.941  12.247  22.935  0.00  0.00    +0.000 NA
ENDBRANCH  26  27
ENDBRANCH  23  26
ENDBRANCH  19  20
ENDBRANCH   3  19
TORSDOF 7
ENDMDL
