MODEL 1
REMARK VINA RESULT:      -8.5      0.000      0.000
REMARK  Name = 
REMARK  7 active torsions:
REMARK  status: ('A' for Active; 'I' for Inactive)
REMARK    1  A    between atoms: C_1  and  C_2
REMARK    2  A    between atoms: C_6  and  C_7
REMARK    3  A    between atoms: N_13  and  C_14
REMARK    4  A    between atoms: C_18  and  C_19
REMARK    5  A    between atoms: C_20  and  C_21
REMARK    6  A    between atoms: C_21  and  C_22
REMARK    7  A    between atoms: N_26  and  C_27
REMARK                            x       y       z     vdW  Elec       q    Type
REMARK                         _______ _______ _______ _____ _____    ______ ____
ROOT
ATOM      1  C   UNL     1       6.299   4.168  15.194  0.00  0.00    +0.000 C 
ATOM      2  C   UNL     1       5.255   4.394  16.246  0.00  0.00    +0.000 A 
ATOM      3  C   UNL     1       4.835   5.684  16.545  0.00  0.00    +0.000 A 
ATOM      4  C   UNL     1       3.883   5.837  17.539  0.00  0.00    +0.000 A 
ATOM      5  C   UNL     1       3.326   4.792  18.264  0.00  0.00    +0.000 A 
ATOM      6  C   UNL     1       3.707   3.491  17.964  0.00  0.00    +0.000 A 
ATOM      7  C   UNL     1       4.683   3.308  16.944  0.00  0.00    +0.000 A 
ATOM      8  C   UNL     1       2.362   5.363  19.276  0.00  0.00    +0.000 C 
ATOM      9  N   UNL     1       2.425   6.805  19.023  0.00  0.00    +0.000 N 
ATOM     10  C   UNL     1       3.308   7.091  17.979  0.00  0.00    +0.000 C 
ATOM     11  O   UNL     1       3.611   8.138  17.437  0.00  0.00    +0.000 OA
ENDROOT
BRANCH   9  12
ATOM     12  C   UNL     1       1.787   7.795  19.815  0.00  0.00    +0.000 A 
ATOM     13  C   UNL     1       1.982   7.812  21.207  0.00  0.00    +0.000 A 
ATOM     14  C   UNL     1       1.313   8.700  22.044  0.00  0.00    +0.000 A 
ATOM     15  C   UNL     1       0.408   9.595  21.500  0.00  0.00    +0.000 A 
ATOM     16  C   UNL     1       0.195   9.612  20.118  0.00  0.00    +0.000 A 
ATOM     17  C   UNL     1       0.901   8.738  19.272  0.00  0.00    +0.000 A 
BRANCH  16  18
ATOM     18  C   UNL     1      -0.817  10.472  19.595  0.00  0.00    +0.000 C 
ATOM     19  C   UNL     1      -1.698  11.141  19.114  0.00  0.00    +0.000 C 
BRANCH  19  20
ATOM     20  C   UNL     1      -2.784  11.938  18.535  0.00  0.00    +0.000 C 
BRANCH  20  21
ATOM     21  C   UNL     1      -3.151  11.447  17.179  0.00  0.00    +0.000 A 
ATOM     22  N   UNL     1      -2.381  10.749  16.367  0.00  0.00    +0.000 NA
ATOM     23  N   UNL     1      -3.107  10.444  15.240  0.00  0.00    +0.000 NA
ATOM     24  C   UNL     1      -4.303  10.960  15.387  0.00  0.00    +0.000 A 
ATOM     25  N   UNL     1      -4.378  11.602  16.583  0.00  0.00    +0.000 N 
ATOM     26  C   UNL     1      -5.526  12.297  17.098  0.00  0.00    +0.000 C 
ENDBRANCH  20  21
ENDBRANCH  19  20
ENDBRANCH  16  18
ENDBRANCH   9  12
BRANCH   6  27
ATOM     27  C   UNL     1       3.129   2.277  18.645  0.00  0.00    +0.000 C 
ATOM     28  F   UNL     1       1.800   2.110  18.412  0.00  0.00    +0.000 F 
ATOM     29  F   UNL     1       3.728   1.124  18.237  0.00  0.00    +0.000 F 
ATOM     30  F   UNL     1       3.272   2.316  19.997  0.00  0.00    +0.000 F 
ENDBRANCH   6  27
TORSDOF 5
ENDMDL
MODEL 2
REMARK VINA RESULT:      -8.5      4.063      9.066
REMARK  Name = 
REMARK  7 active torsions:
REMARK  status: ('A' for Active; 'I' for Inactive)
REMARK    1  A    between atoms: C_1  and  C_2
REMARK    2  A    between atoms: C_6  and  C_7
REMARK    3  A    between atoms: N_13  and  C_14
REMARK    4  A    between atoms: C_18  and  C_19
REMARK    5  A    between atoms: C_20  and  C_21
REMARK    6  A    between atoms: C_21  and  C_22
REMARK    7  A    between atoms: N_26  and  C_27
REMARK                            x       y       z     vdW  Elec       q    Type
REMARK                         _______ _______ _______ _____ _____    ______ ____
ROOT
ATOM      1  C   UNL     1      -0.667  12.680  18.518  0.00  0.00    +0.000 C 
ATOM      2  C   UNL     1      -0.134  11.442  19.174  0.00  0.00    +0.000 A 
ATOM      3  C   UNL     1       0.639  10.545  18.447  0.00  0.00    +0.000 A 
ATOM      4  C   UNL     1       1.089   9.409  19.098  0.00  0.00    +0.000 A 
ATOM      5  C   UNL     1       0.816   9.099  20.423  0.00  0.00    +0.000 A 
ATOM      6  C   UNL     1       0.072   9.994  21.180  0.00  0.00    +0.000 A 
ATOM      7  C   UNL     1      -0.401  11.171  20.534  0.00  0.00    +0.000 A 
ATOM      8  C   UNL     1       1.446   7.767  20.750  0.00  0.00    +0.000 C 
ATOM      9  N   UNL     1       2.106   7.390  19.497  0.00  0.00    +0.000 N 
ATOM     10  C   UNL     1       1.917   8.370  18.519  0.00  0.00    +0.000 C 
ATOM     11  O   UNL     1       2.326   8.466  17.377  0.00  0.00    +0.000 OA
ENDROOT
BRANCH   9  12
ATOM     12  C   UNL     1       2.734   6.140  19.255  0.00  0.00    +0.000 A 
ATOM     13  C   UNL     1       2.917   5.233  20.313  0.00  0.00    +0.000 A 
ATOM     14  C   UNL     1       3.606   4.034  20.155  0.00  0.00    +0.000 A 
ATOM     15  C   UNL     1       4.148   3.719  18.921  0.00  0.00    +0.000 A 
ATOM     16  C   UNL     1       3.978   4.595  17.845  0.00  0.00    +0.000 A 
ATOM     17  C   UNL     1       3.249   5.788  17.999  0.00  0.00    +0.000 A 
BRANCH  16  18
ATOM     18  C   UNL     1       4.632   4.296  16.612  0.00  0.00    +0.000 C 
ATOM     19  C   UNL     1       5.132   3.994  15.557  0.00  0.00    +0.000 C 
BRANCH  19  20
ATOM     20  C   UNL     1       5.719   3.630  14.264  0.00  0.00    +0.000 C 
BRANCH  20  21
ATOM     21  C   UNL     1       6.830   4.550  13.898  0.00  0.00    +0.000 A 
ATOM     22  N   UNL     1       7.472   5.363  14.714  0.00  0.00    +0.000 NA
ATOM     23  N   UNL     1       8.462   5.997  14.002  0.00  0.00    +0.000 NA
ATOM     24  C   UNL     1       8.406   5.558  12.768  0.00  0.00    +0.000 A 
ATOM     25  N   UNL     1       7.397   4.653  12.652  0.00  0.00    +0.000 N 
ATOM     26  C   UNL     1       7.021   3.958  11.451  0.00  0.00    +0.000 C 
ENDBRANCH  20  21
ENDBRANCH  19  20
ENDBRANCH  16  18
ENDBRANCH   9  12
BRANCH   6  27
ATOM     27  C   UNL     1      -0.239   9.791  22.641  0.00  0.00    +0.000 C 
ATOM     28  F   UNL     1      -0.905  10.836  23.201  0.00  0.00    +0.000 F 
ATOM     29  F   UNL     1      -1.018   8.695  22.854  0.00  0.00    +0.000 F 
ATOM     30  F   UNL     1       0.879   9.609  23.394  0.00  0.00    +0.000 F 
ENDBRANCH   6  27
TORSDOF 5
ENDMDL
MODEL 3
REMARK VINA RESULT:      -8.4      2.562      3.471
REMARK  Name = 
REMARK  7 active torsions:
REMARK  status: ('A' for Active; 'I' for Inactive)
REMARK    1  A    between atoms: C_1  and  C_2
REMARK    2  A    between atoms: C_6  and  C_7
REMARK    3  A    between atoms: N_13  and  C_14
REMARK    4  A    between atoms: C_18  and  C_19
REMARK    5  A    between atoms: C_20  and  C_21
REMARK    6  A    between atoms: C_21  and  C_22
REMARK    7  A    between atoms: N_26  and  C_27
REMARK                            x       y       z     vdW  Elec       q    Type
REMARK                         _______ _______ _______ _____ _____    ______ ____
ROOT
ATOM      1  C   UNL     1       4.098   2.434  18.961  0.00  0.00    +0.000 C 
ATOM      2  C   UNL     1       3.879   3.882  18.638  0.00  0.00    +0.000 A 
ATOM      3  C   UNL     1       2.988   4.637  19.392  0.00  0.00    +0.000 A 
ATOM      4  C   UNL     1       2.810   5.963  19.037  0.00  0.00    +0.000 A 
ATOM      5  C   UNL     1       3.449   6.589  17.975  0.00  0.00    +0.000 A 
ATOM      6  C   UNL     1       4.366   5.864  17.225  0.00  0.00    +0.000 A 
ATOM      7  C   UNL     1       4.569   4.499  17.572  0.00  0.00    +0.000 A 
ATOM      8  C   UNL     1       2.964   8.016  17.889  0.00  0.00    +0.000 C 
ATOM      9  N   UNL     1       2.024   8.119  19.008  0.00  0.00    +0.000 N 
ATOM     10  C   UNL     1       1.944   6.913  19.707  0.00  0.00    +0.000 C 
ATOM     11  O   UNL     1       1.327   6.592  20.706  0.00  0.00    +0.000 OA
ENDROOT
BRANCH   9  12
ATOM     12  C   UNL     1       1.198   9.244  19.271  0.00  0.00    +0.000 A 
ATOM     13  C   UNL     1       1.358   9.967  20.467  0.00  0.00    +0.000 A 
ATOM     14  C   UNL     1       0.519  11.019  20.819  0.00  0.00    +0.000 A 
ATOM     15  C   UNL     1      -0.524  11.368  19.978  0.00  0.00    +0.000 A 
ATOM     16  C   UNL     1      -0.707  10.676  18.778  0.00  0.00    +0.000 A 
ATOM     17  C   UNL     1       0.165   9.637  18.407  0.00  0.00    +0.000 A 
BRANCH  16  18
ATOM     18  C   UNL     1      -1.849  10.986  17.979  0.00  0.00    +0.000 C 
ATOM     19  C   UNL     1      -2.855  11.240  17.365  0.00  0.00    +0.000 C 
BRANCH  19  20
ATOM     20  C   UNL     1      -4.085  11.561  16.633  0.00  0.00    +0.000 C 
BRANCH  20  21
ATOM     21  C   UNL     1      -5.288  11.354  17.484  0.00  0.00    +0.000 A 
ATOM     22  N   UNL     1      -5.518  10.323  18.273  0.00  0.00    +0.000 NA
ATOM     23  N   UNL     1      -6.709  10.536  18.926  0.00  0.00    +0.000 NA
ATOM     24  C   UNL     1      -7.181  11.691  18.524  0.00  0.00    +0.000 A 
ATOM     25  N   UNL     1      -6.329  12.240  17.616  0.00  0.00    +0.000 N 
ATOM     26  C   UNL     1      -6.507  13.498  16.945  0.00  0.00    +0.000 C 
ENDBRANCH  20  21
ENDBRANCH  19  20
ENDBRANCH  16  18
ENDBRANCH   9  12
BRANCH   6  27
ATOM     27  C   UNL     1       5.160   6.452  16.088  0.00  0.00    +0.000 C 
ATOM     28  F   UNL     1       5.744   5.514  15.295  0.00  0.00    +0.000 F 
ATOM     29  F   UNL     1       4.390   7.213  15.261  0.00  0.00    +0.000 F 
ATOM     30  F   UNL     1       6.167   7.263  16.515  0.00  0.00    +0.000 F 
ENDBRANCH   6  27
TORSDOF 5
ENDMDL
MODEL 4
REMARK VINA RESULT:      -8.1      2.720      3.283
REMARK  Name = 
REMARK  7 active torsions:
REMARK  status: ('A' for Active; 'I' for Inactive)
REMARK    1  A    between atoms: C_1  and  C_2
REMARK    2  A    between atoms: C_6  and  C_7
REMARK    3  A    between atoms: N_13  and  C_14
REMARK    4  A    between atoms: C_18  and  C_19
REMARK    5  A    between atoms: C_20  and  C_21
REMARK    6  A    between atoms: C_21  and  C_22
REMARK    7  A    between atoms: N_26  and  C_27
REMARK                            x       y       z     vdW  Elec       q    Type
REMARK                         _______ _______ _______ _____ _____    ______ ____
ROOT
ATOM      1  C   UNL     1       6.392   4.190  15.122  0.00  0.00    +0.000 C 
ATOM      2  C   UNL     1       5.320   4.433  16.141  0.00  0.00    +0.000 A 
ATOM      3  C   UNL     1       4.935   5.732  16.451  0.00  0.00    +0.000 A 
ATOM      4  C   UNL     1       3.954   5.900  17.413  0.00  0.00    +0.000 A 
ATOM      5  C   UNL     1       3.334   4.863  18.098  0.00  0.00    +0.000 A 
ATOM      6  C   UNL     1       3.680   3.555  17.785  0.00  0.00    +0.000 A 
ATOM      7  C   UNL     1       4.685   3.356  16.797  0.00  0.00    +0.000 A 
ATOM      8  C   UNL     1       2.356   5.449  19.086  0.00  0.00    +0.000 C 
ATOM      9  N   UNL     1       2.478   6.892  18.864  0.00  0.00    +0.000 N 
ATOM     10  C   UNL     1       3.408   7.166  17.858  0.00  0.00    +0.000 C 
ATOM     11  O   UNL     1       3.767   8.211  17.348  0.00  0.00    +0.000 OA
ENDROOT
BRANCH   9  12
ATOM     12  C   UNL     1       1.848   7.890  19.653  0.00  0.00    +0.000 A 
ATOM     13  C   UNL     1       1.505   7.613  20.989  0.00  0.00    +0.000 A 
ATOM     14  C   UNL     1       0.805   8.518  21.781  0.00  0.00    +0.000 A 
ATOM     15  C   UNL     1       0.413   9.732  21.242  0.00  0.00    +0.000 A 
ATOM     16  C   UNL     1       0.745  10.043  19.921  0.00  0.00    +0.000 A 
ATOM     17  C   UNL     1       1.485   9.142  19.134  0.00  0.00    +0.000 A 
BRANCH  16  18
ATOM     18  C   UNL     1       0.242  11.255  19.358  0.00  0.00    +0.000 C 
ATOM     19  C   UNL     1      -0.120  12.312  18.904  0.00  0.00    +0.000 C 
BRANCH  19  20
ATOM     20  C   UNL     1      -0.540  13.600  18.343  0.00  0.00    +0.000 C 
BRANCH  20  21
ATOM     21  C   UNL     1       0.037  14.737  19.109  0.00  0.00    +0.000 A 
ATOM     22  N   UNL     1       1.181  15.345  18.861  0.00  0.00    +0.000 NA
ATOM     23  N   UNL     1       1.325  16.376  19.759  0.00  0.00    +0.000 NA
ATOM     24  C   UNL     1       0.268  16.378  20.534  0.00  0.00    +0.000 A 
ATOM     25  N   UNL     1      -0.566  15.367  20.170  0.00  0.00    +0.000 N 
ATOM     26  C   UNL     1      -1.822  15.045  20.789  0.00  0.00    +0.000 C 
ENDBRANCH  20  21
ENDBRANCH  19  20
ENDBRANCH  16  18
ENDBRANCH   9  12
BRANCH   6  27
ATOM     27  C   UNL     1       3.036   2.349  18.421  0.00  0.00    +0.000 C 
ATOM     28  F   UNL     1       3.577   1.170  18.012  0.00  0.00    +0.000 F 
ATOM     29  F   UNL     1       3.149   2.361  19.778  0.00  0.00    +0.000 F 
ATOM     30  F   UNL     1       1.704   2.266  18.155  0.00  0.00    +0.000 F 
ENDBRANCH   6  27
TORSDOF 5
ENDMDL
MODEL 5
REMARK VINA RESULT:      -8.1      2.933      4.349
REMARK  Name = 
REMARK  7 active torsions:
REMARK  status: ('A' for Active; 'I' for Inactive)
REMARK    1  A    between atoms: C_1  and  C_2
REMARK    2  A    between atoms: C_6  and  C_7
REMARK    3  A    between atoms: N_13  and  C_14
REMARK    4  A    between atoms: C_18  and  C_19
REMARK    5  A    between atoms: C_20  and  C_21
REMARK    6  A    between atoms: C_21  and  C_22
REMARK    7  A    between atoms: N_26  and  C_27
REMARK                            x       y       z     vdW  Elec       q    Type
REMARK                         _______ _______ _______ _____ _____    ______ ____
ROOT
ATOM      1  C   UNL     1       2.210   3.669  21.307  0.00  0.00    +0.000 C 
ATOM      2  C   UNL     1       2.310   4.939  20.517  0.00  0.00    +0.000 A 
ATOM      3  C   UNL     1       1.571   6.055  20.894  0.00  0.00    +0.000 A 
ATOM      4  C   UNL     1       1.686   7.195  20.118  0.00  0.00    +0.000 A 
ATOM      5  C   UNL     1       2.481   7.300  18.984  0.00  0.00    +0.000 A 
ATOM      6  C   UNL     1       3.252   6.209  18.604  0.00  0.00    +0.000 A 
ATOM      7  C   UNL     1       3.152   5.026  19.387  0.00  0.00    +0.000 A 
ATOM      8  C   UNL     1       2.308   8.680  18.396  0.00  0.00    +0.000 C 
ATOM      9  N   UNL     1       1.371   9.324  19.321  0.00  0.00    +0.000 N 
ATOM     10  C   UNL     1       1.015   8.456  20.356  0.00  0.00    +0.000 C 
ATOM     11  O   UNL     1       0.309   8.608  21.335  0.00  0.00    +0.000 OA
ENDROOT
BRANCH   9  12
ATOM     12  C   UNL     1       0.790  10.604  19.124  0.00  0.00    +0.000 A 
ATOM     13  C   UNL     1       1.591  11.681  18.706  0.00  0.00    +0.000 A 
ATOM     14  C   UNL     1       1.096  12.975  18.585  0.00  0.00    +0.000 A 
ATOM     15  C   UNL     1      -0.229  13.229  18.898  0.00  0.00    +0.000 A 
ATOM     16  C   UNL     1      -1.056  12.180  19.309  0.00  0.00    +0.000 A 
ATOM     17  C   UNL     1      -0.562  10.866  19.394  0.00  0.00    +0.000 A 
BRANCH  16  18
ATOM     18  C   UNL     1      -2.388  12.484  19.723  0.00  0.00    +0.000 C 
ATOM     19  C   UNL     1      -3.523  12.776  20.009  0.00  0.00    +0.000 C 
BRANCH  19  20
ATOM     20  C   UNL     1      -4.909  13.124  20.337  0.00  0.00    +0.000 C 
BRANCH  20  21
ATOM     21  C   UNL     1      -5.808  11.946  20.199  0.00  0.00    +0.000 A 
ATOM     22  N   UNL     1      -6.428  11.318  21.179  0.00  0.00    +0.000 NA
ATOM     23  N   UNL     1      -7.203  10.323  20.633  0.00  0.00    +0.000 NA
ATOM     24  C   UNL     1      -7.042  10.364  19.332  0.00  0.00    +0.000 A 
ATOM     25  N   UNL     1      -6.174  11.361  19.012  0.00  0.00    +0.000 N 
ATOM     26  C   UNL     1      -5.742  11.710  17.687  0.00  0.00    +0.000 C 
ENDBRANCH  20  21
ENDBRANCH  19  20
ENDBRANCH  16  18
ENDBRANCH   9  12
BRANCH   6  27
ATOM     27  C   UNL     1       4.193   6.226  17.426  0.00  0.00    +0.000 C 
ATOM     28  F   UNL     1       3.970   7.262  16.573  0.00  0.00    +0.000 F 
ATOM     29  F   UNL     1       5.495   6.331  17.809  0.00  0.00    +0.000 F 
ATOM     30  F   UNL     1       4.111   5.095  16.674  0.00  0.00    +0.000 F 
ENDBRANCH   6  27
TORSDOF 5
ENDMDL
MODEL 6
REMARK VINA RESULT:      -8.1      2.638      4.070
REMARK  Name = 
REMARK  7 active torsions:
REMARK  status: ('A' for Active; 'I' for Inactive)
REMARK    1  A    between atoms: C_1  and  C_2
REMARK    2  A    between atoms: C_6  and  C_7
REMARK    3  A    between atoms: N_13  and  C_14
REMARK    4  A    between atoms: C_18  and  C_19
REMARK    5  A    between atoms: C_20  and  C_21
REMARK    6  A    between atoms: C_21  and  C_22
REMARK    7  A    between atoms: N_26  and  C_27
REMARK                            x       y       z     vdW  Elec       q    Type
REMARK                         _______ _______ _______ _____ _____    ______ ____
ROOT
ATOM      1  C   UNL     1       2.674   3.135  21.186  0.00  0.00    +0.000 C 
ATOM      2  C   UNL     1       2.632   4.455  20.477  0.00  0.00    +0.000 A 
ATOM      3  C   UNL     1       1.792   5.464  20.932  0.00  0.00    +0.000 A 
ATOM      4  C   UNL     1       1.779   6.656  20.228  0.00  0.00    +0.000 A 
ATOM      5  C   UNL     1       2.538   6.911  19.094  0.00  0.00    +0.000 A 
ATOM      6  C   UNL     1       3.407   5.929  18.637  0.00  0.00    +0.000 A 
ATOM      7  C   UNL     1       3.441   4.695  19.345  0.00  0.00    +0.000 A 
ATOM      8  C   UNL     1       2.218   8.300  18.597  0.00  0.00    +0.000 C 
ATOM      9  N   UNL     1       1.238   8.788  19.572  0.00  0.00    +0.000 N 
ATOM     10  C   UNL     1       0.990   7.826  20.554  0.00  0.00    +0.000 C 
ATOM     11  O   UNL     1       0.289   7.845  21.550  0.00  0.00    +0.000 OA
ENDROOT
BRANCH   9  12
ATOM     12  C   UNL     1       0.528  10.012  19.463  0.00  0.00    +0.000 A 
ATOM     13  C   UNL     1       0.913  11.117  20.242  0.00  0.00    +0.000 A 
ATOM     14  C   UNL     1       0.201  12.312  20.245  0.00  0.00    +0.000 A 
ATOM     15  C   UNL     1      -0.940  12.425  19.469  0.00  0.00    +0.000 A 
ATOM     16  C   UNL     1      -1.348  11.349  18.676  0.00  0.00    +0.000 A 
ATOM     17  C   UNL     1      -0.604  10.156  18.646  0.00  0.00    +0.000 A 
BRANCH  16  18
ATOM     18  C   UNL     1      -2.581  11.454  17.964  0.00  0.00    +0.000 C 
ATOM     19  C   UNL     1      -3.654  11.499  17.415  0.00  0.00    +0.000 C 
BRANCH  19  20
ATOM     20  C   UNL     1      -4.967  11.557  16.765  0.00  0.00    +0.000 C 
BRANCH  20  21
ATOM     21  C   UNL     1      -5.964  12.248  17.627  0.00  0.00    +0.000 A 
ATOM     22  N   UNL     1      -6.276  13.529  17.588  0.00  0.00    +0.000 NA
ATOM     23  N   UNL     1      -7.278  13.758  18.502  0.00  0.00    +0.000 NA
ATOM     24  C   UNL     1      -7.558  12.614  19.077  0.00  0.00    +0.000 A 
ATOM     25  N   UNL     1      -6.758  11.639  18.567  0.00  0.00    +0.000 N 
ATOM     26  C   UNL     1      -6.765  10.254  18.953  0.00  0.00    +0.000 C 
ENDBRANCH  20  21
ENDBRANCH  19  20
ENDBRANCH  16  18
ENDBRANCH   9  12
BRANCH   6  27
ATOM     27  C   UNL     1       4.320   6.114  17.451  0.00  0.00    +0.000 C 
ATOM     28  F   UNL     1       4.045   7.232  16.728  0.00  0.00    +0.000 F 
ATOM     29  F   UNL     1       5.627   6.220  17.820  0.00  0.00    +0.000 F 
ATOM     30  F   UNL     1       4.259   5.074  16.576  0.00  0.00    +0.000 F 
ENDBRANCH   6  27
TORSDOF 5
ENDMDL
MODEL 7
REMARK VINA RESULT:      -8.1      1.071      1.576
REMARK  Name = 
REMARK  7 active torsions:
REMARK  status: ('A' for Active; 'I' for Inactive)
REMARK    1  A    between atoms: C_1  and  C_2
REMARK    2  A    between atoms: C_6  and  C_7
REMARK    3  A    between atoms: N_13  and  C_14
REMARK    4  A    between atoms: C_18  and  C_19
REMARK    5  A    between atoms: C_20  and  C_21
REMARK    6  A    between atoms: C_21  and  C_22
REMARK    7  A    between atoms: N_26  and  C_27
REMARK                            x       y       z     vdW  Elec       q    Type
REMARK                         _______ _______ _______ _____ _____    ______ ____
ROOT
ATOM      1  C   UNL     1       5.930   4.465  15.299  0.00  0.00    +0.000 C 
ATOM      2  C   UNL     1       4.958   4.685  16.419  0.00  0.00    +0.000 A 
ATOM      3  C   UNL     1       4.509   5.968  16.710  0.00  0.00    +0.000 A 
ATOM      4  C   UNL     1       3.628   6.116  17.767  0.00  0.00    +0.000 A 
ATOM      5  C   UNL     1       3.167   5.075  18.563  0.00  0.00    +0.000 A 
ATOM      6  C   UNL     1       3.577   3.781  18.273  0.00  0.00    +0.000 A 
ATOM      7  C   UNL     1       4.482   3.602  17.189  0.00  0.00    +0.000 A 
ATOM      8  C   UNL     1       2.258   5.642  19.626  0.00  0.00    +0.000 C 
ATOM      9  N   UNL     1       2.244   7.076  19.327  0.00  0.00    +0.000 N 
ATOM     10  C   UNL     1       3.036   7.362  18.212  0.00  0.00    +0.000 C 
ATOM     11  O   UNL     1       3.257   8.401  17.618  0.00  0.00    +0.000 OA
ENDROOT
BRANCH   9  12
ATOM     12  C   UNL     1       1.627   8.067  20.135  0.00  0.00    +0.000 A 
ATOM     13  C   UNL     1       1.790   8.034  21.531  0.00  0.00    +0.000 A 
ATOM     14  C   UNL     1       1.137   8.922  22.379  0.00  0.00    +0.000 A 
ATOM     15  C   UNL     1       0.280   9.868  21.843  0.00  0.00    +0.000 A 
ATOM     16  C   UNL     1       0.101   9.935  20.459  0.00  0.00    +0.000 A 
ATOM     17  C   UNL     1       0.792   9.060  19.602  0.00  0.00    +0.000 A 
BRANCH  16  18
ATOM     18  C   UNL     1      -0.864  10.851  19.939  0.00  0.00    +0.000 C 
ATOM     19  C   UNL     1      -1.637  11.630  19.439  0.00  0.00    +0.000 C 
BRANCH  19  20
ATOM     20  C   UNL     1      -2.576  12.566  18.814  0.00  0.00    +0.000 C 
BRANCH  20  21
ATOM     21  C   UNL     1      -3.959  12.017  18.804  0.00  0.00    +0.000 A 
ATOM     22  N   UNL     1      -4.932  12.336  19.635  0.00  0.00    +0.000 NA
ATOM     23  N   UNL     1      -6.064  11.654  19.257  0.00  0.00    +0.000 NA
ATOM     24  C   UNL     1      -5.760  10.934  18.204  0.00  0.00    +0.000 A 
ATOM     25  N   UNL     1      -4.452  11.124  17.885  0.00  0.00    +0.000 N 
ATOM     26  C   UNL     1      -3.750  10.501  16.796  0.00  0.00    +0.000 C 
ENDBRANCH  20  21
ENDBRANCH  19  20
ENDBRANCH  16  18
ENDBRANCH   9  12
BRANCH   6  27
ATOM     27  C   UNL     1       3.100   2.568  19.030  0.00  0.00    +0.000 C 
ATOM     28  F   UNL     1       1.762   2.578  19.276  0.00  0.00    +0.000 F 
ATOM     29  F   UNL     1       3.347   1.410  18.358  0.00  0.00    +0.000 F 
ATOM     30  F   UNL     1       3.704   2.435  20.242  0.00  0.00    +0.000 F 
ENDBRANCH   6  27
TORSDOF 5
ENDMDL
MODEL 8
REMARK VINA RESULT:      -8.0      3.637      4.539
REMARK  Name = 
REMARK  7 active torsions:
REMARK  status: ('A' for Active; 'I' for Inactive)
REMARK    1  A    between atoms: C_1  and  C_2
REMARK    2  A    between atoms: C_6  and  C_7
REMARK    3  A    between atoms: N_13  and  C_14
REMARK    4  A    between atoms: C_18  and  C_19
REMARK    5  A    between atoms: C_20  and  C_21
REMARK    6  A    between atoms: C_21  and  C_22
REMARK    7  A    between atoms: N_26  and  C_27
REMARK                            x       y       z     vdW  Elec       q    Type
REMARK                         _______ _______ _______ _____ _____    ______ ____
ROOT
ATOM      1  C   UNL     1       3.662   1.443  18.532  0.00  0.00    +0.000 C 
ATOM      2  C   UNL     1       3.744   2.906  18.213  0.00  0.00    +0.000 A 
ATOM      3  C   UNL     1       2.960   3.817  18.910  0.00  0.00    +0.000 A 
ATOM      4  C   UNL     1       3.062   5.152  18.561  0.00  0.00    +0.000 A 
ATOM      5  C   UNL     1       3.885   5.645  17.557  0.00  0.00    +0.000 A 
ATOM      6  C   UNL     1       4.701   4.759  16.866  0.00  0.00    +0.000 A 
ATOM      7  C   UNL     1       4.616   3.380  17.208  0.00  0.00    +0.000 A 
ATOM      8  C   UNL     1       3.687   7.138  17.455  0.00  0.00    +0.000 C 
ATOM      9  N   UNL     1       2.703   7.419  18.504  0.00  0.00    +0.000 N 
ATOM     10  C   UNL     1       2.345   6.249  19.179  0.00  0.00    +0.000 C 
ATOM     11  O   UNL     1       1.606   6.053  20.126  0.00  0.00    +0.000 OA
ENDROOT
BRANCH   9  12
ATOM     12  C   UNL     1       2.088   8.679  18.722  0.00  0.00    +0.000 A 
ATOM     13  C   UNL     1       2.408   9.768  17.891  0.00  0.00    +0.000 A 
ATOM     14  C   UNL     1       1.906  11.046  18.112  0.00  0.00    +0.000 A 
ATOM     15  C   UNL     1       1.072  11.272  19.195  0.00  0.00    +0.000 A 
ATOM     16  C   UNL     1       0.727  10.211  20.036  0.00  0.00    +0.000 A 
ATOM     17  C   UNL     1       1.206   8.912  19.788  0.00  0.00    +0.000 A 
BRANCH  16  18
ATOM     18  C   UNL     1      -0.050  10.490  21.201  0.00  0.00    +0.000 C 
ATOM     19  C   UNL     1      -0.716  10.794  22.159  0.00  0.00    +0.000 C 
BRANCH  19  20
ATOM     20  C   UNL     1      -1.541  11.171  23.311  0.00  0.00    +0.000 C 
BRANCH  20  21
ATOM     21  C   UNL     1      -2.445  12.305  22.978  0.00  0.00    +0.000 A 
ATOM     22  N   UNL     1      -3.759  12.253  22.877  0.00  0.00    +0.000 NA
ATOM     23  N   UNL     1      -4.223  13.520  22.612  0.00  0.00    +0.000 NA
ATOM     24  C   UNL     1      -3.184  14.319  22.558  0.00  0.00    +0.000 A 
ATOM     25  N   UNL     1      -2.048  13.604  22.776  0.00  0.00    +0.000 N 
ATOM     26  C   UNL     1      -0.710  14.129  22.787  0.00  0.00    +0.000 C 
ENDBRANCH  20  21
ENDBRANCH  19  20
ENDBRANCH  16  18
ENDBRANCH   9  12
BRANCH   6  27
ATOM     27  C   UNL     1       5.674   5.185  15.797  0.00  0.00    +0.000 C 
ATOM     28  F   UNL     1       6.318   4.143  15.207  0.00  0.00    +0.000 F 
ATOM     29  F   UNL     1       5.064   5.867  14.788  0.00  0.00    +0.000 F 
ATOM     30  F   UNL     1       6.647   6.009  16.272  0.00  0.00    +0.000 F 
ENDBRANCH   6  27
TORSDOF 5
ENDMDL
MODEL 9
REMARK VINA RESULT:      -8.0      3.541      4.262
REMARK  Name = 
REMARK  7 active torsions:
REMARK  status: ('A' for Active; 'I' for Inactive)
REMARK    1  A    between atoms: C_1  and  C_2
REMARK    2  A    between atoms: C_6  and  C_7
REMARK    3  A    between atoms: N_13  and  C_14
REMARK    4  A    between atoms: C_18  and  C_19
REMARK    5  A    between atoms: C_20  and  C_21
REMARK    6  A    between atoms: C_21  and  C_22
REMARK    7  A    between atoms: N_26  and  C_27
REMARK                            x       y       z     vdW  Elec       q    Type
REMARK                         _______ _______ _______ _____ _____    ______ ____
ROOT
ATOM      1  C   UNL     1       4.751   4.145  16.636  0.00  0.00    +0.000 C 
ATOM      2  C   UNL     1       3.851   4.649  17.724  0.00  0.00    +0.000 A 
ATOM      3  C   UNL     1       3.522   5.998  17.788  0.00  0.00    +0.000 A 
ATOM      4  C   UNL     1       2.704   6.412  18.824  0.00  0.00    +0.000 A 
ATOM      5  C   UNL     1       2.195   5.577  19.811  0.00  0.00    +0.000 A 
ATOM      6  C   UNL     1       2.485   4.220  19.752  0.00  0.00    +0.000 A 
ATOM      7  C   UNL     1       3.323   3.769  18.694  0.00  0.00    +0.000 A 
ATOM      8  C   UNL     1       1.384   6.404  20.777  0.00  0.00    +0.000 C 
ATOM      9  N   UNL     1       1.475   7.757  20.220  0.00  0.00    +0.000 N 
ATOM     10  C   UNL     1       2.237   7.765  19.050  0.00  0.00    +0.000 C 
ATOM     11  O   UNL     1       2.515   8.656  18.269  0.00  0.00    +0.000 OA
ENDROOT
BRANCH   9  12
ATOM     12  C   UNL     1       0.977   8.928  20.850  0.00  0.00    +0.000 A 
ATOM     13  C   UNL     1       0.454   8.854  22.153  0.00  0.00    +0.000 A 
ATOM     14  C   UNL     1      -0.129   9.947  22.785  0.00  0.00    +0.000 A 
ATOM     15  C   UNL     1      -0.217  11.154  22.112  0.00  0.00    +0.000 A 
ATOM     16  C   UNL     1       0.300  11.266  20.819  0.00  0.00    +0.000 A 
ATOM     17  C   UNL     1       0.922  10.168  20.197  0.00  0.00    +0.000 A 
BRANCH  16  18
ATOM     18  C   UNL     1       0.105  12.489  20.109  0.00  0.00    +0.000 C 
ATOM     19  C   UNL     1       0.009  13.514  19.482  0.00  0.00    +0.000 C 
BRANCH  19  20
ATOM     20  C   UNL     1      -0.101  14.751  18.701  0.00  0.00    +0.000 C 
BRANCH  20  21
ATOM     21  C   UNL     1       1.046  15.660  18.967  0.00  0.00    +0.000 A 
ATOM     22  N   UNL     1       2.186  15.693  18.305  0.00  0.00    +0.000 NA
ATOM     23  N   UNL     1       2.957  16.708  18.822  0.00  0.00    +0.000 NA
ATOM     24  C   UNL     1       2.273  17.273  19.787  0.00  0.00    +0.000 A 
ATOM     25  N   UNL     1       1.072  16.649  19.920  0.00  0.00    +0.000 N 
ATOM     26  C   UNL     1       0.050  16.980  20.875  0.00  0.00    +0.000 C 
ENDBRANCH  20  21
ENDBRANCH  19  20
ENDBRANCH  16  18
ENDBRANCH   9  12
BRANCH   6  27
ATOM     27  C   UNL     1       1.944   3.211  20.733  0.00  0.00    +0.000 C 
ATOM     28  F   UNL     1       2.191   1.923  20.373  0.00  0.00    +0.000 F 
ATOM     29  F   UNL     1       2.482   3.362  21.975  0.00  0.00    +0.000 F 
ATOM     30  F   UNL     1       0.596   3.306  20.893  0.00  0.00    +0.000 F 
ENDBRANCH   6  27
TORSDOF 5
ENDMDL
