MODEL 1
REMARK VINA RESULT:      -8.8      0.000      0.000
REMARK  Name = 
REMARK  6 active torsions:
REMARK  status: ('A' for Active; 'I' for Inactive)
REMARK    1  A    between atoms: C_2  and  C_3
REMARK    2  A    between atoms: C_3  and  N_4
REMARK    3  A    between atoms: C_5  and  C_7
REMARK    4  A    between atoms: C_10  and  C_11
REMARK    5  A    between atoms: N_19  and  C_20
REMARK    6  A    between atoms: C_20  and  C_21
REMARK                            x       y       z     vdW  Elec       q    Type
REMARK                         _______ _______ _______ _____ _____    ______ ____
ROOT
ATOM      1  N   UNL     1       2.360   6.688  19.591  0.00  0.00    +0.000 N 
ATOM      2  C   UNL     1       3.134   5.566  19.420  0.00  0.00    +0.000 C 
ATOM      3  O   UNL     1       3.280   4.722  20.299  0.00  0.00    +0.000 OA
ATOM      4  H   UNL     1       2.132   7.302  18.816  0.00  0.00    +0.000 HD
ENDROOT
BRANCH   2   5
ATOM      5  C   UNL     1       3.795   5.389  18.098  0.00  0.00    +0.000 A 
ATOM      6  C   UNL     1       4.396   6.438  17.402  0.00  0.00    +0.000 A 
ATOM      7  C   UNL     1       5.066   6.191  16.193  0.00  0.00    +0.000 A 
ATOM      8  C   UNL     1       5.168   4.893  15.653  0.00  0.00    +0.000 A 
ATOM      9  C   UNL     1       4.544   3.858  16.373  0.00  0.00    +0.000 A 
ATOM     10  C   UNL     1       3.868   4.096  17.572  0.00  0.00    +0.000 A 
BRANCH   8  11
ATOM     11  C   UNL     1       5.935   4.601  14.414  0.00  0.00    +0.000 A 
ATOM     12  C   UNL     1       5.451   3.714  13.436  0.00  0.00    +0.000 A 
ATOM     13  C   UNL     1       6.156   3.473  12.251  0.00  0.00    +0.000 A 
ATOM     14  C   UNL     1       7.360   4.126  12.009  0.00  0.00    +0.000 A 
ATOM     15  C   UNL     1       7.853   5.027  12.944  0.00  0.00    +0.000 A 
ATOM     16  C   UNL     1       7.158   5.245  14.138  0.00  0.00    +0.000 A 
ENDBRANCH   8  11
ENDBRANCH   2   5
BRANCH   1  17
ATOM     17  C   UNL     1       1.680   6.933  20.850  0.00  0.00    +0.000 C 
BRANCH  17  19
ATOM     18  O   UNL     1       1.095   8.931  22.084  0.00  0.00    +0.000 OA
ATOM     19  C   UNL     1       1.299   8.410  20.990  0.00  0.00    +0.000 C 
ATOM     20  N   UNL     1       1.221   9.091  19.797  0.00  0.00    +0.000 N 
ATOM     21  H   UNL     1       1.379   8.615  18.918  0.00  0.00    +0.000 HD
BRANCH  20  22
ATOM     22  C   UNL     1       0.852  10.489  19.712  0.00  0.00    +0.000 C 
BRANCH  22  23
ATOM     23  C   UNL     1      -0.425  10.621  18.947  0.00  0.00    +0.000 A 
ATOM     24  C   UNL     1      -1.548  11.360  19.271  0.00  0.00    +0.000 A 
ATOM     25  N   UNL     1      -2.449  11.145  18.260  0.00  0.00    +0.000 N 
ATOM     26  C   UNL     1      -3.751  11.621  18.115  0.00  0.00    +0.000 A 
ATOM     27  C   UNL     1      -4.462  11.267  17.029  0.00  0.00    +0.000 A 
ATOM     28  C   UNL     1      -3.840  10.413  16.029  0.00  0.00    +0.000 A 
ATOM     29  C   UNL     1      -2.582   9.961  16.176  0.00  0.00    +0.000 A 
ATOM     30  C   UNL     1      -1.827  10.310  17.337  0.00  0.00    +0.000 A 
ATOM     31  N   UNL     1      -0.610   9.978  17.733  0.00  0.00    +0.000 NA
ENDBRANCH  22  23
ENDBRANCH  20  22
ENDBRANCH  17  19
ENDBRANCH   1  17
TORSDOF 6
ENDMDL
MODEL 2
REMARK VINA RESULT:      -8.7      0.518      1.100
REMARK  Name = 
REMARK  6 active torsions:
REMARK  status: ('A' for Active; 'I' for Inactive)
REMARK    1  A    between atoms: C_2  and  C_3
REMARK    2  A    between atoms: C_3  and  N_4
REMARK    3  A    between atoms: C_5  and  C_7
REMARK    4  A    between atoms: C_10  and  C_11
REMARK    5  A    between atoms: N_19  and  C_20
REMARK    6  A    between atoms: C_20  and  C_21
REMARK                            x       y       z     vdW  Elec       q    Type
REMARK                         _______ _______ _______ _____ _____    ______ ____
ROOT
ATOM      1  N   UNL     1       2.409   6.832  19.695  0.00  0.00    +0.000 N 
ATOM      2  C   UNL     1       3.113   5.668  19.502  0.00  0.00    +0.000 C 
ATOM      3  O   UNL     1       3.196   4.795  20.361  0.00  0.00    +0.000 OA
ATOM      4  H   UNL     1       2.227   7.478  18.933  0.00  0.00    +0.000 HD
ENDROOT
BRANCH   2   5
ATOM      5  C   UNL     1       3.773   5.481  18.181  0.00  0.00    +0.000 A 
ATOM      6  C   UNL     1       4.513   6.483  17.553  0.00  0.00    +0.000 A 
ATOM      7  C   UNL     1       5.172   6.220  16.341  0.00  0.00    +0.000 A 
ATOM      8  C   UNL     1       5.124   4.951  15.731  0.00  0.00    +0.000 A 
ATOM      9  C   UNL     1       4.362   3.964  16.384  0.00  0.00    +0.000 A 
ATOM     10  C   UNL     1       3.696   4.220  17.585  0.00  0.00    +0.000 A 
BRANCH   8  11
ATOM     11  C   UNL     1       5.874   4.633  14.489  0.00  0.00    +0.000 A 
ATOM     12  C   UNL     1       5.364   3.747  13.522  0.00  0.00    +0.000 A 
ATOM     13  C   UNL     1       6.054   3.482  12.334  0.00  0.00    +0.000 A 
ATOM     14  C   UNL     1       7.268   4.108  12.075  0.00  0.00    +0.000 A 
ATOM     15  C   UNL     1       7.787   5.008  12.998  0.00  0.00    +0.000 A 
ATOM     16  C   UNL     1       7.107   5.249  14.196  0.00  0.00    +0.000 A 
ENDBRANCH   8  11
ENDBRANCH   2   5
BRANCH   1  17
ATOM     17  C   UNL     1       1.734   7.089  20.954  0.00  0.00    +0.000 C 
BRANCH  17  19
ATOM     18  O   UNL     1       1.187   9.129  22.136  0.00  0.00    +0.000 OA
ATOM     19  C   UNL     1       1.301   8.554  21.055  0.00  0.00    +0.000 C 
ATOM     20  N   UNL     1       1.066   9.162  19.844  0.00  0.00    +0.000 N 
ATOM     21  H   UNL     1       1.154   8.642  18.978  0.00  0.00    +0.000 HD
BRANCH  20  22
ATOM     22  C   UNL     1       0.624  10.536  19.724  0.00  0.00    +0.000 C 
BRANCH  22  23
ATOM     23  C   UNL     1      -0.561  10.601  18.815  0.00  0.00    +0.000 A 
ATOM     24  C   UNL     1      -0.715  10.035  17.563  0.00  0.00    +0.000 A 
ATOM     25  N   UNL     1      -1.970  10.390  17.138  0.00  0.00    +0.000 N 
ATOM     26  C   UNL     1      -2.610  10.114  15.930  0.00  0.00    +0.000 A 
ATOM     27  C   UNL     1      -3.855  10.578  15.727  0.00  0.00    +0.000 A 
ATOM     28  C   UNL     1      -4.504  11.337  16.785  0.00  0.00    +0.000 A 
ATOM     29  C   UNL     1      -3.880  11.596  17.948  0.00  0.00    +0.000 A 
ATOM     30  C   UNL     1      -2.548  11.130  18.165  0.00  0.00    +0.000 A 
ATOM     31  N   UNL     1      -1.715  11.273  19.181  0.00  0.00    +0.000 NA
ENDBRANCH  22  23
ENDBRANCH  20  22
ENDBRANCH  17  19
ENDBRANCH   1  17
TORSDOF 6
ENDMDL
MODEL 3
REMARK VINA RESULT:      -8.3      2.010      3.510
REMARK  Name = 
REMARK  6 active torsions:
REMARK  status: ('A' for Active; 'I' for Inactive)
REMARK    1  A    between atoms: C_2  and  C_3
REMARK    2  A    between atoms: C_3  and  N_4
REMARK    3  A    between atoms: C_5  and  C_7
REMARK    4  A    between atoms: C_10  and  C_11
REMARK    5  A    between atoms: N_19  and  C_20
REMARK    6  A    between atoms: C_20  and  C_21
REMARK                            x       y       z     vdW  Elec       q    Type
REMARK                         _______ _______ _______ _____ _____    ______ ____
ROOT
ATOM      1  N   UNL     1       1.114   9.048  22.244  0.00  0.00    +0.000 N 
ATOM      2  C   UNL     1       0.505   8.156  21.395  0.00  0.00    +0.000 C 
ATOM      3  O   UNL     1      -0.676   7.840  21.503  0.00  0.00    +0.000 OA
ATOM      4  H   UNL     1       2.046   9.409  22.061  0.00  0.00    +0.000 HD
ENDROOT
BRANCH   2   5
ATOM      5  C   UNL     1       1.334   7.581  20.301  0.00  0.00    +0.000 A 
ATOM      6  C   UNL     1       1.812   8.340  19.231  0.00  0.00    +0.000 A 
ATOM      7  C   UNL     1       2.649   7.754  18.268  0.00  0.00    +0.000 A 
ATOM      8  C   UNL     1       3.045   6.404  18.352  0.00  0.00    +0.000 A 
ATOM      9  C   UNL     1       2.540   5.663  19.437  0.00  0.00    +0.000 A 
ATOM     10  C   UNL     1       1.699   6.236  20.394  0.00  0.00    +0.000 A 
BRANCH   8  11
ATOM     11  C   UNL     1       3.989   5.787  17.385  0.00  0.00    +0.000 A 
ATOM     12  C   UNL     1       4.760   6.566  16.504  0.00  0.00    +0.000 A 
ATOM     13  C   UNL     1       5.679   5.985  15.623  0.00  0.00    +0.000 A 
ATOM     14  C   UNL     1       5.860   4.606  15.611  0.00  0.00    +0.000 A 
ATOM     15  C   UNL     1       5.131   3.810  16.486  0.00  0.00    +0.000 A 
ATOM     16  C   UNL     1       4.195   4.393  17.346  0.00  0.00    +0.000 A 
ENDBRANCH   8  11
ENDBRANCH   2   5
BRANCH   1  17
ATOM     17  C   UNL     1       0.375   9.655  23.335  0.00  0.00    +0.000 C 
BRANCH  17  19
ATOM     18  O   UNL     1      -1.727  10.856  23.320  0.00  0.00    +0.000 OA
ATOM     19  C   UNL     1      -0.618  10.697  22.812  0.00  0.00    +0.000 C 
ATOM     20  N   UNL     1      -0.158  11.435  21.747  0.00  0.00    +0.000 N 
ATOM     21  H   UNL     1       0.756  11.255  21.349  0.00  0.00    +0.000 HD
BRANCH  20  22
ATOM     22  C   UNL     1      -0.953  12.453  21.092  0.00  0.00    +0.000 C 
BRANCH  22  23
ATOM     23  C   UNL     1      -1.568  11.885  19.854  0.00  0.00    +0.000 A 
ATOM     24  C   UNL     1      -1.056  10.922  19.004  0.00  0.00    +0.000 A 
ATOM     25  N   UNL     1      -1.990  10.754  18.014  0.00  0.00    +0.000 N 
ATOM     26  C   UNL     1      -1.953   9.932  16.888  0.00  0.00    +0.000 A 
ATOM     27  C   UNL     1      -2.994   9.938  16.038  0.00  0.00    +0.000 A 
ATOM     28  C   UNL     1      -4.138  10.787  16.332  0.00  0.00    +0.000 A 
ATOM     29  C   UNL     1      -4.166  11.575  17.422  0.00  0.00    +0.000 A 
ATOM     30  C   UNL     1      -3.055  11.596  18.318  0.00  0.00    +0.000 A 
ATOM     31  N   UNL     1      -2.820  12.290  19.419  0.00  0.00    +0.000 NA
ENDBRANCH  22  23
ENDBRANCH  20  22
ENDBRANCH  17  19
ENDBRANCH   1  17
TORSDOF 6
ENDMDL
MODEL 4
REMARK VINA RESULT:      -8.2      3.012      9.774
REMARK  Name = 
REMARK  6 active torsions:
REMARK  status: ('A' for Active; 'I' for Inactive)
REMARK    1  A    between atoms: C_2  and  C_3
REMARK    2  A    between atoms: C_3  and  N_4
REMARK    3  A    between atoms: C_5  and  C_7
REMARK    4  A    between atoms: C_10  and  C_11
REMARK    5  A    between atoms: N_19  and  C_20
REMARK    6  A    between atoms: C_20  and  C_21
REMARK                            x       y       z     vdW  Elec       q    Type
REMARK                         _______ _______ _______ _____ _____    ______ ____
ROOT
ATOM      1  N   UNL     1       3.450   5.592  19.955  0.00  0.00    +0.000 N 
ATOM      2  C   UNL     1       3.003   6.302  18.867  0.00  0.00    +0.000 C 
ATOM      3  O   UNL     1       3.242   5.963  17.711  0.00  0.00    +0.000 OA
ATOM      4  H   UNL     1       3.129   5.798  20.895  0.00  0.00    +0.000 HD
ENDROOT
BRANCH   2   5
ATOM      5  C   UNL     1       2.185   7.516  19.134  0.00  0.00    +0.000 A 
ATOM      6  C   UNL     1       1.691   7.836  20.400  0.00  0.00    +0.000 A 
ATOM      7  C   UNL     1       0.986   9.034  20.601  0.00  0.00    +0.000 A 
ATOM      8  C   UNL     1       0.767   9.950  19.553  0.00  0.00    +0.000 A 
ATOM      9  C   UNL     1       1.269   9.595  18.287  0.00  0.00    +0.000 A 
ATOM     10  C   UNL     1       1.964   8.401  18.077  0.00  0.00    +0.000 A 
BRANCH   8  11
ATOM     11  C   UNL     1       0.089  11.255  19.762  0.00  0.00    +0.000 A 
ATOM     12  C   UNL     1      -1.229  11.483  19.324  0.00  0.00    +0.000 A 
ATOM     13  C   UNL     1      -1.880  12.699  19.560  0.00  0.00    +0.000 A 
ATOM     14  C   UNL     1      -1.232  13.716  20.252  0.00  0.00    +0.000 A 
ATOM     15  C   UNL     1       0.061  13.514  20.720  0.00  0.00    +0.000 A 
ATOM     16  C   UNL     1       0.716  12.307  20.459  0.00  0.00    +0.000 A 
ENDBRANCH   8  11
ENDBRANCH   2   5
BRANCH   1  17
ATOM     17  C   UNL     1       4.252   4.394  19.779  0.00  0.00    +0.000 C 
BRANCH  17  19
ATOM     18  O   UNL     1       6.505   5.239  20.036  0.00  0.00    +0.000 OA
ATOM     19  C   UNL     1       5.661   4.743  19.292  0.00  0.00    +0.000 C 
ATOM     20  N   UNL     1       5.894   4.446  17.970  0.00  0.00    +0.000 N 
ATOM     21  H   UNL     1       5.160   4.056  17.390  0.00  0.00    +0.000 HD
BRANCH  20  22
ATOM     22  C   UNL     1       7.154   4.721  17.311  0.00  0.00    +0.000 C 
BRANCH  22  23
ATOM     23  C   UNL     1       6.995   4.538  15.836  0.00  0.00    +0.000 A 
ATOM     24  C   UNL     1       6.143   3.682  15.163  0.00  0.00    +0.000 A 
ATOM     25  N   UNL     1       6.382   3.880  13.827  0.00  0.00    +0.000 N 
ATOM     26  C   UNL     1       5.821   3.244  12.721  0.00  0.00    +0.000 A 
ATOM     27  C   UNL     1       6.221   3.600  11.487  0.00  0.00    +0.000 A 
ATOM     28  C   UNL     1       7.212   4.655  11.346  0.00  0.00    +0.000 A 
ATOM     29  C   UNL     1       7.746   5.265  12.420  0.00  0.00    +0.000 A 
ATOM     30  C   UNL     1       7.348   4.877  13.735  0.00  0.00    +0.000 A 
ATOM     31  N   UNL     1       7.735   5.284  14.932  0.00  0.00    +0.000 NA
ENDBRANCH  22  23
ENDBRANCH  20  22
ENDBRANCH  17  19
ENDBRANCH   1  17
TORSDOF 6
ENDMDL
MODEL 5
REMARK VINA RESULT:      -8.2      0.727      1.744
REMARK  Name = 
REMARK  6 active torsions:
REMARK  status: ('A' for Active; 'I' for Inactive)
REMARK    1  A    between atoms: C_2  and  C_3
REMARK    2  A    between atoms: C_3  and  N_4
REMARK    3  A    between atoms: C_5  and  C_7
REMARK    4  A    between atoms: C_10  and  C_11
REMARK    5  A    between atoms: N_19  and  C_20
REMARK    6  A    between atoms: C_20  and  C_21
REMARK                            x       y       z     vdW  Elec       q    Type
REMARK                         _______ _______ _______ _____ _____    ______ ____
ROOT
ATOM      1  N   UNL     1       2.413   6.786  20.035  0.00  0.00    +0.000 N 
ATOM      2  C   UNL     1       2.351   5.536  19.469  0.00  0.00    +0.000 C 
ATOM      3  O   UNL     1       1.570   4.671  19.857  0.00  0.00    +0.000 OA
ATOM      4  H   UNL     1       2.957   7.534  19.617  0.00  0.00    +0.000 HD
ENDROOT
BRANCH   2   5
ATOM      5  C   UNL     1       3.266   5.257  18.329  0.00  0.00    +0.000 A 
ATOM      6  C   UNL     1       3.494   3.972  17.834  0.00  0.00    +0.000 A 
ATOM      7  C   UNL     1       4.313   3.783  16.710  0.00  0.00    +0.000 A 
ATOM      8  C   UNL     1       4.915   4.867  16.040  0.00  0.00    +0.000 A 
ATOM      9  C   UNL     1       4.674   6.149  16.568  0.00  0.00    +0.000 A 
ATOM     10  C   UNL     1       3.868   6.345  17.692  0.00  0.00    +0.000 A 
BRANCH   8  11
ATOM     11  C   UNL     1       5.724   4.694  14.806  0.00  0.00    +0.000 A 
ATOM     12  C   UNL     1       6.960   5.343  14.634  0.00  0.00    +0.000 A 
ATOM     13  C   UNL     1       7.739   5.146  13.489  0.00  0.00    +0.000 A 
ATOM     14  C   UNL     1       7.308   4.280  12.490  0.00  0.00    +0.000 A 
ATOM     15  C   UNL     1       6.103   3.603  12.641  0.00  0.00    +0.000 A 
ATOM     16  C   UNL     1       5.315   3.825  13.774  0.00  0.00    +0.000 A 
ENDBRANCH   8  11
ENDBRANCH   2   5
BRANCH   1  17
ATOM     17  C   UNL     1       1.552   7.138  21.149  0.00  0.00    +0.000 C 
BRANCH  17  19
ATOM     18  O   UNL     1       0.534   9.168  21.987  0.00  0.00    +0.000 OA
ATOM     19  C   UNL     1       1.110   8.602  21.059  0.00  0.00    +0.000 C 
ATOM     20  N   UNL     1       1.423   9.217  19.870  0.00  0.00    +0.000 N 
ATOM     21  H   UNL     1       1.881   8.704  19.126  0.00  0.00    +0.000 HD
BRANCH  20  22
ATOM     22  C   UNL     1       1.070  10.591  19.577  0.00  0.00    +0.000 C 
BRANCH  22  23
ATOM     23  C   UNL     1      -0.230  10.625  18.840  0.00  0.00    +0.000 A 
ATOM     24  C   UNL     1      -0.567   9.985  17.662  0.00  0.00    +0.000 A 
ATOM     25  N   UNL     1      -1.864  10.341  17.394  0.00  0.00    +0.000 N 
ATOM     26  C   UNL     1      -2.672  10.004  16.309  0.00  0.00    +0.000 A 
ATOM     27  C   UNL     1      -3.927  10.483  16.252  0.00  0.00    +0.000 A 
ATOM     28  C   UNL     1      -4.410  11.322  17.337  0.00  0.00    +0.000 A 
ATOM     29  C   UNL     1      -3.625  11.640  18.382  0.00  0.00    +0.000 A 
ATOM     30  C   UNL     1      -2.282  11.158  18.441  0.00  0.00    +0.000 A 
ATOM     31  N   UNL     1      -1.312  11.346  19.319  0.00  0.00    +0.000 NA
ENDBRANCH  22  23
ENDBRANCH  20  22
ENDBRANCH  17  19
ENDBRANCH   1  17
TORSDOF 6
ENDMDL
MODEL 6
REMARK VINA RESULT:      -8.1      6.285      9.169
REMARK  Name = 
REMARK  6 active torsions:
REMARK  status: ('A' for Active; 'I' for Inactive)
REMARK    1  A    between atoms: C_2  and  C_3
REMARK    2  A    between atoms: C_3  and  N_4
REMARK    3  A    between atoms: C_5  and  C_7
REMARK    4  A    between atoms: C_10  and  C_11
REMARK    5  A    between atoms: N_19  and  C_20
REMARK    6  A    between atoms: C_20  and  C_21
REMARK                            x       y       z     vdW  Elec       q    Type
REMARK                         _______ _______ _______ _____ _____    ______ ____
ROOT
ATOM      1  N   UNL     1       7.632   8.110  17.078  0.00  0.00    +0.000 N 
ATOM      2  C   UNL     1       8.315   8.351  18.245  0.00  0.00    +0.000 C 
ATOM      3  O   UNL     1       8.573   7.466  19.057  0.00  0.00    +0.000 OA
ATOM      4  H   UNL     1       7.550   8.815  16.353  0.00  0.00    +0.000 HD
ENDROOT
BRANCH   2   5
ATOM      5  C   UNL     1       8.762   9.748  18.498  0.00  0.00    +0.000 A 
ATOM      6  C   UNL     1       8.519  10.796  17.610  0.00  0.00    +0.000 A 
ATOM      7  C   UNL     1       8.903  12.106  17.941  0.00  0.00    +0.000 A 
ATOM      8  C   UNL     1       9.525  12.408  19.168  0.00  0.00    +0.000 A 
ATOM      9  C   UNL     1       9.765  11.329  20.039  0.00  0.00    +0.000 A 
ATOM     10  C   UNL     1       9.394  10.022  19.714  0.00  0.00    +0.000 A 
BRANCH   8  11
ATOM     11  C   UNL     1       9.871  13.797  19.567  0.00  0.00    +0.000 A 
ATOM     12  C   UNL     1       9.504  14.906  18.782  0.00  0.00    +0.000 A 
ATOM     13  C   UNL     1       9.796  16.215  19.181  0.00  0.00    +0.000 A 
ATOM     14  C   UNL     1      10.451  16.450  20.385  0.00  0.00    +0.000 A 
ATOM     15  C   UNL     1      10.805  15.378  21.195  0.00  0.00    +0.000 A 
ATOM     16  C   UNL     1      10.536  14.070  20.780  0.00  0.00    +0.000 A 
ENDBRANCH   8  11
ENDBRANCH   2   5
BRANCH   1  17
ATOM     17  C   UNL     1       7.165   6.774  16.756  0.00  0.00    +0.000 C 
BRANCH  17  19
ATOM     18  O   UNL     1       5.157   6.484  15.435  0.00  0.00    +0.000 OA
ATOM     19  C   UNL     1       5.651   6.762  16.526  0.00  0.00    +0.000 C 
ATOM     20  N   UNL     1       4.906   7.075  17.639  0.00  0.00    +0.000 N 
ATOM     21  H   UNL     1       5.357   7.318  18.513  0.00  0.00    +0.000 HD
BRANCH  20  22
ATOM     22  C   UNL     1       3.459   7.144  17.625  0.00  0.00    +0.000 C 
BRANCH  22  23
ATOM     23  C   UNL     1       2.897   5.951  18.330  0.00  0.00    +0.000 A 
ATOM     24  C   UNL     1       2.418   4.777  17.781  0.00  0.00    +0.000 A 
ATOM     25  N   UNL     1       2.005   4.004  18.836  0.00  0.00    +0.000 N 
ATOM     26  C   UNL     1       1.409   2.744  18.836  0.00  0.00    +0.000 A 
ATOM     27  C   UNL     1       1.077   2.176  20.008  0.00  0.00    +0.000 A 
ATOM     28  C   UNL     1       1.371   2.886  21.243  0.00  0.00    +0.000 A 
ATOM     29  C   UNL     1       1.949   4.100  21.234  0.00  0.00    +0.000 A 
ATOM     30  C   UNL     1       2.282   4.725  19.994  0.00  0.00    +0.000 A 
ATOM     31  N   UNL     1       2.815   5.902  19.712  0.00  0.00    +0.000 NA
ENDBRANCH  22  23
ENDBRANCH  20  22
ENDBRANCH  17  19
ENDBRANCH   1  17
TORSDOF 6
ENDMDL
MODEL 7
REMARK VINA RESULT:      -8.1      2.053      3.508
REMARK  Name = 
REMARK  6 active torsions:
REMARK  status: ('A' for Active; 'I' for Inactive)
REMARK    1  A    between atoms: C_2  and  C_3
REMARK    2  A    between atoms: C_3  and  N_4
REMARK    3  A    between atoms: C_5  and  C_7
REMARK    4  A    between atoms: C_10  and  C_11
REMARK    5  A    between atoms: N_19  and  C_20
REMARK    6  A    between atoms: C_20  and  C_21
REMARK                            x       y       z     vdW  Elec       q    Type
REMARK                         _______ _______ _______ _____ _____    ______ ____
ROOT
ATOM      1  N   UNL     1       0.827   9.360  22.180  0.00  0.00    +0.000 N 
ATOM      2  C   UNL     1       0.416   8.245  21.490  0.00  0.00    +0.000 C 
ATOM      3  O   UNL     1      -0.702   7.756  21.626  0.00  0.00    +0.000 OA
ATOM      4  H   UNL     1       1.695   9.836  21.955  0.00  0.00    +0.000 HD
ENDROOT
BRANCH   2   5
ATOM      5  C   UNL     1       1.383   7.640  20.533  0.00  0.00    +0.000 A 
ATOM      6  C   UNL     1       1.863   6.336  20.661  0.00  0.00    +0.000 A 
ATOM      7  C   UNL     1       2.718   5.799  19.685  0.00  0.00    +0.000 A 
ATOM      8  C   UNL     1       3.104   6.539  18.549  0.00  0.00    +0.000 A 
ATOM      9  C   UNL     1       2.611   7.854  18.454  0.00  0.00    +0.000 A 
ATOM     10  C   UNL     1       1.768   8.399  19.425  0.00  0.00    +0.000 A 
BRANCH   8  11
ATOM     11  C   UNL     1       3.947   5.964  17.470  0.00  0.00    +0.000 A 
ATOM     12  C   UNL     1       4.046   4.575  17.269  0.00  0.00    +0.000 A 
ATOM     13  C   UNL     1       4.807   4.037  16.225  0.00  0.00    +0.000 A 
ATOM     14  C   UNL     1       5.480   4.878  15.345  0.00  0.00    +0.000 A 
ATOM     15  C   UNL     1       5.383   6.255  15.502  0.00  0.00    +0.000 A 
ATOM     16  C   UNL     1       4.643   6.787  16.562  0.00  0.00    +0.000 A 
ENDBRANCH   8  11
ENDBRANCH   2   5
BRANCH   1  17
ATOM     17  C   UNL     1      -0.057  10.011  23.128  0.00  0.00    +0.000 C 
BRANCH  17  19
ATOM     18  O   UNL     1      -1.936  11.517  22.884  0.00  0.00    +0.000 OA
ATOM     19  C   UNL     1      -0.845  11.140  22.459  0.00  0.00    +0.000 C 
ATOM     20  N   UNL     1      -0.225  11.692  21.363  0.00  0.00    +0.000 N 
ATOM     21  H   UNL     1       0.665  11.335  21.037  0.00  0.00    +0.000 HD
BRANCH  20  22
ATOM     22  C   UNL     1      -0.816  12.755  20.575  0.00  0.00    +0.000 C 
BRANCH  22  23
ATOM     23  C   UNL     1      -1.565  12.164  19.424  0.00  0.00    +0.000 A 
ATOM     24  C   UNL     1      -2.832  12.482  18.971  0.00  0.00    +0.000 A 
ATOM     25  N   UNL     1      -3.070  11.657  17.901  0.00  0.00    +0.000 N 
ATOM     26  C   UNL     1      -4.210  11.540  17.107  0.00  0.00    +0.000 A 
ATOM     27  C   UNL     1      -4.220  10.644  16.104  0.00  0.00    +0.000 A 
ATOM     28  C   UNL     1      -3.031   9.840  15.866  0.00  0.00    +0.000 A 
ATOM     29  C   UNL     1      -1.935   9.962  16.636  0.00  0.00    +0.000 A 
ATOM     30  C   UNL     1      -1.922  10.892  17.720  0.00  0.00    +0.000 A 
ATOM     31  N   UNL     1      -1.006  11.177  18.629  0.00  0.00    +0.000 NA
ENDBRANCH  22  23
ENDBRANCH  20  22
ENDBRANCH  17  19
ENDBRANCH   1  17
TORSDOF 6
ENDMDL
MODEL 8
REMARK VINA RESULT:      -8.1      1.319      2.073
REMARK  Name = 
REMARK  6 active torsions:
REMARK  status: ('A' for Active; 'I' for Inactive)
REMARK    1  A    between atoms: C_2  and  C_3
REMARK    2  A    between atoms: C_3  and  N_4
REMARK    3  A    between atoms: C_5  and  C_7
REMARK    4  A    between atoms: C_10  and  C_11
REMARK    5  A    between atoms: N_19  and  C_20
REMARK    6  A    between atoms: C_20  and  C_21
REMARK                            x       y       z     vdW  Elec       q    Type
REMARK                         _______ _______ _______ _____ _____    ______ ____
ROOT
ATOM      1  N   UNL     1       2.299   7.704  18.814  0.00  0.00    +0.000 N 
ATOM      2  C   UNL     1       2.924   6.496  19.009  0.00  0.00    +0.000 C 
ATOM      3  O   UNL     1       2.828   5.862  20.057  0.00  0.00    +0.000 OA
ATOM      4  H   UNL     1       2.267   8.146  17.901  0.00  0.00    +0.000 HD
ENDROOT
BRANCH   2   5
ATOM      5  C   UNL     1       3.725   5.952  17.880  0.00  0.00    +0.000 A 
ATOM      6  C   UNL     1       3.734   4.600  17.535  0.00  0.00    +0.000 A 
ATOM      7  C   UNL     1       4.455   4.161  16.413  0.00  0.00    +0.000 A 
ATOM      8  C   UNL     1       5.174   5.057  15.596  0.00  0.00    +0.000 A 
ATOM      9  C   UNL     1       5.154   6.412  15.975  0.00  0.00    +0.000 A 
ATOM     10  C   UNL     1       4.446   6.856  17.095  0.00  0.00    +0.000 A 
BRANCH   8  11
ATOM     11  C   UNL     1       5.881   4.622  14.364  0.00  0.00    +0.000 A 
ATOM     12  C   UNL     1       5.310   3.698  13.470  0.00  0.00    +0.000 A 
ATOM     13  C   UNL     1       5.961   3.323  12.289  0.00  0.00    +0.000 A 
ATOM     14  C   UNL     1       7.196   3.874  11.966  0.00  0.00    +0.000 A 
ATOM     15  C   UNL     1       7.776   4.808  12.816  0.00  0.00    +0.000 A 
ATOM     16  C   UNL     1       7.134   5.160  14.007  0.00  0.00    +0.000 A 
ENDBRANCH   8  11
ENDBRANCH   2   5
BRANCH   1  17
ATOM     17  C   UNL     1       1.495   8.300  19.865  0.00  0.00    +0.000 C 
BRANCH  17  19
ATOM     18  O   UNL     1       1.630  10.334  18.560  0.00  0.00    +0.000 OA
ATOM     19  C   UNL     1       1.156   9.757  19.537  0.00  0.00    +0.000 C 
ATOM     20  N   UNL     1       0.276  10.346  20.414  0.00  0.00    +0.000 N 
ATOM     21  H   UNL     1      -0.073   9.837  21.217  0.00  0.00    +0.000 HD
BRANCH  20  22
ATOM     22  C   UNL     1      -0.153  11.724  20.294  0.00  0.00    +0.000 C 
BRANCH  22  23
ATOM     23  C   UNL     1      -1.481  11.775  19.609  0.00  0.00    +0.000 A 
ATOM     24  C   UNL     1      -1.807  11.348  18.336  0.00  0.00    +0.000 A 
ATOM     25  N   UNL     1      -3.142  11.621  18.174  0.00  0.00    +0.000 N 
ATOM     26  C   UNL     1      -3.960  11.425  17.063  0.00  0.00    +0.000 A 
ATOM     27  C   UNL     1      -5.255  11.782  17.131  0.00  0.00    +0.000 A 
ATOM     28  C   UNL     1      -5.766  12.342  18.373  0.00  0.00    +0.000 A 
ATOM     29  C   UNL     1      -4.969  12.525  19.441  0.00  0.00    +0.000 A 
ATOM     30  C   UNL     1      -3.587  12.174  19.371  0.00  0.00    +0.000 A 
ATOM     31  N   UNL     1      -2.602  12.280  20.247  0.00  0.00    +0.000 NA
ENDBRANCH  22  23
ENDBRANCH  20  22
ENDBRANCH  17  19
ENDBRANCH   1  17
TORSDOF 6
ENDMDL
MODEL 9
REMARK VINA RESULT:      -8.1      3.065      9.419
REMARK  Name = 
REMARK  6 active torsions:
REMARK  status: ('A' for Active; 'I' for Inactive)
REMARK    1  A    between atoms: C_2  and  C_3
REMARK    2  A    between atoms: C_3  and  N_4
REMARK    3  A    between atoms: C_5  and  C_7
REMARK    4  A    between atoms: C_10  and  C_11
REMARK    5  A    between atoms: N_19  and  C_20
REMARK    6  A    between atoms: C_20  and  C_21
REMARK                            x       y       z     vdW  Elec       q    Type
REMARK                         _______ _______ _______ _____ _____    ______ ____
ROOT
ATOM      1  N   UNL     1       2.910   5.535  19.940  0.00  0.00    +0.000 N 
ATOM      2  C   UNL     1       2.372   6.134  18.827  0.00  0.00    +0.000 C 
ATOM      3  O   UNL     1       2.115   5.513  17.799  0.00  0.00    +0.000 OA
ATOM      4  H   UNL     1       2.985   6.024  20.826  0.00  0.00    +0.000 HD
ENDROOT
BRANCH   2   5
ATOM      5  C   UNL     1       2.084   7.591  18.909  0.00  0.00    +0.000 A 
ATOM      6  C   UNL     1       2.276   8.465  17.838  0.00  0.00    +0.000 A 
ATOM      7  C   UNL     1       1.916   9.818  17.957  0.00  0.00    +0.000 A 
ATOM      8  C   UNL     1       1.343  10.332  19.137  0.00  0.00    +0.000 A 
ATOM      9  C   UNL     1       1.171   9.428  20.202  0.00  0.00    +0.000 A 
ATOM     10  C   UNL     1       1.534   8.084  20.095  0.00  0.00    +0.000 A 
BRANCH   8  11
ATOM     11  C   UNL     1       0.889  11.742  19.256  0.00  0.00    +0.000 A 
ATOM     12  C   UNL     1       1.520  12.652  20.122  0.00  0.00    +0.000 A 
ATOM     13  C   UNL     1       1.117  13.990  20.201  0.00  0.00    +0.000 A 
ATOM     14  C   UNL     1       0.078  14.455  19.403  0.00  0.00    +0.000 A 
ATOM     15  C   UNL     1      -0.551  13.587  18.518  0.00  0.00    +0.000 A 
ATOM     16  C   UNL     1      -0.162  12.245  18.462  0.00  0.00    +0.000 A 
ENDBRANCH   8  11
ENDBRANCH   2   5
BRANCH   1  17
ATOM     17  C   UNL     1       3.217   4.116  19.942  0.00  0.00    +0.000 C 
BRANCH  17  19
ATOM     18  O   UNL     1       5.270   2.844  19.781  0.00  0.00    +0.000 OA
ATOM     19  C   UNL     1       4.655   3.865  19.478  0.00  0.00    +0.000 C 
ATOM     20  N   UNL     1       5.181   4.865  18.695  0.00  0.00    +0.000 N 
ATOM     21  H   UNL     1       4.644   5.698  18.488  0.00  0.00    +0.000 HD
BRANCH  20  22
ATOM     22  C   UNL     1       6.534   4.830  18.177  0.00  0.00    +0.000 C 
BRANCH  22  23
ATOM     23  C   UNL     1       6.495   4.620  16.697  0.00  0.00    +0.000 A 
ATOM     24  C   UNL     1       5.579   3.897  15.956  0.00  0.00    +0.000 A 
ATOM     25  N   UNL     1       5.983   3.999  14.649  0.00  0.00    +0.000 N 
ATOM     26  C   UNL     1       5.434   3.426  13.503  0.00  0.00    +0.000 A 
ATOM     27  C   UNL     1       6.012   3.661  12.312  0.00  0.00    +0.000 A 
ATOM     28  C   UNL     1       7.180   4.525  12.255  0.00  0.00    +0.000 A 
ATOM     29  C   UNL     1       7.701   5.076  13.366  0.00  0.00    +0.000 A 
ATOM     30  C   UNL     1       7.112   4.812  14.639  0.00  0.00    +0.000 A 
ATOM     31  N   UNL     1       7.440   5.193  15.862  0.00  0.00    +0.000 NA
ENDBRANCH  22  23
ENDBRANCH  20  22
ENDBRANCH  17  19
ENDBRANCH   1  17
TORSDOF 6
ENDMDL
