MODEL 1
REMARK VINA RESULT:      -9.5      0.000      0.000
REMARK  Name = 
REMARK  4 active torsions:
REMARK  status: ('A' for Active; 'I' for Inactive)
REMARK    1  A    between atoms: C_1  and  C_2
REMARK    2  A    between atoms: C_5  and  C_6
REMARK    3  A    between atoms: C_13  and  C_14
REMARK    4  A    between atoms: N_16  and  C_17
REMARK                            x       y       z     vdW  Elec       q    Type
REMARK                         _______ _______ _______ _____ _____    ______ ____
ROOT
ATOM      1  C   UNL     1       2.512   5.356  19.087  0.00  0.00    +0.000 C 
ATOM      2  O   UNL     1       1.795   5.201  18.102  0.00  0.00    +0.000 OA
ATOM      3  N   UNL     1       2.713   6.572  19.721  0.00  0.00    +0.000 N 
ATOM      4  H   UNL     1       3.459   6.666  20.402  0.00  0.00    +0.000 HD
ENDROOT
BRANCH   3   5
ATOM      5  C   UNL     1       2.147   7.821  19.306  0.00  0.00    +0.000 A 
ATOM      6  C   UNL     1       2.399   8.365  18.039  0.00  0.00    +0.000 A 
ATOM      7  C   UNL     1       1.913   9.618  17.682  0.00  0.00    +0.000 A 
ATOM      8  C   UNL     1       1.152  10.338  18.588  0.00  0.00    +0.000 A 
ATOM      9  C   UNL     1       0.856   9.796  19.850  0.00  0.00    +0.000 A 
ATOM     10  C   UNL     1       0.084  10.522  20.760  0.00  0.00    +0.000 A 
ATOM     11  C   UNL     1      -0.206   9.980  22.003  0.00  0.00    +0.000 A 
ATOM     12  C   UNL     1       0.293   8.724  22.292  0.00  0.00    +0.000 A 
ATOM     13  N   UNL     1       1.055   7.991  21.443  0.00  0.00    +0.000 NA
ATOM     14  C   UNL     1       1.343   8.516  20.226  0.00  0.00    +0.000 A 
ENDBRANCH   3   5
BRANCH   1  20
ATOM     15  C   UNL     1       1.944   3.310  21.672  0.00  0.00    +0.000 C 
ATOM     16  C   UNL     1       2.990   3.388  20.636  0.00  0.00    +0.000 A 
ATOM     17  O   UNL     1       3.907   2.390  20.669  0.00  0.00    +0.000 OA
ATOM     18  N   UNL     1       4.831   2.568  19.674  0.00  0.00    +0.000 NA
ATOM     19  C   UNL     1       4.464   3.661  18.986  0.00  0.00    +0.000 A 
ATOM     20  C   UNL     1       3.272   4.226  19.575  0.00  0.00    +0.000 A 
BRANCH  19  21
ATOM     21  C   UNL     1       5.296   4.173  17.879  0.00  0.00    +0.000 A 
ATOM     22  C   UNL     1       4.948   3.833  16.554  0.00  0.00    +0.000 A 
ATOM     23  C   UNL     1       5.665   4.320  15.456  0.00  0.00    +0.000 A 
ATOM     24  C   UNL     1       6.724   5.194  15.654  0.00  0.00    +0.000 A 
ATOM     25  C   UNL     1       7.086   5.551  16.951  0.00  0.00    +0.000 A 
ATOM     26  C   UNL     1       6.394   5.035  18.060  0.00  0.00    +0.000 A 
ATOM     27 CL   UNL     1       7.015   5.494  19.611  0.00  0.00    +0.000 Cl
ENDBRANCH  19  21
ENDBRANCH   1  20
TORSDOF 3
ENDMDL
MODEL 2
REMARK VINA RESULT:      -9.5      1.080      1.513
REMARK  Name = 
REMARK  4 active torsions:
REMARK  status: ('A' for Active; 'I' for Inactive)
REMARK    1  A    between atoms: C_1  and  C_2
REMARK    2  A    between atoms: C_5  and  C_6
REMARK    3  A    between atoms: C_13  and  C_14
REMARK    4  A    between atoms: N_16  and  C_17
REMARK                            x       y       z     vdW  Elec       q    Type
REMARK                         _______ _______ _______ _____ _____    ______ ____
ROOT
ATOM      1  C   UNL     1       2.435   5.398  19.228  0.00  0.00    +0.000 C 
ATOM      2  O   UNL     1       1.704   5.221  18.256  0.00  0.00    +0.000 OA
ATOM      3  N   UNL     1       2.642   6.628  19.834  0.00  0.00    +0.000 N 
ATOM      4  H   UNL     1       3.397   6.737  20.503  0.00  0.00    +0.000 HD
ENDROOT
BRANCH   3   5
ATOM      5  C   UNL     1       2.069   7.866  19.400  0.00  0.00    +0.000 A 
ATOM      6  C   UNL     1       2.259   8.358  18.101  0.00  0.00    +0.000 A 
ATOM      7  C   UNL     1       1.770   9.602  17.721  0.00  0.00    +0.000 A 
ATOM      8  C   UNL     1       1.065  10.367  18.636  0.00  0.00    +0.000 A 
ATOM      9  C   UNL     1       0.830   9.878  19.932  0.00  0.00    +0.000 A 
ATOM     10  C   UNL     1       0.115  10.649  20.852  0.00  0.00    +0.000 A 
ATOM     11  C   UNL     1      -0.115  10.159  22.129  0.00  0.00    +0.000 A 
ATOM     12  C   UNL     1       0.385   8.908  22.441  0.00  0.00    +0.000 A 
ATOM     13  N   UNL     1       1.093   8.133  21.583  0.00  0.00    +0.000 NA
ATOM     14  C   UNL     1       1.322   8.607  20.332  0.00  0.00    +0.000 A 
ENDBRANCH   3   5
BRANCH   1  20
ATOM     15  C   UNL     1       1.541   2.876  21.236  0.00  0.00    +0.000 C 
ATOM     16  C   UNL     1       2.789   3.241  20.541  0.00  0.00    +0.000 A 
ATOM     17  O   UNL     1       3.801   2.349  20.672  0.00  0.00    +0.000 OA
ATOM     18  N   UNL     1       4.908   2.793  19.998  0.00  0.00    +0.000 NA
ATOM     19  C   UNL     1       4.571   3.950  19.405  0.00  0.00    +0.000 A 
ATOM     20  C   UNL     1       3.203   4.279  19.730  0.00  0.00    +0.000 A 
BRANCH  19  21
ATOM     21  C   UNL     1       5.569   4.731  18.649  0.00  0.00    +0.000 A 
ATOM     22  C   UNL     1       6.573   5.423  19.362  0.00  0.00    +0.000 A 
ATOM     23  C   UNL     1       7.576   6.145  18.707  0.00  0.00    +0.000 A 
ATOM     24  C   UNL     1       7.626   6.160  17.321  0.00  0.00    +0.000 A 
ATOM     25  C   UNL     1       6.650   5.483  16.592  0.00  0.00    +0.000 A 
ATOM     26  C   UNL     1       5.618   4.787  17.244  0.00  0.00    +0.000 A 
ATOM     27 CL   UNL     1       4.427   4.070  16.209  0.00  0.00    +0.000 Cl
ENDBRANCH  19  21
ENDBRANCH   1  20
TORSDOF 3
ENDMDL
MODEL 3
REMARK VINA RESULT:      -8.3      1.960      3.745
REMARK  Name = 
REMARK  4 active torsions:
REMARK  status: ('A' for Active; 'I' for Inactive)
REMARK    1  A    between atoms: C_1  and  C_2
REMARK    2  A    between atoms: C_5  and  C_6
REMARK    3  A    between atoms: C_13  and  C_14
REMARK    4  A    between atoms: N_16  and  C_17
REMARK                            x       y       z     vdW  Elec       q    Type
REMARK                         _______ _______ _______ _____ _____    ______ ____
ROOT
ATOM      1  C   UNL     1       3.731   6.778  18.113  0.00  0.00    +0.000 C 
ATOM      2  O   UNL     1       3.798   7.286  16.996  0.00  0.00    +0.000 OA
ATOM      3  N   UNL     1       2.839   7.174  19.097  0.00  0.00    +0.000 N 
ATOM      4  H   UNL     1       2.964   6.848  20.049  0.00  0.00    +0.000 HD
ENDROOT
BRANCH   3   5
ATOM      5  C   UNL     1       1.897   8.246  18.971  0.00  0.00    +0.000 A 
ATOM      6  C   UNL     1       1.563   8.798  17.726  0.00  0.00    +0.000 A 
ATOM      7  C   UNL     1       0.713   9.894  17.628  0.00  0.00    +0.000 A 
ATOM      8  C   UNL     1       0.171  10.443  18.778  0.00  0.00    +0.000 A 
ATOM      9  C   UNL     1       0.463   9.883  20.033  0.00  0.00    +0.000 A 
ATOM     10  C   UNL     1      -0.088  10.436  21.191  0.00  0.00    +0.000 A 
ATOM     11  C   UNL     1       0.202   9.876  22.426  0.00  0.00    +0.000 A 
ATOM     12  C   UNL     1       1.042   8.778  22.457  0.00  0.00    +0.000 A 
ATOM     13  N   UNL     1       1.607   8.218  21.359  0.00  0.00    +0.000 NA
ATOM     14  C   UNL     1       1.327   8.761  20.147  0.00  0.00    +0.000 A 
ENDBRANCH   3   5
BRANCH   1  20
ATOM     15  C   UNL     1       7.059   6.722  17.769  0.00  0.00    +0.000 C 
ATOM     16  C   UNL     1       6.069   5.785  18.332  0.00  0.00    +0.000 A 
ATOM     17  O   UNL     1       6.593   4.672  18.901  0.00  0.00    +0.000 OA
ATOM     18  N   UNL     1       5.588   3.872  19.380  0.00  0.00    +0.000 NA
ATOM     19  C   UNL     1       4.431   4.513  19.146  0.00  0.00    +0.000 A 
ATOM     20  C   UNL     1       4.696   5.760  18.469  0.00  0.00    +0.000 A 
BRANCH  19  21
ATOM     21  C   UNL     1       3.138   3.884  19.481  0.00  0.00    +0.000 A 
ATOM     22  C   UNL     1       2.700   3.903  20.823  0.00  0.00    +0.000 A 
ATOM     23  C   UNL     1       1.465   3.366  21.203  0.00  0.00    +0.000 A 
ATOM     24  C   UNL     1       0.617   2.833  20.243  0.00  0.00    +0.000 A 
ATOM     25  C   UNL     1       1.022   2.805  18.910  0.00  0.00    +0.000 A 
ATOM     26  C   UNL     1       2.277   3.308  18.528  0.00  0.00    +0.000 A 
ATOM     27 CL   UNL     1       2.681   3.123  16.853  0.00  0.00    +0.000 Cl
ENDBRANCH  19  21
ENDBRANCH   1  20
TORSDOF 3
ENDMDL
MODEL 4
REMARK VINA RESULT:      -7.8      1.944      2.951
REMARK  Name = 
REMARK  4 active torsions:
REMARK  status: ('A' for Active; 'I' for Inactive)
REMARK    1  A    between atoms: C_1  and  C_2
REMARK    2  A    between atoms: C_5  and  C_6
REMARK    3  A    between atoms: C_13  and  C_14
REMARK    4  A    between atoms: N_16  and  C_17
REMARK                            x       y       z     vdW  Elec       q    Type
REMARK                         _______ _______ _______ _____ _____    ______ ____
ROOT
ATOM      1  C   UNL     1       2.644   5.481  19.729  0.00  0.00    +0.000 C 
ATOM      2  O   UNL     1       2.633   5.167  20.917  0.00  0.00    +0.000 OA
ATOM      3  N   UNL     1       2.211   6.704  19.241  0.00  0.00    +0.000 N 
ATOM      4  H   UNL     1       2.068   6.825  18.244  0.00  0.00    +0.000 HD
ENDROOT
BRANCH   3   5
ATOM      5  C   UNL     1       1.659   7.759  20.037  0.00  0.00    +0.000 A 
ATOM      6  C   UNL     1       1.133   7.526  21.316  0.00  0.00    +0.000 A 
ATOM      7  C   UNL     1       0.522   8.543  22.041  0.00  0.00    +0.000 A 
ATOM      8  C   UNL     1       0.445   9.816  21.500  0.00  0.00    +0.000 A 
ATOM      9  C   UNL     1       0.999  10.080  20.236  0.00  0.00    +0.000 A 
ATOM     10  C   UNL     1       0.924  11.366  19.694  0.00  0.00    +0.000 A 
ATOM     11  C   UNL     1       1.474  11.620  18.447  0.00  0.00    +0.000 A 
ATOM     12  C   UNL     1       2.081  10.570  17.782  0.00  0.00    +0.000 A 
ATOM     13  N   UNL     1       2.165   9.306  18.266  0.00  0.00    +0.000 NA
ATOM     14  C   UNL     1       1.628   9.051  19.486  0.00  0.00    +0.000 A 
ENDBRANCH   3   5
BRANCH   1  20
ATOM     15  C   UNL     1       1.016   2.815  18.531  0.00  0.00    +0.000 C 
ATOM     16  C   UNL     1       2.337   3.413  18.268  0.00  0.00    +0.000 A 
ATOM     17  O   UNL     1       3.053   2.814  17.285  0.00  0.00    +0.000 OA
ATOM     18  N   UNL     1       4.260   3.444  17.134  0.00  0.00    +0.000 NA
ATOM     19  C   UNL     1       4.281   4.471  17.999  0.00  0.00    +0.000 A 
ATOM     20  C   UNL     1       3.051   4.490  18.755  0.00  0.00    +0.000 A 
BRANCH  19  21
ATOM     21  C   UNL     1       5.481   5.318  18.139  0.00  0.00    +0.000 A 
ATOM     22  C   UNL     1       6.346   5.097  19.233  0.00  0.00    +0.000 A 
ATOM     23  C   UNL     1       7.524   5.832  19.401  0.00  0.00    +0.000 A 
ATOM     24  C   UNL     1       7.888   6.781  18.458  0.00  0.00    +0.000 A 
ATOM     25  C   UNL     1       7.055   7.018  17.366  0.00  0.00    +0.000 A 
ATOM     26  C   UNL     1       5.852   6.309  17.211  0.00  0.00    +0.000 A 
ATOM     27 CL   UNL     1       4.877   6.774  15.856  0.00  0.00    +0.000 Cl
ENDBRANCH  19  21
ENDBRANCH   1  20
TORSDOF 3
ENDMDL
MODEL 5
REMARK VINA RESULT:      -7.7      1.921      3.468
REMARK  Name = 
REMARK  4 active torsions:
REMARK  status: ('A' for Active; 'I' for Inactive)
REMARK    1  A    between atoms: C_1  and  C_2
REMARK    2  A    between atoms: C_5  and  C_6
REMARK    3  A    between atoms: C_13  and  C_14
REMARK    4  A    between atoms: N_16  and  C_17
REMARK                            x       y       z     vdW  Elec       q    Type
REMARK                         _______ _______ _______ _____ _____    ______ ____
ROOT
ATOM      1  C   UNL     1       3.863   6.663  18.143  0.00  0.00    +0.000 C 
ATOM      2  O   UNL     1       4.032   7.219  17.060  0.00  0.00    +0.000 OA
ATOM      3  N   UNL     1       2.911   7.046  19.075  0.00  0.00    +0.000 N 
ATOM      4  H   UNL     1       2.952   6.673  20.018  0.00  0.00    +0.000 HD
ENDROOT
BRANCH   3   5
ATOM      5  C   UNL     1       2.016   8.156  18.931  0.00  0.00    +0.000 A 
ATOM      6  C   UNL     1       1.751   8.738  17.683  0.00  0.00    +0.000 A 
ATOM      7  C   UNL     1       0.949   9.867  17.570  0.00  0.00    +0.000 A 
ATOM      8  C   UNL     1       0.386  10.422  18.707  0.00  0.00    +0.000 A 
ATOM      9  C   UNL     1       0.608   9.833  19.963  0.00  0.00    +0.000 A 
ATOM     10  C   UNL     1       0.035  10.391  21.109  0.00  0.00    +0.000 A 
ATOM     11  C   UNL     1       0.256   9.803  22.345  0.00  0.00    +0.000 A 
ATOM     12  C   UNL     1       1.051   8.673  22.391  0.00  0.00    +0.000 A 
ATOM     13  N   UNL     1       1.635   8.106  21.306  0.00  0.00    +0.000 NA
ATOM     14  C   UNL     1       1.422   8.677  20.093  0.00  0.00    +0.000 A 
ENDBRANCH   3   5
BRANCH   1  20
ATOM     15  C   UNL     1       7.203   6.600  18.321  0.00  0.00    +0.000 C 
ATOM     16  C   UNL     1       6.141   5.617  18.606  0.00  0.00    +0.000 A 
ATOM     17  O   UNL     1       6.573   4.436  19.112  0.00  0.00    +0.000 OA
ATOM     18  N   UNL     1       5.509   3.601  19.328  0.00  0.00    +0.000 NA
ATOM     19  C   UNL     1       4.401   4.281  18.995  0.00  0.00    +0.000 A 
ATOM     20  C   UNL     1       4.763   5.596  18.522  0.00  0.00    +0.000 A 
BRANCH  19  21
ATOM     21  C   UNL     1       3.074   3.636  19.046  0.00  0.00    +0.000 A 
ATOM     22  C   UNL     1       2.664   2.836  17.957  0.00  0.00    +0.000 A 
ATOM     23  C   UNL     1       1.440   2.160  17.959  0.00  0.00    +0.000 A 
ATOM     24  C   UNL     1       0.610   2.233  19.068  0.00  0.00    +0.000 A 
ATOM     25  C   UNL     1       0.991   3.012  20.159  0.00  0.00    +0.000 A 
ATOM     26  C   UNL     1       2.202   3.724  20.148  0.00  0.00    +0.000 A 
ATOM     27 CL   UNL     1       2.499   4.721  21.534  0.00  0.00    +0.000 Cl
ENDBRANCH  19  21
ENDBRANCH   1  20
TORSDOF 3
ENDMDL
MODEL 6
REMARK VINA RESULT:      -7.6      1.408      2.659
REMARK  Name = 
REMARK  4 active torsions:
REMARK  status: ('A' for Active; 'I' for Inactive)
REMARK    1  A    between atoms: C_1  and  C_2
REMARK    2  A    between atoms: C_5  and  C_6
REMARK    3  A    between atoms: C_13  and  C_14
REMARK    4  A    between atoms: N_16  and  C_17
REMARK                            x       y       z     vdW  Elec       q    Type
REMARK                         _______ _______ _______ _____ _____    ______ ____
ROOT
ATOM      1  C   UNL     1       2.110   5.030  20.049  0.00  0.00    +0.000 C 
ATOM      2  O   UNL     1       1.331   4.987  19.100  0.00  0.00    +0.000 OA
ATOM      3  N   UNL     1       2.232   6.111  20.909  0.00  0.00    +0.000 N 
ATOM      4  H   UNL     1       3.020   6.158  21.547  0.00  0.00    +0.000 HD
ENDROOT
BRANCH   3   5
ATOM      5  C   UNL     1       1.501   7.337  20.799  0.00  0.00    +0.000 A 
ATOM      6  C   UNL     1       0.543   7.718  21.750  0.00  0.00    +0.000 A 
ATOM      7  C   UNL     1      -0.219   8.868  21.585  0.00  0.00    +0.000 A 
ATOM      8  C   UNL     1      -0.021   9.665  20.469  0.00  0.00    +0.000 A 
ATOM      9  C   UNL     1       0.958   9.322  19.522  0.00  0.00    +0.000 A 
ATOM     10  C   UNL     1       1.160  10.129  18.399  0.00  0.00    +0.000 A 
ATOM     11  C   UNL     1       2.130   9.785  17.470  0.00  0.00    +0.000 A 
ATOM     12  C   UNL     1       2.866   8.638  17.698  0.00  0.00    +0.000 A 
ATOM     13  N   UNL     1       2.695   7.821  18.767  0.00  0.00    +0.000 NA
ATOM     14  C   UNL     1       1.747   8.151  19.680  0.00  0.00    +0.000 A 
ENDBRANCH   3   5
BRANCH   1  20
ATOM     15  C   UNL     1       1.851   2.302  21.969  0.00  0.00    +0.000 C 
ATOM     16  C   UNL     1       2.872   2.803  21.030  0.00  0.00    +0.000 A 
ATOM     17  O   UNL     1       3.923   1.971  20.828  0.00  0.00    +0.000 OA
ATOM     18  N   UNL     1       4.809   2.539  19.951  0.00  0.00    +0.000 NA
ATOM     19  C   UNL     1       4.285   3.715  19.569  0.00  0.00    +0.000 A 
ATOM     20  C   UNL     1       3.027   3.927  20.243  0.00  0.00    +0.000 A 
BRANCH  19  21
ATOM     21  C   UNL     1       5.031   4.619  18.670  0.00  0.00    +0.000 A 
ATOM     22  C   UNL     1       6.123   5.347  19.191  0.00  0.00    +0.000 A 
ATOM     23  C   UNL     1       6.900   6.186  18.385  0.00  0.00    +0.000 A 
ATOM     24  C   UNL     1       6.631   6.286  17.028  0.00  0.00    +0.000 A 
ATOM     25  C   UNL     1       5.562   5.575  16.486  0.00  0.00    +0.000 A 
ATOM     26  C   UNL     1       4.754   4.761  17.297  0.00  0.00    +0.000 A 
ATOM     27 CL   UNL     1       3.409   4.011  16.503  0.00  0.00    +0.000 Cl
ENDBRANCH  19  21
ENDBRANCH   1  20
TORSDOF 3
ENDMDL
MODEL 7
REMARK VINA RESULT:      -7.3      5.622      8.983
REMARK  Name = 
REMARK  4 active torsions:
REMARK  status: ('A' for Active; 'I' for Inactive)
REMARK    1  A    between atoms: C_1  and  C_2
REMARK    2  A    between atoms: C_5  and  C_6
REMARK    3  A    between atoms: C_13  and  C_14
REMARK    4  A    between atoms: N_16  and  C_17
REMARK                            x       y       z     vdW  Elec       q    Type
REMARK                         _______ _______ _______ _____ _____    ______ ____
ROOT
ATOM      1  C   UNL     1      -0.743  10.804  19.762  0.00  0.00    +0.000 C 
ATOM      2  O   UNL     1      -0.324  11.849  19.270  0.00  0.00    +0.000 OA
ATOM      3  N   UNL     1      -1.746  10.027  19.204  0.00  0.00    +0.000 N 
ATOM      4  H   UNL     1      -2.173   9.288  19.754  0.00  0.00    +0.000 HD
ENDROOT
BRANCH   3   5
ATOM      5  C   UNL     1      -2.460  10.341  18.003  0.00  0.00    +0.000 A 
ATOM      6  C   UNL     1      -2.012   9.920  16.742  0.00  0.00    +0.000 A 
ATOM      7  C   UNL     1      -2.667  10.306  15.579  0.00  0.00    +0.000 A 
ATOM      8  C   UNL     1      -3.794  11.107  15.663  0.00  0.00    +0.000 A 
ATOM      9  C   UNL     1      -4.282  11.509  16.917  0.00  0.00    +0.000 A 
ATOM     10  C   UNL     1      -5.421  12.314  17.000  0.00  0.00    +0.000 A 
ATOM     11  C   UNL     1      -5.898  12.705  18.242  0.00  0.00    +0.000 A 
ATOM     12  C   UNL     1      -5.211  12.277  19.363  0.00  0.00    +0.000 A 
ATOM     13  N   UNL     1      -4.096  11.506  19.326  0.00  0.00    +0.000 NA
ATOM     14  C   UNL     1      -3.624  11.120  18.114  0.00  0.00    +0.000 A 
ENDBRANCH   3   5
BRANCH   1  20
ATOM     15  C   UNL     1       1.322   8.300  20.573  0.00  0.00    +0.000 C 
ATOM     16  C   UNL     1       0.645   9.361  21.341  0.00  0.00    +0.000 A 
ATOM     17  O   UNL     1       0.952   9.399  22.660  0.00  0.00    +0.000 OA
ATOM     18  N   UNL     1       0.263  10.412  23.273  0.00  0.00    +0.000 NA
ATOM     19  C   UNL     1      -0.447  11.038  22.321  0.00  0.00    +0.000 A 
ATOM     20  C   UNL     1      -0.228  10.390  21.050  0.00  0.00    +0.000 A 
BRANCH  19  21
ATOM     21  C   UNL     1      -1.362  12.144  22.664  0.00  0.00    +0.000 A 
ATOM     22  C   UNL     1      -2.630  11.836  23.202  0.00  0.00    +0.000 A 
ATOM     23  C   UNL     1      -3.529  12.835  23.591  0.00  0.00    +0.000 A 
ATOM     24  C   UNL     1      -3.165  14.170  23.491  0.00  0.00    +0.000 A 
ATOM     25  C   UNL     1      -1.918  14.503  22.967  0.00  0.00    +0.000 A 
ATOM     26  C   UNL     1      -1.026  13.506  22.539  0.00  0.00    +0.000 A 
ATOM     27 CL   UNL     1       0.448  14.073  21.826  0.00  0.00    +0.000 Cl
ENDBRANCH  19  21
ENDBRANCH   1  20
TORSDOF 3
ENDMDL
MODEL 8
REMARK VINA RESULT:      -7.3      0.927      2.221
REMARK  Name = 
REMARK  4 active torsions:
REMARK  status: ('A' for Active; 'I' for Inactive)
REMARK    1  A    between atoms: C_1  and  C_2
REMARK    2  A    between atoms: C_5  and  C_6
REMARK    3  A    between atoms: C_13  and  C_14
REMARK    4  A    between atoms: N_16  and  C_17
REMARK                            x       y       z     vdW  Elec       q    Type
REMARK                         _______ _______ _______ _____ _____    ______ ____
ROOT
ATOM      1  C   UNL     1       2.262   5.055  19.816  0.00  0.00    +0.000 C 
ATOM      2  O   UNL     1       1.510   5.064  18.844  0.00  0.00    +0.000 OA
ATOM      3  N   UNL     1       2.325   6.067  20.762  0.00  0.00    +0.000 N 
ATOM      4  H   UNL     1       3.093   6.087  21.425  0.00  0.00    +0.000 HD
ENDROOT
BRANCH   3   5
ATOM      5  C   UNL     1       1.557   7.275  20.727  0.00  0.00    +0.000 A 
ATOM      6  C   UNL     1       0.608   7.580  21.714  0.00  0.00    +0.000 A 
ATOM      7  C   UNL     1      -0.190   8.714  21.621  0.00  0.00    +0.000 A 
ATOM      8  C   UNL     1      -0.037   9.571  20.544  0.00  0.00    +0.000 A 
ATOM      9  C   UNL     1       0.934   9.305  19.563  0.00  0.00    +0.000 A 
ATOM     10  C   UNL     1       1.090  10.173  18.480  0.00  0.00    +0.000 A 
ATOM     11  C   UNL     1       2.052   9.906  17.517  0.00  0.00    +0.000 A 
ATOM     12  C   UNL     1       2.825   8.770  17.673  0.00  0.00    +0.000 A 
ATOM     13  N   UNL     1       2.698   7.896  18.702  0.00  0.00    +0.000 NA
ATOM     14  C   UNL     1       1.758   8.152  19.647  0.00  0.00    +0.000 A 
ENDBRANCH   3   5
BRANCH   1  20
ATOM     15  C   UNL     1       2.269   2.422  21.879  0.00  0.00    +0.000 C 
ATOM     16  C   UNL     1       3.163   2.883  20.801  0.00  0.00    +0.000 A 
ATOM     17  O   UNL     1       4.192   2.049  20.513  0.00  0.00    +0.000 OA
ATOM     18  N   UNL     1       4.958   2.579  19.509  0.00  0.00    +0.000 NA
ATOM     19  C   UNL     1       4.378   3.732  19.138  0.00  0.00    +0.000 A 
ATOM     20  C   UNL     1       3.208   3.969  19.950  0.00  0.00    +0.000 A 
BRANCH  19  21
ATOM     21  C   UNL     1       4.999   4.596  18.114  0.00  0.00    +0.000 A 
ATOM     22  C   UNL     1       4.430   4.636  16.822  0.00  0.00    +0.000 A 
ATOM     23  C   UNL     1       4.940   5.466  15.819  0.00  0.00    +0.000 A 
ATOM     24  C   UNL     1       6.007   6.309  16.092  0.00  0.00    +0.000 A 
ATOM     25  C   UNL     1       6.586   6.293  17.360  0.00  0.00    +0.000 A 
ATOM     26  C   UNL     1       6.103   5.434  18.361  0.00  0.00    +0.000 A 
ATOM     27 CL   UNL     1       6.978   5.458  19.856  0.00  0.00    +0.000 Cl
ENDBRANCH  19  21
ENDBRANCH   1  20
TORSDOF 3
ENDMDL
MODEL 9
REMARK VINA RESULT:      -7.3      7.122     10.051
REMARK  Name = 
REMARK  4 active torsions:
REMARK  status: ('A' for Active; 'I' for Inactive)
REMARK    1  A    between atoms: C_1  and  C_2
REMARK    2  A    between atoms: C_5  and  C_6
REMARK    3  A    between atoms: C_13  and  C_14
REMARK    4  A    between atoms: N_16  and  C_17
REMARK                            x       y       z     vdW  Elec       q    Type
REMARK                         _______ _______ _______ _____ _____    ______ ____
ROOT
ATOM      1  C   UNL     1      -2.969  12.800  22.909  0.00  0.00    +0.000 C 
ATOM      2  O   UNL     1      -3.062  11.776  23.581  0.00  0.00    +0.000 OA
ATOM      3  N   UNL     1      -4.028  13.389  22.235  0.00  0.00    +0.000 N 
ATOM      4  H   UNL     1      -3.845  14.116  21.550  0.00  0.00    +0.000 HD
ENDROOT
BRANCH   3   5
ATOM      5  C   UNL     1      -5.365  12.877  22.194  0.00  0.00    +0.000 A 
ATOM      6  C   UNL     1      -6.211  12.923  23.311  0.00  0.00    +0.000 A 
ATOM      7  C   UNL     1      -7.475  12.344  23.282  0.00  0.00    +0.000 A 
ATOM      8  C   UNL     1      -7.916  11.726  22.124  0.00  0.00    +0.000 A 
ATOM      9  C   UNL     1      -7.099  11.701  20.981  0.00  0.00    +0.000 A 
ATOM     10  C   UNL     1      -7.548  11.080  19.813  0.00  0.00    +0.000 A 
ATOM     11  C   UNL     1      -6.738  11.062  18.688  0.00  0.00    +0.000 A 
ATOM     12  C   UNL     1      -5.497  11.667  18.775  0.00  0.00    +0.000 A 
ATOM     13  N   UNL     1      -5.019  12.270  19.892  0.00  0.00    +0.000 NA
ATOM     14  C   UNL     1      -5.807  12.291  20.996  0.00  0.00    +0.000 A 
ENDBRANCH   3   5
BRANCH   1  20
ATOM     15  C   UNL     1      -1.411  15.196  24.648  0.00  0.00    +0.000 C 
ATOM     16  C   UNL     1      -1.043  14.368  23.485  0.00  0.00    +0.000 A 
ATOM     17  O   UNL     1       0.223  14.545  23.033  0.00  0.00    +0.000 OA
ATOM     18  N   UNL     1       0.451  13.737  21.951  0.00  0.00    +0.000 NA
ATOM     19  C   UNL     1      -0.665  13.017  21.753  0.00  0.00    +0.000 A 
ATOM     20  C   UNL     1      -1.661  13.393  22.728  0.00  0.00    +0.000 A 
BRANCH  19  21
ATOM     21  C   UNL     1      -0.775  12.089  20.610  0.00  0.00    +0.000 A 
ATOM     22  C   UNL     1      -1.411  12.535  19.431  0.00  0.00    +0.000 A 
ATOM     23  C   UNL     1      -1.510  11.724  18.296  0.00  0.00    +0.000 A 
ATOM     24  C   UNL     1      -0.938  10.460  18.296  0.00  0.00    +0.000 A 
ATOM     25  C   UNL     1      -0.300   9.996  19.445  0.00  0.00    +0.000 A 
ATOM     26  C   UNL     1      -0.231  10.791  20.602  0.00  0.00    +0.000 A 
ATOM     27 CL   UNL     1       0.511  10.048  21.980  0.00  0.00    +0.000 Cl
ENDBRANCH  19  21
ENDBRANCH   1  20
TORSDOF 3
ENDMDL
