MODEL 1
REMARK VINA RESULT:      -8.8      0.000      0.000
REMARK  Name = 
REMARK  5 active torsions:
REMARK  status: ('A' for Active; 'I' for Inactive)
REMARK    1  A    between atoms: C_1  and  C_2
REMARK    2  A    between atoms: C_11  and  C_12
REMARK    3  A    between atoms: N_14  and  C_15
REMARK    4  A    between atoms: C_15  and  C_16
REMARK    5  A    between atoms: C_20  and  N_21
REMARK                            x       y       z     vdW  Elec       q    Type
REMARK                         _______ _______ _______ _____ _____    ______ ____
ROOT
ATOM      1  C   UNL     1       3.966   6.504  17.652  0.00  0.00    +0.000 C 
ATOM      2  O   UNL     1       4.643   6.948  16.729  0.00  0.00    +0.000 OA
ATOM      3  N   UNL     1       2.920   7.209  18.190  0.00  0.00    +0.000 N 
ATOM      4  H   UNL     1       2.398   6.835  18.980  0.00  0.00    +0.000 HD
ENDROOT
BRANCH   1  15
ATOM      5  C   UNL     1       6.658   5.614  19.188  0.00  0.00    +0.000 C 
ATOM      6  C   UNL     1       5.422   4.857  18.879  0.00  0.00    +0.000 A 
ATOM      7  O   UNL     1       5.412   3.562  19.295  0.00  0.00    +0.000 OA
ATOM      8  C   UNL     1       4.217   3.026  18.937  0.00  0.00    +0.000 A 
ATOM      9  N   UNL     1       3.875   1.739  19.189  0.00  0.00    +0.000 NA
ATOM     10  C   UNL     1       2.691   1.431  18.766  0.00  0.00    +0.000 A 
ATOM     11  N   UNL     1       1.828   2.295  18.136  0.00  0.00    +0.000 N 
ATOM     12  C   UNL     1       2.138   3.615  17.880  0.00  0.00    +0.000 A 
ATOM     13  O   UNL     1       1.342   4.386  17.357  0.00  0.00    +0.000 OA
ATOM     14  C   UNL     1       3.459   3.992  18.308  0.00  0.00    +0.000 A 
ATOM     15  C   UNL     1       4.234   5.189  18.231  0.00  0.00    +0.000 A 
ATOM     16  H   UNL     1       0.911   1.988  17.847  0.00  0.00    +0.000 HD
ENDBRANCH   1  15
BRANCH   3  17
ATOM     17  C   UNL     1       2.602   8.554  17.780  0.00  0.00    +0.000 C 
BRANCH  17  18
ATOM     18  C   UNL     1       1.386   9.092  18.492  0.00  0.00    +0.000 A 
ATOM     19  C   UNL     1       1.340   9.124  19.891  0.00  0.00    +0.000 A 
ATOM     20  C   UNL     1       0.243   9.679  20.541  0.00  0.00    +0.000 A 
ATOM     21  C   UNL     1      -0.837  10.167  19.802  0.00  0.00    +0.000 A 
ATOM     22  C   UNL     1      -0.852  10.094  18.405  0.00  0.00    +0.000 A 
ATOM     23  C   UNL     1       0.281   9.570  17.760  0.00  0.00    +0.000 A 
BRANCH  22  24
ATOM     24  N   UNL     1      -1.981  10.539  17.667  0.00  0.00    +0.000 N 
ATOM     25  C   UNL     1      -2.406   9.927  16.431  0.00  0.00    +0.000 C 
ATOM     26  C   UNL     1      -3.405  10.915  15.861  0.00  0.00    +0.000 C 
ATOM     27  C   UNL     1      -4.037  11.529  17.094  0.00  0.00    +0.000 C 
ATOM     28  C   UNL     1      -2.922  11.481  18.111  0.00  0.00    +0.000 C 
ATOM     29  O   UNL     1      -2.948  12.119  19.153  0.00  0.00    +0.000 OA
ENDBRANCH  22  24
ENDBRANCH  17  18
ENDBRANCH   3  17
TORSDOF 4
ENDMDL
MODEL 2
REMARK VINA RESULT:      -8.6      1.502      1.655
REMARK  Name = 
REMARK  5 active torsions:
REMARK  status: ('A' for Active; 'I' for Inactive)
REMARK    1  A    between atoms: C_1  and  C_2
REMARK    2  A    between atoms: C_11  and  C_12
REMARK    3  A    between atoms: N_14  and  C_15
REMARK    4  A    between atoms: C_15  and  C_16
REMARK    5  A    between atoms: C_20  and  N_21
REMARK                            x       y       z     vdW  Elec       q    Type
REMARK                         _______ _______ _______ _____ _____    ______ ____
ROOT
ATOM      1  C   UNL     1       3.460   6.687  17.867  0.00  0.00    +0.000 C 
ATOM      2  O   UNL     1       4.511   7.185  17.476  0.00  0.00    +0.000 OA
ATOM      3  N   UNL     1       2.330   7.438  18.068  0.00  0.00    +0.000 N 
ATOM      4  H   UNL     1       1.482   7.007  18.430  0.00  0.00    +0.000 HD
ENDROOT
BRANCH   1  15
ATOM      5  C   UNL     1       4.828   4.317  16.163  0.00  0.00    +0.000 C 
ATOM      6  C   UNL     1       3.959   4.272  17.362  0.00  0.00    +0.000 A 
ATOM      7  O   UNL     1       3.667   3.026  17.825  0.00  0.00    +0.000 OA
ATOM      8  C   UNL     1       2.873   3.171  18.917  0.00  0.00    +0.000 A 
ATOM      9  N   UNL     1       2.384   2.122  19.624  0.00  0.00    +0.000 NA
ATOM     10  C   UNL     1       1.650   2.479  20.628  0.00  0.00    +0.000 A 
ATOM     11  N   UNL     1       1.381   3.778  20.988  0.00  0.00    +0.000 N 
ATOM     12  C   UNL     1       1.877   4.867  20.301  0.00  0.00    +0.000 A 
ATOM     13  O   UNL     1       1.666   6.020  20.659  0.00  0.00    +0.000 OA
ATOM     14  C   UNL     1       2.676   4.515  19.157  0.00  0.00    +0.000 A 
ATOM     15  C   UNL     1       3.349   5.255  18.139  0.00  0.00    +0.000 A 
ATOM     16  H   UNL     1       0.811   3.981  21.795  0.00  0.00    +0.000 HD
ENDBRANCH   1  15
BRANCH   3  17
ATOM     17  C   UNL     1       2.322   8.873  17.929  0.00  0.00    +0.000 C 
BRANCH  17  18
ATOM     18  C   UNL     1       1.091   9.495  18.540  0.00  0.00    +0.000 A 
ATOM     19  C   UNL     1       1.047   9.779  19.910  0.00  0.00    +0.000 A 
ATOM     20  C   UNL     1      -0.066  10.410  20.457  0.00  0.00    +0.000 A 
ATOM     21  C   UNL     1      -1.161  10.724  19.650  0.00  0.00    +0.000 A 
ATOM     22  C   UNL     1      -1.177  10.398  18.289  0.00  0.00    +0.000 A 
ATOM     23  C   UNL     1      -0.029   9.799  17.741  0.00  0.00    +0.000 A 
BRANCH  22  24
ATOM     24  N   UNL     1      -2.320  10.667  17.491  0.00  0.00    +0.000 N 
ATOM     25  C   UNL     1      -2.562  10.030  16.219  0.00  0.00    +0.000 C 
ATOM     26  C   UNL     1      -3.680  10.851  15.607  0.00  0.00    +0.000 C 
ATOM     27  C   UNL     1      -4.479  11.311  16.811  0.00  0.00    +0.000 C 
ATOM     28  C   UNL     1      -3.433  11.422  17.894  0.00  0.00    +0.000 C 
ATOM     29  O   UNL     1      -3.629  12.013  18.945  0.00  0.00    +0.000 OA
ENDBRANCH  22  24
ENDBRANCH  17  18
ENDBRANCH   3  17
TORSDOF 4
ENDMDL
MODEL 3
REMARK VINA RESULT:      -8.6      3.178      8.482
REMARK  Name = 
REMARK  5 active torsions:
REMARK  status: ('A' for Active; 'I' for Inactive)
REMARK    1  A    between atoms: C_1  and  C_2
REMARK    2  A    between atoms: C_11  and  C_12
REMARK    3  A    between atoms: N_14  and  C_15
REMARK    4  A    between atoms: C_15  and  C_16
REMARK    5  A    between atoms: C_20  and  N_21
REMARK                            x       y       z     vdW  Elec       q    Type
REMARK                         _______ _______ _______ _____ _____    ______ ____
ROOT
ATOM      1  C   UNL     1       0.259   8.389  21.117  0.00  0.00    +0.000 C 
ATOM      2  O   UNL     1      -0.787   7.842  21.452  0.00  0.00    +0.000 OA
ATOM      3  N   UNL     1       1.401   7.676  20.856  0.00  0.00    +0.000 N 
ATOM      4  H   UNL     1       2.266   8.156  20.616  0.00  0.00    +0.000 HD
ENDROOT
BRANCH   1  15
ATOM      5  C   UNL     1      -0.817  10.585  23.217  0.00  0.00    +0.000 C 
ATOM      6  C   UNL     1      -0.143  10.745  21.908  0.00  0.00    +0.000 A 
ATOM      7  O   UNL     1       0.048  12.029  21.503  0.00  0.00    +0.000 OA
ATOM      8  C   UNL     1       0.675  11.990  20.299  0.00  0.00    +0.000 A 
ATOM      9  N   UNL     1       1.010  13.102  19.599  0.00  0.00    +0.000 NA
ATOM     10  C   UNL     1       1.601  12.843  18.477  0.00  0.00    +0.000 A 
ATOM     11  N   UNL     1       1.895  11.584  18.012  0.00  0.00    +0.000 N 
ATOM     12  C   UNL     1       1.585  10.433  18.707  0.00  0.00    +0.000 A 
ATOM     13  O   UNL     1       1.892   9.318  18.301  0.00  0.00    +0.000 OA
ATOM     14  C   UNL     1       0.899  10.675  19.949  0.00  0.00    +0.000 A 
ATOM     15  C   UNL     1       0.347   9.841  20.968  0.00  0.00    +0.000 A 
ATOM     16  H   UNL     1       2.373  11.459  17.133  0.00  0.00    +0.000 HD
ENDBRANCH   1  15
BRANCH   3  17
ATOM     17  C   UNL     1       1.483   6.250  21.052  0.00  0.00    +0.000 C 
BRANCH  17  18
ATOM     18  C   UNL     1       2.197   5.561  19.917  0.00  0.00    +0.000 A 
ATOM     19  C   UNL     1       1.597   4.486  19.251  0.00  0.00    +0.000 A 
ATOM     20  C   UNL     1       2.233   3.894  18.164  0.00  0.00    +0.000 A 
ATOM     21  C   UNL     1       3.492   4.342  17.760  0.00  0.00    +0.000 A 
ATOM     22  C   UNL     1       4.149   5.373  18.440  0.00  0.00    +0.000 A 
ATOM     23  C   UNL     1       3.476   5.990  19.510  0.00  0.00    +0.000 A 
BRANCH  22  24
ATOM     24  N   UNL     1       5.454   5.780  18.058  0.00  0.00    +0.000 N 
ATOM     25  C   UNL     1       5.718   6.587  16.891  0.00  0.00    +0.000 C 
ATOM     26  C   UNL     1       7.220   6.484  16.710  0.00  0.00    +0.000 C 
ATOM     27  C   UNL     1       7.738   6.343  18.127  0.00  0.00    +0.000 C 
ATOM     28  C   UNL     1       6.614   5.623  18.833  0.00  0.00    +0.000 C 
ATOM     29  O   UNL     1       6.750   5.092  19.925  0.00  0.00    +0.000 OA
ENDBRANCH  22  24
ENDBRANCH  17  18
ENDBRANCH   3  17
TORSDOF 4
ENDMDL
MODEL 4
REMARK VINA RESULT:      -8.5      2.822      7.955
REMARK  Name = 
REMARK  5 active torsions:
REMARK  status: ('A' for Active; 'I' for Inactive)
REMARK    1  A    between atoms: C_1  and  C_2
REMARK    2  A    between atoms: C_11  and  C_12
REMARK    3  A    between atoms: N_14  and  C_15
REMARK    4  A    between atoms: C_15  and  C_16
REMARK    5  A    between atoms: C_20  and  N_21
REMARK                            x       y       z     vdW  Elec       q    Type
REMARK                         _______ _______ _______ _____ _____    ______ ____
ROOT
ATOM      1  C   UNL     1       1.582  10.642  18.623  0.00  0.00    +0.000 C 
ATOM      2  O   UNL     1       2.324  11.457  18.083  0.00  0.00    +0.000 OA
ATOM      3  N   UNL     1       1.645   9.302  18.337  0.00  0.00    +0.000 N 
ATOM      4  H   UNL     1       0.993   8.651  18.770  0.00  0.00    +0.000 HD
ENDROOT
BRANCH   1  15
ATOM      5  C   UNL     1      -0.501  13.083  18.323  0.00  0.00    +0.000 C 
ATOM      6  C   UNL     1      -0.285  12.124  19.431  0.00  0.00    +0.000 A 
ATOM      7  O   UNL     1      -1.083  12.299  20.518  0.00  0.00    +0.000 OA
ATOM      8  C   UNL     1      -0.757  11.342  21.424  0.00  0.00    +0.000 A 
ATOM      9  N   UNL     1      -1.354  11.231  22.637  0.00  0.00    +0.000 NA
ATOM     10  C   UNL     1      -0.895  10.250  23.346  0.00  0.00    +0.000 A 
ATOM     11  N   UNL     1       0.085   9.375  22.945  0.00  0.00    +0.000 N 
ATOM     12  C   UNL     1       0.701   9.449  21.712  0.00  0.00    +0.000 A 
ATOM     13  O   UNL     1       1.542   8.635  21.349  0.00  0.00    +0.000 OA
ATOM     14  C   UNL     1       0.241  10.545  20.900  0.00  0.00    +0.000 A 
ATOM     15  C   UNL     1       0.588  11.053  19.612  0.00  0.00    +0.000 A 
ATOM     16  H   UNL     1       0.382   8.623  23.547  0.00  0.00    +0.000 HD
ENDBRANCH   1  15
BRANCH   3  17
ATOM     17  C   UNL     1       2.512   8.769  17.316  0.00  0.00    +0.000 C 
BRANCH  17  18
ATOM     18  C   UNL     1       3.165   7.478  17.742  0.00  0.00    +0.000 A 
ATOM     19  C   UNL     1       4.481   7.190  17.363  0.00  0.00    +0.000 A 
ATOM     20  C   UNL     1       5.099   6.027  17.810  0.00  0.00    +0.000 A 
ATOM     21  C   UNL     1       4.394   5.120  18.605  0.00  0.00    +0.000 A 
ATOM     22  C   UNL     1       3.057   5.345  18.952  0.00  0.00    +0.000 A 
ATOM     23  C   UNL     1       2.459   6.544  18.528  0.00  0.00    +0.000 A 
BRANCH  22  24
ATOM     24  N   UNL     1       2.332   4.388  19.711  0.00  0.00    +0.000 N 
ATOM     25  C   UNL     1       2.276   4.403  21.152  0.00  0.00    +0.000 C 
ATOM     26  C   UNL     1       1.692   3.049  21.508  0.00  0.00    +0.000 C 
ATOM     27  C   UNL     1       0.770   2.747  20.343  0.00  0.00    +0.000 C 
ATOM     28  C   UNL     1       1.444   3.437  19.183  0.00  0.00    +0.000 C 
ATOM     29  O   UNL     1       1.152   3.212  18.018  0.00  0.00    +0.000 OA
ENDBRANCH  22  24
ENDBRANCH  17  18
ENDBRANCH   3  17
TORSDOF 4
ENDMDL
MODEL 5
REMARK VINA RESULT:      -8.5      3.199      8.417
REMARK  Name = 
REMARK  5 active torsions:
REMARK  status: ('A' for Active; 'I' for Inactive)
REMARK    1  A    between atoms: C_1  and  C_2
REMARK    2  A    between atoms: C_11  and  C_12
REMARK    3  A    between atoms: N_14  and  C_15
REMARK    4  A    between atoms: C_15  and  C_16
REMARK    5  A    between atoms: C_20  and  N_21
REMARK                            x       y       z     vdW  Elec       q    Type
REMARK                         _______ _______ _______ _____ _____    ______ ____
ROOT
ATOM      1  C   UNL     1       0.239   8.273  21.100  0.00  0.00    +0.000 C 
ATOM      2  O   UNL     1      -0.793   7.756  21.517  0.00  0.00    +0.000 OA
ATOM      3  N   UNL     1       1.317   7.525  20.701  0.00  0.00    +0.000 N 
ATOM      4  H   UNL     1       2.176   7.979  20.395  0.00  0.00    +0.000 HD
ENDROOT
BRANCH   1  15
ATOM      5  C   UNL     1      -0.681  10.431  23.312  0.00  0.00    +0.000 C 
ATOM      6  C   UNL     1      -0.045  10.612  21.987  0.00  0.00    +0.000 A 
ATOM      7  O   UNL     1       0.182  11.902  21.620  0.00  0.00    +0.000 OA
ATOM      8  C   UNL     1       0.767  11.884  20.395  0.00  0.00    +0.000 A 
ATOM      9  N   UNL     1       1.121  13.007  19.723  0.00  0.00    +0.000 NA
ATOM     10  C   UNL     1       1.664  12.766  18.573  0.00  0.00    +0.000 A 
ATOM     11  N   UNL     1       1.894  11.515  18.054  0.00  0.00    +0.000 N 
ATOM     12  C   UNL     1       1.563  10.352  18.719  0.00  0.00    +0.000 A 
ATOM     13  O   UNL     1       1.814   9.242  18.264  0.00  0.00    +0.000 OA
ATOM     14  C   UNL     1       0.928  10.574  19.992  0.00  0.00    +0.000 A 
ATOM     15  C   UNL     1       0.378   9.725  20.999  0.00  0.00    +0.000 A 
ATOM     16  H   UNL     1       2.338  11.404  17.155  0.00  0.00    +0.000 HD
ENDBRANCH   1  15
BRANCH   3  17
ATOM     17  C   UNL     1       1.353   6.090  20.833  0.00  0.00    +0.000 C 
BRANCH  17  18
ATOM     18  C   UNL     1       2.182   5.441  19.753  0.00  0.00    +0.000 A 
ATOM     19  C   UNL     1       1.682   4.346  19.038  0.00  0.00    +0.000 A 
ATOM     20  C   UNL     1       2.425   3.791  18.001  0.00  0.00    +0.000 A 
ATOM     21  C   UNL     1       3.691   4.296  17.697  0.00  0.00    +0.000 A 
ATOM     22  C   UNL     1       4.248   5.348  18.431  0.00  0.00    +0.000 A 
ATOM     23  C   UNL     1       3.469   5.927  19.448  0.00  0.00    +0.000 A 
BRANCH  22  24
ATOM     24  N   UNL     1       5.560   5.814  18.153  0.00  0.00    +0.000 N 
ATOM     25  C   UNL     1       6.700   5.507  18.983  0.00  0.00    +0.000 C 
ATOM     26  C   UNL     1       7.772   6.462  18.497  0.00  0.00    +0.000 C 
ATOM     27  C   UNL     1       7.459   6.625  17.023  0.00  0.00    +0.000 C 
ATOM     28  C   UNL     1       5.959   6.460  16.971  0.00  0.00    +0.000 C 
ATOM     29  O   UNL     1       5.291   6.781  16.000  0.00  0.00    +0.000 OA
ENDBRANCH  22  24
ENDBRANCH  17  18
ENDBRANCH   3  17
TORSDOF 4
ENDMDL
MODEL 6
REMARK VINA RESULT:      -8.5      2.766      8.384
REMARK  Name = 
REMARK  5 active torsions:
REMARK  status: ('A' for Active; 'I' for Inactive)
REMARK    1  A    between atoms: C_1  and  C_2
REMARK    2  A    between atoms: C_11  and  C_12
REMARK    3  A    between atoms: N_14  and  C_15
REMARK    4  A    between atoms: C_15  and  C_16
REMARK    5  A    between atoms: C_20  and  N_21
REMARK                            x       y       z     vdW  Elec       q    Type
REMARK                         _______ _______ _______ _____ _____    ______ ____
ROOT
ATOM      1  C   UNL     1       0.355  10.139  19.175  0.00  0.00    +0.000 C 
ATOM      2  O   UNL     1      -0.523  10.063  18.321  0.00  0.00    +0.000 OA
ATOM      3  N   UNL     1       1.654   9.784  18.916  0.00  0.00    +0.000 N 
ATOM      4  H   UNL     1       2.356   9.820  19.652  0.00  0.00    +0.000 HD
ENDROOT
BRANCH   1  15
ATOM      5  C   UNL     1       1.193   8.689  21.930  0.00  0.00    +0.000 C 
ATOM      6  C   UNL     1       0.448   9.946  21.684  0.00  0.00    +0.000 A 
ATOM      7  O   UNL     1       0.028  10.604  22.798  0.00  0.00    +0.000 OA
ATOM      8  C   UNL     1      -0.625  11.722  22.391  0.00  0.00    +0.000 A 
ATOM      9  N   UNL     1      -1.188  12.608  23.250  0.00  0.00    +0.000 NA
ATOM     10  C   UNL     1      -1.760  13.605  22.656  0.00  0.00    +0.000 A 
ATOM     11  N   UNL     1      -1.803  13.796  21.296  0.00  0.00    +0.000 N 
ATOM     12  C   UNL     1      -1.226  12.924  20.396  0.00  0.00    +0.000 A 
ATOM     13  O   UNL     1      -1.233  13.129  19.187  0.00  0.00    +0.000 OA
ATOM     14  C   UNL     1      -0.602  11.783  21.013  0.00  0.00    +0.000 A 
ATOM     15  C   UNL     1       0.066  10.620  20.525  0.00  0.00    +0.000 A 
ATOM     16  H   UNL     1      -2.255  14.608  20.904  0.00  0.00    +0.000 HD
ENDBRANCH   1  15
BRANCH   3  17
ATOM     17  C   UNL     1       2.060   9.208  17.659  0.00  0.00    +0.000 C 
BRANCH  17  18
ATOM     18  C   UNL     1       2.765   7.887  17.841  0.00  0.00    +0.000 A 
ATOM     19  C   UNL     1       3.996   7.648  17.218  0.00  0.00    +0.000 A 
ATOM     20  C   UNL     1       4.671   6.452  17.440  0.00  0.00    +0.000 A 
ATOM     21  C   UNL     1       4.104   5.467  18.252  0.00  0.00    +0.000 A 
ATOM     22  C   UNL     1       2.847   5.646  18.840  0.00  0.00    +0.000 A 
ATOM     23  C   UNL     1       2.195   6.876  18.641  0.00  0.00    +0.000 A 
BRANCH  22  24
ATOM     24  N   UNL     1       2.253   4.614  19.614  0.00  0.00    +0.000 N 
ATOM     25  C   UNL     1       2.269   4.602  21.057  0.00  0.00    +0.000 C 
ATOM     26  C   UNL     1       1.832   3.194  21.414  0.00  0.00    +0.000 C 
ATOM     27  C   UNL     1       0.884   2.825  20.290  0.00  0.00    +0.000 C 
ATOM     28  C   UNL     1       1.431   3.593  19.112  0.00  0.00    +0.000 C 
ATOM     29  O   UNL     1       1.102   3.359  17.959  0.00  0.00    +0.000 OA
ENDBRANCH  22  24
ENDBRANCH  17  18
ENDBRANCH   3  17
TORSDOF 4
ENDMDL
MODEL 7
REMARK VINA RESULT:      -8.4      2.844      4.264
REMARK  Name = 
REMARK  5 active torsions:
REMARK  status: ('A' for Active; 'I' for Inactive)
REMARK    1  A    between atoms: C_1  and  C_2
REMARK    2  A    between atoms: C_11  and  C_12
REMARK    3  A    between atoms: N_14  and  C_15
REMARK    4  A    between atoms: C_15  and  C_16
REMARK    5  A    between atoms: C_20  and  N_21
REMARK                            x       y       z     vdW  Elec       q    Type
REMARK                         _______ _______ _______ _____ _____    ______ ____
ROOT
ATOM      1  C   UNL     1       3.998   5.437  18.872  0.00  0.00    +0.000 C 
ATOM      2  O   UNL     1       4.683   5.448  19.890  0.00  0.00    +0.000 OA
ATOM      3  N   UNL     1       2.791   6.084  18.801  0.00  0.00    +0.000 N 
ATOM      4  H   UNL     1       2.224   6.028  17.957  0.00  0.00    +0.000 HD
ENDROOT
BRANCH   1  15
ATOM      5  C   UNL     1       2.697   2.745  17.666  0.00  0.00    +0.000 C 
ATOM      6  C   UNL     1       3.837   3.566  17.195  0.00  0.00    +0.000 A 
ATOM      7  O   UNL     1       4.459   3.113  16.074  0.00  0.00    +0.000 OA
ATOM      8  C   UNL     1       5.465   3.977  15.785  0.00  0.00    +0.000 A 
ATOM      9  N   UNL     1       6.301   3.819  14.729  0.00  0.00    +0.000 NA
ATOM     10  C   UNL     1       7.189   4.756  14.634  0.00  0.00    +0.000 A 
ATOM     11  N   UNL     1       7.299   5.830  15.485  0.00  0.00    +0.000 N 
ATOM     12  C   UNL     1       6.454   6.030  16.557  0.00  0.00    +0.000 A 
ATOM     13  O   UNL     1       6.536   7.015  17.282  0.00  0.00    +0.000 OA
ATOM     14  C   UNL     1       5.468   4.994  16.718  0.00  0.00    +0.000 A 
ATOM     15  C   UNL     1       4.434   4.733  17.667  0.00  0.00    +0.000 A 
ATOM     16  H   UNL     1       8.009   6.532  15.339  0.00  0.00    +0.000 HD
ENDBRANCH   1  15
BRANCH   3  17
ATOM     17  C   UNL     1       2.197   6.738  19.939  0.00  0.00    +0.000 C 
BRANCH  17  18
ATOM     18  C   UNL     1       1.733   8.136  19.613  0.00  0.00    +0.000 A 
ATOM     19  C   UNL     1       2.112   8.746  18.412  0.00  0.00    +0.000 A 
ATOM     20  C   UNL     1       1.631  10.011  18.088  0.00  0.00    +0.000 A 
ATOM     21  C   UNL     1       0.801  10.694  18.980  0.00  0.00    +0.000 A 
ATOM     22  C   UNL     1       0.451  10.140  20.216  0.00  0.00    +0.000 A 
ATOM     23  C   UNL     1       0.911   8.845  20.512  0.00  0.00    +0.000 A 
BRANCH  22  24
ATOM     24  N   UNL     1      -0.344  10.868  21.140  0.00  0.00    +0.000 N 
ATOM     25  C   UNL     1      -1.410  11.754  20.737  0.00  0.00    +0.000 C 
ATOM     26  C   UNL     1      -1.732  12.533  21.997  0.00  0.00    +0.000 C 
ATOM     27  C   UNL     1      -1.446  11.541  23.107  0.00  0.00    +0.000 C 
ATOM     28  C   UNL     1      -0.336  10.695  22.533  0.00  0.00    +0.000 C 
ATOM     29  O   UNL     1       0.352   9.951  23.217  0.00  0.00    +0.000 OA
ENDBRANCH  22  24
ENDBRANCH  17  18
ENDBRANCH   3  17
TORSDOF 4
ENDMDL
MODEL 8
REMARK VINA RESULT:      -8.3      2.227      2.634
REMARK  Name = 
REMARK  5 active torsions:
REMARK  status: ('A' for Active; 'I' for Inactive)
REMARK    1  A    between atoms: C_1  and  C_2
REMARK    2  A    between atoms: C_11  and  C_12
REMARK    3  A    between atoms: N_14  and  C_15
REMARK    4  A    between atoms: C_15  and  C_16
REMARK    5  A    between atoms: C_20  and  N_21
REMARK                            x       y       z     vdW  Elec       q    Type
REMARK                         _______ _______ _______ _____ _____    ______ ____
ROOT
ATOM      1  C   UNL     1       3.782   6.522  17.690  0.00  0.00    +0.000 C 
ATOM      2  O   UNL     1       4.499   7.080  16.865  0.00  0.00    +0.000 OA
ATOM      3  N   UNL     1       2.621   7.092  18.147  0.00  0.00    +0.000 N 
ATOM      4  H   UNL     1       2.063   6.627  18.860  0.00  0.00    +0.000 HD
ENDROOT
BRANCH   1  15
ATOM      5  C   UNL     1       6.550   5.717  19.133  0.00  0.00    +0.000 C 
ATOM      6  C   UNL     1       5.340   4.914  18.840  0.00  0.00    +0.000 A 
ATOM      7  O   UNL     1       5.396   3.611  19.227  0.00  0.00    +0.000 OA
ATOM      8  C   UNL     1       4.216   3.032  18.889  0.00  0.00    +0.000 A 
ATOM      9  N   UNL     1       3.936   1.726  19.121  0.00  0.00    +0.000 NA
ATOM     10  C   UNL     1       2.754   1.376  18.723  0.00  0.00    +0.000 A 
ATOM     11  N   UNL     1       1.839   2.215  18.135  0.00  0.00    +0.000 N 
ATOM     12  C   UNL     1       2.085   3.553  17.901  0.00  0.00    +0.000 A 
ATOM     13  O   UNL     1       1.243   4.300  17.417  0.00  0.00    +0.000 OA
ATOM     14  C   UNL     1       3.400   3.978  18.302  0.00  0.00    +0.000 A 
ATOM     15  C   UNL     1       4.121   5.208  18.231  0.00  0.00    +0.000 A 
ATOM     16  H   UNL     1       0.928   1.876  17.864  0.00  0.00    +0.000 HD
ENDBRANCH   1  15
BRANCH   3  17
ATOM     17  C   UNL     1       2.213   8.422  17.770  0.00  0.00    +0.000 C 
BRANCH  17  18
ATOM     18  C   UNL     1       1.602   9.178  18.923  0.00  0.00    +0.000 A 
ATOM     19  C   UNL     1       1.260   8.511  20.106  0.00  0.00    +0.000 A 
ATOM     20  C   UNL     1       0.755   9.223  21.189  0.00  0.00    +0.000 A 
ATOM     21  C   UNL     1       0.546  10.600  21.086  0.00  0.00    +0.000 A 
ATOM     22  C   UNL     1       0.818  11.289  19.899  0.00  0.00    +0.000 A 
ATOM     23  C   UNL     1       1.368  10.564  18.828  0.00  0.00    +0.000 A 
BRANCH  22  24
ATOM     24  N   UNL     1       0.546  12.678  19.787  0.00  0.00    +0.000 N 
ATOM     25  C   UNL     1      -0.560  13.207  19.026  0.00  0.00    +0.000 C 
ATOM     26  C   UNL     1      -0.256  14.689  18.924  0.00  0.00    +0.000 C 
ATOM     27  C   UNL     1       0.470  14.990  20.219  0.00  0.00    +0.000 C 
ATOM     28  C   UNL     1       1.177  13.692  20.526  0.00  0.00    +0.000 C 
ATOM     29  O   UNL     1       2.076  13.606  21.349  0.00  0.00    +0.000 OA
ENDBRANCH  22  24
ENDBRANCH  17  18
ENDBRANCH   3  17
TORSDOF 4
ENDMDL
MODEL 9
REMARK VINA RESULT:      -8.3      2.011      2.470
REMARK  Name = 
REMARK  5 active torsions:
REMARK  status: ('A' for Active; 'I' for Inactive)
REMARK    1  A    between atoms: C_1  and  C_2
REMARK    2  A    between atoms: C_11  and  C_12
REMARK    3  A    between atoms: N_14  and  C_15
REMARK    4  A    between atoms: C_15  and  C_16
REMARK    5  A    between atoms: C_20  and  N_21
REMARK                            x       y       z     vdW  Elec       q    Type
REMARK                         _______ _______ _______ _____ _____    ______ ____
ROOT
ATOM      1  C   UNL     1       3.802   6.495  17.712  0.00  0.00    +0.000 C 
ATOM      2  O   UNL     1       4.561   7.054  16.926  0.00  0.00    +0.000 OA
ATOM      3  N   UNL     1       2.618   7.063  18.107  0.00  0.00    +0.000 N 
ATOM      4  H   UNL     1       2.023   6.597  18.788  0.00  0.00    +0.000 HD
ENDROOT
BRANCH   1  15
ATOM      5  C   UNL     1       6.522   5.675  19.235  0.00  0.00    +0.000 C 
ATOM      6  C   UNL     1       5.313   4.881  18.915  0.00  0.00    +0.000 A 
ATOM      7  O   UNL     1       5.347   3.580  19.312  0.00  0.00    +0.000 OA
ATOM      8  C   UNL     1       4.170   3.010  18.946  0.00  0.00    +0.000 A 
ATOM      9  N   UNL     1       3.872   1.708  19.179  0.00  0.00    +0.000 NA
ATOM     10  C   UNL     1       2.699   1.366  18.751  0.00  0.00    +0.000 A 
ATOM     11  N   UNL     1       1.807   2.210  18.133  0.00  0.00    +0.000 N 
ATOM     12  C   UNL     1       2.072   3.543  17.897  0.00  0.00    +0.000 A 
ATOM     13  O   UNL     1       1.251   4.294  17.385  0.00  0.00    +0.000 OA
ATOM     14  C   UNL     1       3.380   3.959  18.331  0.00  0.00    +0.000 A 
ATOM     15  C   UNL     1       4.114   5.181  18.271  0.00  0.00    +0.000 A 
ATOM     16  H   UNL     1       0.902   1.876  17.840  0.00  0.00    +0.000 HD
ENDBRANCH   1  15
BRANCH   3  17
ATOM     17  C   UNL     1       2.228   8.392  17.707  0.00  0.00    +0.000 C 
BRANCH  17  18
ATOM     18  C   UNL     1       1.662   9.188  18.857  0.00  0.00    +0.000 A 
ATOM     19  C   UNL     1       1.354   8.560  20.070  0.00  0.00    +0.000 A 
ATOM     20  C   UNL     1       0.892   9.309  21.147  0.00  0.00    +0.000 A 
ATOM     21  C   UNL     1       0.692  10.684  21.010  0.00  0.00    +0.000 A 
ATOM     22  C   UNL     1       0.930  11.335  19.794  0.00  0.00    +0.000 A 
ATOM     23  C   UNL     1       1.437  10.573  18.727  0.00  0.00    +0.000 A 
BRANCH  22  24
ATOM     24  N   UNL     1       0.667  12.723  19.649  0.00  0.00    +0.000 N 
ATOM     25  C   UNL     1       1.707  13.723  19.610  0.00  0.00    +0.000 C 
ATOM     26  C   UNL     1       0.960  15.031  19.780  0.00  0.00    +0.000 C 
ATOM     27  C   UNL     1      -0.376  14.763  19.116  0.00  0.00    +0.000 C 
ATOM     28  C   UNL     1      -0.583  13.285  19.344  0.00  0.00    +0.000 C 
ATOM     29  O   UNL     1      -1.663  12.735  19.189  0.00  0.00    +0.000 OA
ENDBRANCH  22  24
ENDBRANCH  17  18
ENDBRANCH   3  17
TORSDOF 4
ENDMDL
