MODEL 1
REMARK VINA RESULT:      -8.6      0.000      0.000
REMARK  Name = 
REMARK  5 active torsions:
REMARK  status: ('A' for Active; 'I' for Inactive)
REMARK    1  A    between atoms: C_1  and  C_2
REMARK    2  A    between atoms: C_3  and  C_4
REMARK    3  A    between atoms: C_4  and  C_5
REMARK    4  A    between atoms: C_4  and  N_6
REMARK    5  A    between atoms: C_7  and  C_9
REMARK                            x       y       z     vdW  Elec       q    Type
REMARK                         _______ _______ _______ _____ _____    ______ ____
ROOT
ATOM      1  N   UNL     1       1.517   9.276  18.678  0.00  0.00    +0.000 N 
ATOM      2  C   UNL     1       1.878   8.190  19.434  0.00  0.00    +0.000 C 
ATOM      3  O   UNL     1       1.695   8.049  20.636  0.00  0.00    +0.000 OA
ATOM      4  H   UNL     1       1.607   9.193  17.670  0.00  0.00    +0.000 HD
ENDROOT
BRANCH   2   5
ATOM      5  C   UNL     1       2.613   7.090  18.673  0.00  0.00    +0.000 A 
ATOM      6  N   UNL     1       3.477   7.373  17.749  0.00  0.00    +0.000 NA
ATOM      7  C   UNL     1       4.117   6.284  17.123  0.00  0.00    +0.000 A 
ATOM      8  C   UNL     1       5.043   6.541  16.111  0.00  0.00    +0.000 A 
ATOM      9  C   UNL     1       5.689   5.489  15.453  0.00  0.00    +0.000 A 
ATOM     10  C   UNL     1       5.422   4.167  15.809  0.00  0.00    +0.000 A 
ATOM     11  C   UNL     1       4.508   3.892  16.825  0.00  0.00    +0.000 A 
ATOM     12  C   UNL     1       3.862   4.951  17.471  0.00  0.00    +0.000 A 
ATOM     13  C   UNL     1       2.877   4.698  18.539  0.00  0.00    +0.000 A 
ATOM     14  O   UNL     1       2.604   3.567  18.919  0.00  0.00    +0.000 OA
ATOM     15  N   UNL     1       2.295   5.817  19.072  0.00  0.00    +0.000 N 
ATOM     16  H   UNL     1       1.618   5.694  19.815  0.00  0.00    +0.000 HD
ENDBRANCH   2   5
BRANCH   1  17
ATOM     17  C   UNL     1       0.845  10.419  19.257  0.00  0.00    +0.000 C 
ATOM     18  C   UNL     1       1.669  11.694  19.110  0.00  0.00    +0.000 C 
BRANCH  17  21
ATOM     19  C   UNL     1      -1.822  12.049  20.324  0.00  0.00    +0.000 C 
ATOM     20  C   UNL     1      -1.642  11.273  19.071  0.00  0.00    +0.000 A 
ATOM     21  C   UNL     1      -0.516  10.579  18.655  0.00  0.00    +0.000 A 
ATOM     22  O   UNL     1      -0.736  10.001  17.437  0.00  0.00    +0.000 OA
ATOM     23  C   UNL     1      -1.999  10.338  17.053  0.00  0.00    +0.000 A 
ATOM     24  C   UNL     1      -2.613   9.973  15.856  0.00  0.00    +0.000 A 
ATOM     25  C   UNL     1      -3.917  10.442  15.651  0.00  0.00    +0.000 A 
ATOM     26  C   UNL     1      -4.561  11.230  16.607  0.00  0.00    +0.000 A 
ATOM     27  C   UNL     1      -3.917  11.577  17.802  0.00  0.00    +0.000 A 
ATOM     28  C   UNL     1      -2.604  11.122  18.028  0.00  0.00    +0.000 A 
ENDBRANCH  17  21
ENDBRANCH   1  17
TORSDOF 3
ENDMDL
MODEL 2
REMARK VINA RESULT:      -8.6      2.796      8.661
REMARK  Name = 
REMARK  5 active torsions:
REMARK  status: ('A' for Active; 'I' for Inactive)
REMARK    1  A    between atoms: C_1  and  C_2
REMARK    2  A    between atoms: C_3  and  C_4
REMARK    3  A    between atoms: C_4  and  C_5
REMARK    4  A    between atoms: C_4  and  N_6
REMARK    5  A    between atoms: C_7  and  C_9
REMARK                            x       y       z     vdW  Elec       q    Type
REMARK                         _______ _______ _______ _____ _____    ______ ____
ROOT
ATOM      1  N   UNL     1       3.787   5.475  17.977  0.00  0.00    +0.000 N 
ATOM      2  C   UNL     1       3.290   5.678  19.239  0.00  0.00    +0.000 C 
ATOM      3  O   UNL     1       3.407   4.923  20.195  0.00  0.00    +0.000 OA
ATOM      4  H   UNL     1       3.734   6.252  17.324  0.00  0.00    +0.000 HD
ENDROOT
BRANCH   2   5
ATOM      5  C   UNL     1       2.486   6.963  19.417  0.00  0.00    +0.000 A 
ATOM      6  N   UNL     1       1.859   7.216  20.524  0.00  0.00    +0.000 NA
ATOM      7  C   UNL     1       1.164   8.440  20.594  0.00  0.00    +0.000 A 
ATOM      8  C   UNL     1       0.462   8.747  21.761  0.00  0.00    +0.000 A 
ATOM      9  C   UNL     1      -0.254   9.944  21.866  0.00  0.00    +0.000 A 
ATOM     10  C   UNL     1      -0.266  10.853  20.807  0.00  0.00    +0.000 A 
ATOM     11  C   UNL     1       0.439  10.568  19.639  0.00  0.00    +0.000 A 
ATOM     12  C   UNL     1       1.145   9.364  19.541  0.00  0.00    +0.000 A 
ATOM     13  C   UNL     1       1.889   9.021  18.315  0.00  0.00    +0.000 A 
ATOM     14  O   UNL     1       1.941   9.775  17.352  0.00  0.00    +0.000 OA
ATOM     15  N   UNL     1       2.515   7.804  18.334  0.00  0.00    +0.000 N 
ATOM     16  H   UNL     1       3.046   7.527  17.517  0.00  0.00    +0.000 HD
ENDBRANCH   2   5
BRANCH   1  17
ATOM     17  C   UNL     1       4.541   4.289  17.636  0.00  0.00    +0.000 C 
ATOM     18  C   UNL     1       3.645   3.058  17.537  0.00  0.00    +0.000 C 
BRANCH  17  21
ATOM     19  C   UNL     1       7.150   6.202  16.974  0.00  0.00    +0.000 C 
ATOM     20  C   UNL     1       6.412   5.285  16.068  0.00  0.00    +0.000 A 
ATOM     21  C   UNL     1       5.304   4.507  16.367  0.00  0.00    +0.000 A 
ATOM     22  O   UNL     1       4.919   3.788  15.270  0.00  0.00    +0.000 OA
ATOM     23  C   UNL     1       5.791   4.085  14.266  0.00  0.00    +0.000 A 
ATOM     24  C   UNL     1       5.770   3.547  12.981  0.00  0.00    +0.000 A 
ATOM     25  C   UNL     1       6.773   3.978  12.103  0.00  0.00    +0.000 A 
ATOM     26  C   UNL     1       7.736   4.905  12.506  0.00  0.00    +0.000 A 
ATOM     27  C   UNL     1       7.728   5.431  13.804  0.00  0.00    +0.000 A 
ATOM     28  C   UNL     1       6.732   5.008  14.706  0.00  0.00    +0.000 A 
ENDBRANCH  17  21
ENDBRANCH   1  17
TORSDOF 3
ENDMDL
MODEL 3
REMARK VINA RESULT:      -8.6      1.102      1.456
REMARK  Name = 
REMARK  5 active torsions:
REMARK  status: ('A' for Active; 'I' for Inactive)
REMARK    1  A    between atoms: C_1  and  C_2
REMARK    2  A    between atoms: C_3  and  C_4
REMARK    3  A    between atoms: C_4  and  C_5
REMARK    4  A    between atoms: C_4  and  N_6
REMARK    5  A    between atoms: C_7  and  C_9
REMARK                            x       y       z     vdW  Elec       q    Type
REMARK                         _______ _______ _______ _____ _____    ______ ____
ROOT
ATOM      1  N   UNL     1       1.117   9.272  19.395  0.00  0.00    +0.000 N 
ATOM      2  C   UNL     1       1.474   8.441  20.425  0.00  0.00    +0.000 C 
ATOM      3  O   UNL     1       1.394   8.691  21.621  0.00  0.00    +0.000 OA
ATOM      4  H   UNL     1       1.107   8.877  18.459  0.00  0.00    +0.000 HD
ENDROOT
BRANCH   2   5
ATOM      5  C   UNL     1       2.063   7.099  19.998  0.00  0.00    +0.000 A 
ATOM      6  N   UNL     1       2.698   6.971  18.875  0.00  0.00    +0.000 NA
ATOM      7  C   UNL     1       3.224   5.695  18.585  0.00  0.00    +0.000 A 
ATOM      8  C   UNL     1       3.901   5.506  17.379  0.00  0.00    +0.000 A 
ATOM      9  C   UNL     1       4.424   4.252  17.045  0.00  0.00    +0.000 A 
ATOM     10  C   UNL     1       4.282   3.175  17.921  0.00  0.00    +0.000 A 
ATOM     11  C   UNL     1       3.618   3.348  19.134  0.00  0.00    +0.000 A 
ATOM     12  C   UNL     1       3.092   4.604  19.454  0.00  0.00    +0.000 A 
ATOM     13  C   UNL     1       2.369   4.821  20.721  0.00  0.00    +0.000 A 
ATOM     14  O   UNL     1       2.221   3.930  21.548  0.00  0.00    +0.000 OA
ATOM     15  N   UNL     1       1.880   6.086  20.904  0.00  0.00    +0.000 N 
ATOM     16  H   UNL     1       1.383   6.286  21.763  0.00  0.00    +0.000 HD
ENDBRANCH   2   5
BRANCH   1  17
ATOM     17  C   UNL     1       0.576  10.593  19.632  0.00  0.00    +0.000 C 
ATOM     18  C   UNL     1       1.556  11.687  19.223  0.00  0.00    +0.000 C 
BRANCH  17  21
ATOM     19  C   UNL     1      -2.122  12.320  20.435  0.00  0.00    +0.000 C 
ATOM     20  C   UNL     1      -1.873  11.483  19.235  0.00  0.00    +0.000 A 
ATOM     21  C   UNL     1      -0.736  10.749  18.931  0.00  0.00    +0.000 A 
ATOM     22  O   UNL     1      -0.885  10.118  17.727  0.00  0.00    +0.000 OA
ATOM     23  C   UNL     1      -2.112  10.459  17.242  0.00  0.00    +0.000 A 
ATOM     24  C   UNL     1      -2.650  10.049  16.024  0.00  0.00    +0.000 A 
ATOM     25  C   UNL     1      -3.926  10.532  15.707  0.00  0.00    +0.000 A 
ATOM     26  C   UNL     1      -4.617  11.376  16.579  0.00  0.00    +0.000 A 
ATOM     27  C   UNL     1      -4.049  11.767  17.799  0.00  0.00    +0.000 A 
ATOM     28  C   UNL     1      -2.764  11.300  18.135  0.00  0.00    +0.000 A 
ENDBRANCH  17  21
ENDBRANCH   1  17
TORSDOF 3
ENDMDL
MODEL 4
REMARK VINA RESULT:      -8.5      2.286      8.368
REMARK  Name = 
REMARK  5 active torsions:
REMARK  status: ('A' for Active; 'I' for Inactive)
REMARK    1  A    between atoms: C_1  and  C_2
REMARK    2  A    between atoms: C_3  and  C_4
REMARK    3  A    between atoms: C_4  and  C_5
REMARK    4  A    between atoms: C_4  and  N_6
REMARK    5  A    between atoms: C_7  and  C_9
REMARK                            x       y       z     vdW  Elec       q    Type
REMARK                         _______ _______ _______ _____ _____    ______ ____
ROOT
ATOM      1  N   UNL     1       0.152   9.473  20.003  0.00  0.00    +0.000 N 
ATOM      2  C   UNL     1       0.153  10.430  19.020  0.00  0.00    +0.000 C 
ATOM      3  O   UNL     1       1.134  11.014  18.577  0.00  0.00    +0.000 OA
ATOM      4  H   UNL     1      -0.719   8.977  20.169  0.00  0.00    +0.000 HD
ENDROOT
BRANCH   2   5
ATOM      5  C   UNL     1      -1.224  10.804  18.481  0.00  0.00    +0.000 A 
ATOM      6  N   UNL     1      -2.113  11.366  19.240  0.00  0.00    +0.000 NA
ATOM      7  C   UNL     1      -3.346  11.693  18.639  0.00  0.00    +0.000 A 
ATOM      8  C   UNL     1      -4.339  12.284  19.421  0.00  0.00    +0.000 A 
ATOM      9  C   UNL     1      -5.582  12.609  18.868  0.00  0.00    +0.000 A 
ATOM     10  C   UNL     1      -5.841  12.355  17.521  0.00  0.00    +0.000 A 
ATOM     11  C   UNL     1      -4.857  11.774  16.722  0.00  0.00    +0.000 A 
ATOM     12  C   UNL     1      -3.621  11.445  17.287  0.00  0.00    +0.000 A 
ATOM     13  C   UNL     1      -2.562  10.816  16.477  0.00  0.00    +0.000 A 
ATOM     14  O   UNL     1      -2.708  10.578  15.285  0.00  0.00    +0.000 OA
ATOM     15  N   UNL     1      -1.409  10.519  17.153  0.00  0.00    +0.000 N 
ATOM     16  H   UNL     1      -0.649  10.092  16.636  0.00  0.00    +0.000 HD
ENDBRANCH   2   5
BRANCH   1  17
ATOM     17  C   UNL     1       1.373   9.034  20.642  0.00  0.00    +0.000 C 
ATOM     18  C   UNL     1       1.267   9.088  22.162  0.00  0.00    +0.000 C 
BRANCH  17  21
ATOM     19  C   UNL     1       2.850   8.010  17.871  0.00  0.00    +0.000 C 
ATOM     20  C   UNL     1       2.376   7.207  19.027  0.00  0.00    +0.000 A 
ATOM     21  C   UNL     1       1.739   7.661  20.172  0.00  0.00    +0.000 A 
ATOM     22  O   UNL     1       1.469   6.617  21.012  0.00  0.00    +0.000 OA
ATOM     23  C   UNL     1       1.951   5.488  20.420  0.00  0.00    +0.000 A 
ATOM     24  C   UNL     1       1.904   4.202  20.955  0.00  0.00    +0.000 A 
ATOM     25  C   UNL     1       2.476   3.181  20.185  0.00  0.00    +0.000 A 
ATOM     26  C   UNL     1       3.055   3.449  18.943  0.00  0.00    +0.000 A 
ATOM     27  C   UNL     1       3.083   4.753  18.431  0.00  0.00    +0.000 A 
ATOM     28  C   UNL     1       2.520   5.797  19.190  0.00  0.00    +0.000 A 
ENDBRANCH  17  21
ENDBRANCH   1  17
TORSDOF 3
ENDMDL
MODEL 5
REMARK VINA RESULT:      -8.4      1.217      2.178
REMARK  Name = 
REMARK  5 active torsions:
REMARK  status: ('A' for Active; 'I' for Inactive)
REMARK    1  A    between atoms: C_1  and  C_2
REMARK    2  A    between atoms: C_3  and  C_4
REMARK    3  A    between atoms: C_4  and  C_5
REMARK    4  A    between atoms: C_4  and  N_6
REMARK    5  A    between atoms: C_7  and  C_9
REMARK                            x       y       z     vdW  Elec       q    Type
REMARK                         _______ _______ _______ _____ _____    ______ ____
ROOT
ATOM      1  N   UNL     1       1.515   8.984  18.781  0.00  0.00    +0.000 N 
ATOM      2  C   UNL     1       1.802   8.041  19.734  0.00  0.00    +0.000 C 
ATOM      3  O   UNL     1       1.700   8.179  20.946  0.00  0.00    +0.000 OA
ATOM      4  H   UNL     1       1.514   8.681  17.811  0.00  0.00    +0.000 HD
ENDROOT
BRANCH   2   5
ATOM      5  C   UNL     1       2.337   6.718  19.193  0.00  0.00    +0.000 A 
ATOM      6  N   UNL     1       1.907   5.582  19.648  0.00  0.00    +0.000 NA
ATOM      7  C   UNL     1       2.448   4.419  19.065  0.00  0.00    +0.000 A 
ATOM      8  C   UNL     1       2.026   3.174  19.534  0.00  0.00    +0.000 A 
ATOM      9  C   UNL     1       2.550   1.994  18.995  0.00  0.00    +0.000 A 
ATOM     10  C   UNL     1       3.496   2.049  17.970  0.00  0.00    +0.000 A 
ATOM     11  C   UNL     1       3.921   3.283  17.481  0.00  0.00    +0.000 A 
ATOM     12  C   UNL     1       3.396   4.456  18.034  0.00  0.00    +0.000 A 
ATOM     13  C   UNL     1       3.834   5.780  17.554  0.00  0.00    +0.000 A 
ATOM     14  O   UNL     1       4.645   5.909  16.646  0.00  0.00    +0.000 OA
ATOM     15  N   UNL     1       3.267   6.849  18.194  0.00  0.00    +0.000 N 
ATOM     16  H   UNL     1       3.530   7.780  17.893  0.00  0.00    +0.000 HD
ENDBRANCH   2   5
BRANCH   1  17
ATOM     17  C   UNL     1       1.034  10.302  19.132  0.00  0.00    +0.000 C 
ATOM     18  C   UNL     1       1.957  11.399  18.611  0.00  0.00    +0.000 C 
BRANCH  17  21
ATOM     19  C   UNL     1      -1.512  11.972  20.412  0.00  0.00    +0.000 C 
ATOM     20  C   UNL     1      -1.444  11.202  19.144  0.00  0.00    +0.000 A 
ATOM     21  C   UNL     1      -0.366  10.491  18.639  0.00  0.00    +0.000 A 
ATOM     22  O   UNL     1      -0.691   9.925  17.438  0.00  0.00    +0.000 OA
ATOM     23  C   UNL     1      -1.974  10.287  17.155  0.00  0.00    +0.000 A 
ATOM     24  C   UNL     1      -2.685   9.941  16.008  0.00  0.00    +0.000 A 
ATOM     25  C   UNL     1      -3.993  10.435  15.907  0.00  0.00    +0.000 A 
ATOM     26  C   UNL     1      -4.545  11.228  16.915  0.00  0.00    +0.000 A 
ATOM     27  C   UNL     1      -3.805  11.555  18.058  0.00  0.00    +0.000 A 
ATOM     28  C   UNL     1      -2.486  11.075  18.178  0.00  0.00    +0.000 A 
ENDBRANCH  17  21
ENDBRANCH   1  17
TORSDOF 3
ENDMDL
MODEL 6
REMARK VINA RESULT:      -7.9      2.697      8.447
REMARK  Name = 
REMARK  5 active torsions:
REMARK  status: ('A' for Active; 'I' for Inactive)
REMARK    1  A    between atoms: C_1  and  C_2
REMARK    2  A    between atoms: C_3  and  C_4
REMARK    3  A    between atoms: C_4  and  C_5
REMARK    4  A    between atoms: C_4  and  N_6
REMARK    5  A    between atoms: C_7  and  C_9
REMARK                            x       y       z     vdW  Elec       q    Type
REMARK                         _______ _______ _______ _____ _____    ______ ____
ROOT
ATOM      1  N   UNL     1       3.849   5.491  18.091  0.00  0.00    +0.000 N 
ATOM      2  C   UNL     1       3.272   5.638  19.326  0.00  0.00    +0.000 C 
ATOM      3  O   UNL     1       3.289   4.820  20.237  0.00  0.00    +0.000 OA
ATOM      4  H   UNL     1       3.875   6.308  17.487  0.00  0.00    +0.000 HD
ENDROOT
BRANCH   2   5
ATOM      5  C   UNL     1       2.511   6.945  19.531  0.00  0.00    +0.000 A 
ATOM      6  N   UNL     1       2.396   7.813  18.576  0.00  0.00    +0.000 NA
ATOM      7  C   UNL     1       1.654   8.977  18.862  0.00  0.00    +0.000 A 
ATOM      8  C   UNL     1       1.516   9.947  17.868  0.00  0.00    +0.000 A 
ATOM      9  C   UNL     1       0.802  11.124  18.115  0.00  0.00    +0.000 A 
ATOM     10  C   UNL     1       0.208  11.338  19.359  0.00  0.00    +0.000 A 
ATOM     11  C   UNL     1       0.326  10.375  20.361  0.00  0.00    +0.000 A 
ATOM     12  C   UNL     1       1.049   9.206  20.105  0.00  0.00    +0.000 A 
ATOM     13  C   UNL     1       1.209   8.173  21.145  0.00  0.00    +0.000 A 
ATOM     14  O   UNL     1       0.702   8.280  22.254  0.00  0.00    +0.000 OA
ATOM     15  N   UNL     1       1.961   7.089  20.779  0.00  0.00    +0.000 N 
ATOM     16  H   UNL     1       2.092   6.348  21.458  0.00  0.00    +0.000 HD
ENDBRANCH   2   5
BRANCH   1  17
ATOM     17  C   UNL     1       4.575   4.294  17.725  0.00  0.00    +0.000 C 
ATOM     18  C   UNL     1       3.655   3.082  17.625  0.00  0.00    +0.000 C 
BRANCH  17  21
ATOM     19  C   UNL     1       7.178   6.208  17.038  0.00  0.00    +0.000 C 
ATOM     20  C   UNL     1       6.431   5.292  16.140  0.00  0.00    +0.000 A 
ATOM     21  C   UNL     1       5.326   4.513  16.449  0.00  0.00    +0.000 A 
ATOM     22  O   UNL     1       4.930   3.794  15.356  0.00  0.00    +0.000 OA
ATOM     23  C   UNL     1       5.792   4.091  14.344  0.00  0.00    +0.000 A 
ATOM     24  C   UNL     1       5.759   3.553  13.059  0.00  0.00    +0.000 A 
ATOM     25  C   UNL     1       6.753   3.984  12.171  0.00  0.00    +0.000 A 
ATOM     26  C   UNL     1       7.720   4.912  12.565  0.00  0.00    +0.000 A 
ATOM     27  C   UNL     1       7.724   5.438  13.863  0.00  0.00    +0.000 A 
ATOM     28  C   UNL     1       6.738   5.014  14.775  0.00  0.00    +0.000 A 
ENDBRANCH  17  21
ENDBRANCH   1  17
TORSDOF 3
ENDMDL
MODEL 7
REMARK VINA RESULT:      -7.9      2.831      8.292
REMARK  Name = 
REMARK  5 active torsions:
REMARK  status: ('A' for Active; 'I' for Inactive)
REMARK    1  A    between atoms: C_1  and  C_2
REMARK    2  A    between atoms: C_3  and  C_4
REMARK    3  A    between atoms: C_4  and  C_5
REMARK    4  A    between atoms: C_4  and  N_6
REMARK    5  A    between atoms: C_7  and  C_9
REMARK                            x       y       z     vdW  Elec       q    Type
REMARK                         _______ _______ _______ _____ _____    ______ ____
ROOT
ATOM      1  N   UNL     1       2.394   6.061  18.976  0.00  0.00    +0.000 N 
ATOM      2  C   UNL     1       2.031   6.375  20.261  0.00  0.00    +0.000 C 
ATOM      3  O   UNL     1       2.005   5.609  21.216  0.00  0.00    +0.000 OA
ATOM      4  H   UNL     1       2.502   6.830  18.321  0.00  0.00    +0.000 HD
ENDROOT
BRANCH   2   5
ATOM      5  C   UNL     1       1.583   7.819  20.470  0.00  0.00    +0.000 A 
ATOM      6  N   UNL     1       1.392   8.617  19.466  0.00  0.00    +0.000 NA
ATOM      7  C   UNL     1       0.957   9.923  19.767  0.00  0.00    +0.000 A 
ATOM      8  C   UNL     1       0.753  10.821  18.718  0.00  0.00    +0.000 A 
ATOM      9  C   UNL     1       0.338  12.132  18.974  0.00  0.00    +0.000 A 
ATOM     10  C   UNL     1       0.112  12.556  20.284  0.00  0.00    +0.000 A 
ATOM     11  C   UNL     1       0.300  11.669  21.343  0.00  0.00    +0.000 A 
ATOM     12  C   UNL     1       0.724  10.363  21.076  0.00  0.00    +0.000 A 
ATOM     13  C   UNL     1       0.949   9.402  22.172  0.00  0.00    +0.000 A 
ATOM     14  O   UNL     1       0.754   9.694  23.345  0.00  0.00    +0.000 OA
ATOM     15  N   UNL     1       1.388   8.166  21.783  0.00  0.00    +0.000 N 
ATOM     16  H   UNL     1       1.549   7.469  22.500  0.00  0.00    +0.000 HD
ENDBRANCH   2   5
BRANCH   1  17
ATOM     17  C   UNL     1       2.808   4.726  18.605  0.00  0.00    +0.000 C 
ATOM     18  C   UNL     1       1.664   3.930  17.985  0.00  0.00    +0.000 C 
BRANCH  17  21
ATOM     19  C   UNL     1       5.988   5.397  19.195  0.00  0.00    +0.000 C 
ATOM     20  C   UNL     1       5.332   5.043  17.911  0.00  0.00    +0.000 A 
ATOM     21  C   UNL     1       3.988   4.785  17.687  0.00  0.00    +0.000 A 
ATOM     22  O   UNL     1       3.775   4.484  16.370  0.00  0.00    +0.000 OA
ATOM     23  C   UNL     1       4.986   4.525  15.746  0.00  0.00    +0.000 A 
ATOM     24  C   UNL     1       5.219   4.255  14.399  0.00  0.00    +0.000 A 
ATOM     25  C   UNL     1       6.548   4.339  13.963  0.00  0.00    +0.000 A 
ATOM     26  C   UNL     1       7.577   4.683  14.842  0.00  0.00    +0.000 A 
ATOM     27  C   UNL     1       7.309   4.953  16.191  0.00  0.00    +0.000 A 
ATOM     28  C   UNL     1       5.981   4.868  16.653  0.00  0.00    +0.000 A 
ENDBRANCH  17  21
ENDBRANCH   1  17
TORSDOF 3
ENDMDL
MODEL 8
REMARK VINA RESULT:      -7.9      2.985      8.542
REMARK  Name = 
REMARK  5 active torsions:
REMARK  status: ('A' for Active; 'I' for Inactive)
REMARK    1  A    between atoms: C_1  and  C_2
REMARK    2  A    between atoms: C_3  and  C_4
REMARK    3  A    between atoms: C_4  and  C_5
REMARK    4  A    between atoms: C_4  and  N_6
REMARK    5  A    between atoms: C_7  and  C_9
REMARK                            x       y       z     vdW  Elec       q    Type
REMARK                         _______ _______ _______ _____ _____    ______ ____
ROOT
ATOM      1  N   UNL     1       4.012   5.733  19.745  0.00  0.00    +0.000 N 
ATOM      2  C   UNL     1       2.721   5.864  19.302  0.00  0.00    +0.000 C 
ATOM      3  O   UNL     1       2.101   5.053  18.625  0.00  0.00    +0.000 OA
ATOM      4  H   UNL     1       4.347   6.421  20.414  0.00  0.00    +0.000 HD
ENDROOT
BRANCH   2   5
ATOM      5  C   UNL     1       2.039   7.177  19.675  0.00  0.00    +0.000 A 
ATOM      6  N   UNL     1       1.526   7.357  20.852  0.00  0.00    +0.000 NA
ATOM      7  C   UNL     1       0.940   8.614  21.103  0.00  0.00    +0.000 A 
ATOM      8  C   UNL     1       0.360   8.848  22.351  0.00  0.00    +0.000 A 
ATOM      9  C   UNL     1      -0.247  10.076  22.636  0.00  0.00    +0.000 A 
ATOM     10  C   UNL     1      -0.271  11.088  21.676  0.00  0.00    +0.000 A 
ATOM     11  C   UNL     1       0.312  10.876  20.428  0.00  0.00    +0.000 A 
ATOM     12  C   UNL     1       0.909   9.642  20.151  0.00  0.00    +0.000 A 
ATOM     13  C   UNL     1       1.521   9.376  18.836  0.00  0.00    +0.000 A 
ATOM     14  O   UNL     1       1.556  10.220  17.950  0.00  0.00    +0.000 OA
ATOM     15  N   UNL     1       2.047   8.121  18.681  0.00  0.00    +0.000 N 
ATOM     16  H   UNL     1       2.487   7.894  17.797  0.00  0.00    +0.000 HD
ENDBRANCH   2   5
BRANCH   1  17
ATOM     17  C   UNL     1       4.808   4.563  19.444  0.00  0.00    +0.000 C 
ATOM     18  C   UNL     1       4.005   3.277  19.604  0.00  0.00    +0.000 C 
BRANCH  17  21
ATOM     19  C   UNL     1       7.580   6.003  18.371  0.00  0.00    +0.000 C 
ATOM     20  C   UNL     1       6.560   5.251  17.598  0.00  0.00    +0.000 A 
ATOM     21  C   UNL     1       5.391   4.673  18.071  0.00  0.00    +0.000 A 
ATOM     22  O   UNL     1       4.719   4.057  17.052  0.00  0.00    +0.000 OA
ATOM     23  C   UNL     1       5.463   4.219  15.922  0.00  0.00    +0.000 A 
ATOM     24  C   UNL     1       5.147   3.722  14.659  0.00  0.00    +0.000 A 
ATOM     25  C   UNL     1       6.062   3.990  13.632  0.00  0.00    +0.000 A 
ATOM     26  C   UNL     1       7.226   4.724  13.873  0.00  0.00    +0.000 A 
ATOM     27  C   UNL     1       7.512   5.214  15.155  0.00  0.00    +0.000 A 
ATOM     28  C   UNL     1       6.610   4.952  16.203  0.00  0.00    +0.000 A 
ENDBRANCH  17  21
ENDBRANCH   1  17
TORSDOF 3
ENDMDL
MODEL 9
REMARK VINA RESULT:      -7.9      3.011      8.507
REMARK  Name = 
REMARK  5 active torsions:
REMARK  status: ('A' for Active; 'I' for Inactive)
REMARK    1  A    between atoms: C_1  and  C_2
REMARK    2  A    between atoms: C_3  and  C_4
REMARK    3  A    between atoms: C_4  and  C_5
REMARK    4  A    between atoms: C_4  and  N_6
REMARK    5  A    between atoms: C_7  and  C_9
REMARK                            x       y       z     vdW  Elec       q    Type
REMARK                         _______ _______ _______ _____ _____    ______ ____
ROOT
ATOM      1  N   UNL     1       2.357   5.776  18.963  0.00  0.00    +0.000 N 
ATOM      2  C   UNL     1       2.014   6.060  20.259  0.00  0.00    +0.000 C 
ATOM      3  O   UNL     1       2.087   5.296  21.214  0.00  0.00    +0.000 OA
ATOM      4  H   UNL     1       2.376   6.549  18.305  0.00  0.00    +0.000 HD
ENDROOT
BRANCH   2   5
ATOM      5  C   UNL     1       1.454   7.461  20.487  0.00  0.00    +0.000 A 
ATOM      6  N   UNL     1       0.840   7.770  21.586  0.00  0.00    +0.000 NA
ATOM      7  C   UNL     1       0.381   9.097  21.706  0.00  0.00    +0.000 A 
ATOM      8  C   UNL     1      -0.300   9.470  22.866  0.00  0.00    +0.000 A 
ATOM      9  C   UNL     1      -0.786  10.773  23.019  0.00  0.00    +0.000 A 
ATOM     10  C   UNL     1      -0.586  11.720  22.014  0.00  0.00    +0.000 A 
ATOM     11  C   UNL     1       0.101  11.369  20.853  0.00  0.00    +0.000 A 
ATOM     12  C   UNL     1       0.576  10.061  20.708  0.00  0.00    +0.000 A 
ATOM     13  C   UNL     1       1.293   9.648  19.487  0.00  0.00    +0.000 A 
ATOM     14  O   UNL     1       1.523  10.427  18.571  0.00  0.00    +0.000 OA
ATOM     15  N   UNL     1       1.682   8.336  19.455  0.00  0.00    +0.000 N 
ATOM     16  H   UNL     1       2.186   8.007  18.641  0.00  0.00    +0.000 HD
ENDBRANCH   2   5
BRANCH   1  17
ATOM     17  C   UNL     1       2.869   4.479  18.575  0.00  0.00    +0.000 C 
ATOM     18  C   UNL     1       1.779   3.596  17.976  0.00  0.00    +0.000 C 
BRANCH  17  21
ATOM     19  C   UNL     1       5.952   5.555  19.071  0.00  0.00    +0.000 C 
ATOM     20  C   UNL     1       5.325   5.065  17.818  0.00  0.00    +0.000 A 
ATOM     21  C   UNL     1       4.019   4.637  17.632  0.00  0.00    +0.000 A 
ATOM     22  O   UNL     1       3.826   4.250  16.335  0.00  0.00    +0.000 OA
ATOM     23  C   UNL     1       5.013   4.408  15.685  0.00  0.00    +0.000 A 
ATOM     24  C   UNL     1       5.258   4.105  14.347  0.00  0.00    +0.000 A 
ATOM     25  C   UNL     1       6.561   4.328  13.881  0.00  0.00    +0.000 A 
ATOM     26  C   UNL     1       7.553   4.834  14.723  0.00  0.00    +0.000 A 
ATOM     27  C   UNL     1       7.274   5.133  16.063  0.00  0.00    +0.000 A 
ATOM     28  C   UNL     1       5.973   4.911  16.556  0.00  0.00    +0.000 A 
ENDBRANCH  17  21
ENDBRANCH   1  17
TORSDOF 3
ENDMDL
