MODEL 1
REMARK VINA RESULT:      -8.9      0.000      0.000
REMARK  Name = 
REMARK  6 active torsions:
REMARK  status: ('A' for Active; 'I' for Inactive)
REMARK    1  A    between atoms: C_1  and  C_2
REMARK    2  A    between atoms: C_5  and  O_6
REMARK    3  A    between atoms: O_6  and  C_7
REMARK    4  A    between atoms: C_7  and  C_8
REMARK    5  A    between atoms: C_14  and  N_15
REMARK    6  A    between atoms: C_16  and  C_18
REMARK                            x       y       z     vdW  Elec       q    Type
REMARK                         _______ _______ _______ _____ _____    ______ ____
ROOT
ATOM      1  N   UNL     1       2.449   7.134  19.882  0.00  0.00    +0.000 N 
ATOM      2  C   UNL     1       1.832   8.001  18.988  0.00  0.00    +0.000 C 
ATOM      3  O   UNL     1       1.314   7.680  17.925  0.00  0.00    +0.000 OA
ATOM      4  H   UNL     1       2.513   7.502  20.809  0.00  0.00    +0.000 HD
ENDROOT
BRANCH   2   5
ATOM      5  C   UNL     1       1.802   9.434  19.527  0.00  0.00    +0.000 C 
ATOM      6  C   UNL     1       1.620  10.396  18.358  0.00  0.00    +0.000 C 
ATOM      7  C   UNL     1       1.574  11.825  18.832  0.00  0.00    +0.000 C 
ATOM      8  O   UNL     1       1.955  12.758  18.132  0.00  0.00    +0.000 OA
ATOM      9  N   UNL     1       0.997  12.062  20.046  0.00  0.00    +0.000 N 
ATOM     10  C   UNL     1       0.517  11.068  20.906  0.00  0.00    +0.000 A 
ATOM     11  C   UNL     1      -0.212  11.438  22.034  0.00  0.00    +0.000 A 
ATOM     12  C   UNL     1      -0.727  10.457  22.879  0.00  0.00    +0.000 A 
ATOM     13  C   UNL     1      -0.521   9.110  22.575  0.00  0.00    +0.000 A 
ATOM     14  C   UNL     1       0.236   8.740  21.459  0.00  0.00    +0.000 A 
ATOM     15  C   UNL     1       0.792   9.717  20.624  0.00  0.00    +0.000 A 
ATOM     16  H   UNL     1       0.860  13.038  20.283  0.00  0.00    +0.000 HD
ENDBRANCH   2   5
BRANCH   1  22
ATOM     17  C   UNL     1       1.476   2.627  21.669  0.00  0.00    +0.000 C 
ATOM     18  C   UNL     1       2.134   3.504  20.643  0.00  0.00    +0.000 A 
ATOM     19  C   UNL     1       2.900   2.953  19.617  0.00  0.00    +0.000 A 
ATOM     20  C   UNL     1       3.403   3.771  18.602  0.00  0.00    +0.000 A 
ATOM     21  C   UNL     1       3.162   5.151  18.594  0.00  0.00    +0.000 A 
ATOM     22  C   UNL     1       2.544   5.735  19.720  0.00  0.00    +0.000 A 
ATOM     23  C   UNL     1       2.009   4.897  20.715  0.00  0.00    +0.000 A 
BRANCH  21  24
ATOM     24  O   UNL     1       3.674   5.783  17.482  0.00  0.00    +0.000 OA
BRANCH  24  25
ATOM     25  C   UNL     1       4.898   5.255  16.974  0.00  0.00    +0.000 C 
BRANCH  25  26
ATOM     26  C   UNL     1       6.168   5.858  17.529  0.00  0.00    +0.000 A 
ATOM     27  C   UNL     1       6.901   5.293  18.575  0.00  0.00    +0.000 A 
ATOM     28  C   UNL     1       7.967   5.999  19.138  0.00  0.00    +0.000 A 
ATOM     29  C   UNL     1       8.313   7.265  18.660  0.00  0.00    +0.000 A 
ATOM     30  C   UNL     1       7.615   7.817  17.591  0.00  0.00    +0.000 A 
ATOM     31  C   UNL     1       6.556   7.115  17.027  0.00  0.00    +0.000 A 
ENDBRANCH  25  26
ENDBRANCH  24  25
ENDBRANCH  21  24
ENDBRANCH   1  22
TORSDOF 5
ENDMDL
MODEL 2
REMARK VINA RESULT:      -8.6      1.254      1.995
REMARK  Name = 
REMARK  6 active torsions:
REMARK  status: ('A' for Active; 'I' for Inactive)
REMARK    1  A    between atoms: C_1  and  C_2
REMARK    2  A    between atoms: C_5  and  O_6
REMARK    3  A    between atoms: O_6  and  C_7
REMARK    4  A    between atoms: C_7  and  C_8
REMARK    5  A    between atoms: C_14  and  N_15
REMARK    6  A    between atoms: C_16  and  C_18
REMARK                            x       y       z     vdW  Elec       q    Type
REMARK                         _______ _______ _______ _____ _____    ______ ____
ROOT
ATOM      1  N   UNL     1       2.718   6.986  19.749  0.00  0.00    +0.000 N 
ATOM      2  C   UNL     1       2.165   7.856  18.816  0.00  0.00    +0.000 C 
ATOM      3  O   UNL     1       1.799   7.551  17.687  0.00  0.00    +0.000 OA
ATOM      4  H   UNL     1       2.648   7.320  20.688  0.00  0.00    +0.000 HD
ENDROOT
BRANCH   2   5
ATOM      5  C   UNL     1       1.989   9.263  19.395  0.00  0.00    +0.000 C 
ATOM      6  C   UNL     1       1.749  10.240  18.250  0.00  0.00    +0.000 C 
ATOM      7  C   UNL     1       1.559  11.643  18.763  0.00  0.00    +0.000 C 
ATOM      8  O   UNL     1       1.870  12.629  18.103  0.00  0.00    +0.000 OA
ATOM      9  N   UNL     1       0.932  11.788  19.967  0.00  0.00    +0.000 N 
ATOM     10  C   UNL     1       0.524  10.728  20.784  0.00  0.00    +0.000 A 
ATOM     11  C   UNL     1      -0.265  10.993  21.902  0.00  0.00    +0.000 A 
ATOM     12  C   UNL     1      -0.708   9.943  22.703  0.00  0.00    +0.000 A 
ATOM     13  C   UNL     1      -0.371   8.631  22.366  0.00  0.00    +0.000 A 
ATOM     14  C   UNL     1       0.445   8.367  21.261  0.00  0.00    +0.000 A 
ATOM     15  C   UNL     1       0.930   9.416  20.470  0.00  0.00    +0.000 A 
ATOM     16  H   UNL     1       0.699  12.740  20.228  0.00  0.00    +0.000 HD
ENDBRANCH   2   5
BRANCH   1  22
ATOM     17  C   UNL     1       0.711   2.553  18.877  0.00  0.00    +0.000 C 
ATOM     18  C   UNL     1       1.911   3.395  19.201  0.00  0.00    +0.000 A 
ATOM     19  C   UNL     1       3.161   2.811  19.401  0.00  0.00    +0.000 A 
ATOM     20  C   UNL     1       4.289   3.616  19.580  0.00  0.00    +0.000 A 
ATOM     21  C   UNL     1       4.192   5.014  19.574  0.00  0.00    +0.000 A 
ATOM     22  C   UNL     1       2.911   5.602  19.553  0.00  0.00    +0.000 A 
ATOM     23  C   UNL     1       1.788   4.784  19.333  0.00  0.00    +0.000 A 
BRANCH  21  24
ATOM     24  O   UNL     1       5.414   5.640  19.694  0.00  0.00    +0.000 OA
BRANCH  24  25
ATOM     25  C   UNL     1       6.456   5.141  18.857  0.00  0.00    +0.000 C 
BRANCH  25  26
ATOM     26  C   UNL     1       6.253   5.304  17.368  0.00  0.00    +0.000 A 
ATOM     27  C   UNL     1       5.459   6.302  16.799  0.00  0.00    +0.000 A 
ATOM     28  C   UNL     1       5.190   6.281  15.429  0.00  0.00    +0.000 A 
ATOM     29  C   UNL     1       5.714   5.272  14.617  0.00  0.00    +0.000 A 
ATOM     30  C   UNL     1       6.541   4.297  15.169  0.00  0.00    +0.000 A 
ATOM     31  C   UNL     1       6.811   4.319  16.532  0.00  0.00    +0.000 A 
ENDBRANCH  25  26
ENDBRANCH  24  25
ENDBRANCH  21  24
ENDBRANCH   1  22
TORSDOF 5
ENDMDL
MODEL 3
REMARK VINA RESULT:      -8.5      1.282      1.984
REMARK  Name = 
REMARK  6 active torsions:
REMARK  status: ('A' for Active; 'I' for Inactive)
REMARK    1  A    between atoms: C_1  and  C_2
REMARK    2  A    between atoms: C_5  and  O_6
REMARK    3  A    between atoms: O_6  and  C_7
REMARK    4  A    between atoms: C_7  and  C_8
REMARK    5  A    between atoms: C_14  and  N_15
REMARK    6  A    between atoms: C_16  and  C_18
REMARK                            x       y       z     vdW  Elec       q    Type
REMARK                         _______ _______ _______ _____ _____    ______ ____
ROOT
ATOM      1  N   UNL     1       2.610   7.186  20.156  0.00  0.00    +0.000 N 
ATOM      2  C   UNL     1       2.026   7.962  19.161  0.00  0.00    +0.000 C 
ATOM      3  O   UNL     1       1.650   7.555  18.069  0.00  0.00    +0.000 OA
ATOM      4  H   UNL     1       2.546   7.597  21.065  0.00  0.00    +0.000 HD
ENDROOT
BRANCH   2   5
ATOM      5  C   UNL     1       1.829   9.409  19.622  0.00  0.00    +0.000 C 
ATOM      6  C   UNL     1       1.554  10.281  18.401  0.00  0.00    +0.000 C 
ATOM      7  C   UNL     1       1.342  11.718  18.796  0.00  0.00    +0.000 C 
ATOM      8  O   UNL     1       1.624  12.650  18.049  0.00  0.00    +0.000 OA
ATOM      9  N   UNL     1       0.728  11.953  19.992  0.00  0.00    +0.000 N 
ATOM     10  C   UNL     1       0.353  10.959  20.903  0.00  0.00    +0.000 A 
ATOM     11  C   UNL     1      -0.426  11.304  22.006  0.00  0.00    +0.000 A 
ATOM     12  C   UNL     1      -0.837  10.318  22.900  0.00  0.00    +0.000 A 
ATOM     13  C   UNL     1      -0.477   8.988  22.671  0.00  0.00    +0.000 A 
ATOM     14  C   UNL     1       0.329   8.646  21.580  0.00  0.00    +0.000 A 
ATOM     15  C   UNL     1       0.781   9.634  20.696  0.00  0.00    +0.000 A 
ATOM     16  H   UNL     1       0.480  12.919  20.175  0.00  0.00    +0.000 HD
ENDBRANCH   2   5
BRANCH   1  22
ATOM     17  C   UNL     1       1.242   2.637  21.530  0.00  0.00    +0.000 C 
ATOM     18  C   UNL     1       2.202   3.546  20.819  0.00  0.00    +0.000 A 
ATOM     19  C   UNL     1       3.333   3.036  20.182  0.00  0.00    +0.000 A 
ATOM     20  C   UNL     1       4.149   3.877  19.422  0.00  0.00    +0.000 A 
ATOM     21  C   UNL     1       3.862   5.242  19.291  0.00  0.00    +0.000 A 
ATOM     22  C   UNL     1       2.829   5.794  20.076  0.00  0.00    +0.000 A 
ATOM     23  C   UNL     1       1.991   4.931  20.805  0.00  0.00    +0.000 A 
BRANCH  21  24
ATOM     24  O   UNL     1       4.735   5.898  18.449  0.00  0.00    +0.000 OA
BRANCH  24  25
ATOM     25  C   UNL     1       5.861   5.143  18.006  0.00  0.00    +0.000 C 
BRANCH  25  26
ATOM     26  C   UNL     1       5.959   4.899  16.518  0.00  0.00    +0.000 A 
ATOM     27  C   UNL     1       5.019   4.168  15.789  0.00  0.00    +0.000 A 
ATOM     28  C   UNL     1       5.271   3.848  14.453  0.00  0.00    +0.000 A 
ATOM     29  C   UNL     1       6.454   4.260  13.834  0.00  0.00    +0.000 A 
ATOM     30  C   UNL     1       7.376   5.025  14.541  0.00  0.00    +0.000 A 
ATOM     31  C   UNL     1       7.126   5.346  15.870  0.00  0.00    +0.000 A 
ENDBRANCH  25  26
ENDBRANCH  24  25
ENDBRANCH  21  24
ENDBRANCH   1  22
TORSDOF 5
ENDMDL
MODEL 4
REMARK VINA RESULT:      -8.4      2.214      7.110
REMARK  Name = 
REMARK  6 active torsions:
REMARK  status: ('A' for Active; 'I' for Inactive)
REMARK    1  A    between atoms: C_1  and  C_2
REMARK    2  A    between atoms: C_5  and  O_6
REMARK    3  A    between atoms: O_6  and  C_7
REMARK    4  A    between atoms: C_7  and  C_8
REMARK    5  A    between atoms: C_14  and  N_15
REMARK    6  A    between atoms: C_16  and  C_18
REMARK                            x       y       z     vdW  Elec       q    Type
REMARK                         _______ _______ _______ _____ _____    ______ ____
ROOT
ATOM      1  N   UNL     1       3.458   7.034  19.228  0.00  0.00    +0.000 N 
ATOM      2  C   UNL     1       3.943   7.077  17.926  0.00  0.00    +0.000 C 
ATOM      3  O   UNL     1       3.364   7.570  16.966  0.00  0.00    +0.000 OA
ATOM      4  H   UNL     1       4.175   6.902  19.912  0.00  0.00    +0.000 HD
ENDROOT
BRANCH   2   5
ATOM      5  C   UNL     1       5.354   6.488  17.834  0.00  0.00    +0.000 C 
ATOM      6  C   UNL     1       5.712   5.855  19.174  0.00  0.00    +0.000 C 
ATOM      7  C   UNL     1       7.090   5.250  19.138  0.00  0.00    +0.000 C 
ATOM      8  O   UNL     1       7.794   5.167  20.140  0.00  0.00    +0.000 OA
ATOM      9  N   UNL     1       7.500   4.700  17.958  0.00  0.00    +0.000 N 
ATOM     10  C   UNL     1       6.763   4.726  16.769  0.00  0.00    +0.000 A 
ATOM     11  C   UNL     1       7.202   3.979  15.678  0.00  0.00    +0.000 A 
ATOM     12  C   UNL     1       6.458   3.968  14.501  0.00  0.00    +0.000 A 
ATOM     13  C   UNL     1       5.268   4.695  14.432  0.00  0.00    +0.000 A 
ATOM     14  C   UNL     1       4.843   5.469  15.517  0.00  0.00    +0.000 A 
ATOM     15  C   UNL     1       5.602   5.519  16.693  0.00  0.00    +0.000 A 
ATOM     16  H   UNL     1       8.373   4.185  17.995  0.00  0.00    +0.000 HD
ENDBRANCH   2   5
BRANCH   1  22
ATOM     17  C   UNL     1       0.182  10.724  18.907  0.00  0.00    +0.000 C 
ATOM     18  C   UNL     1       0.649   9.454  19.557  0.00  0.00    +0.000 A 
ATOM     19  C   UNL     1      -0.057   8.893  20.620  0.00  0.00    +0.000 A 
ATOM     20  C   UNL     1       0.319   7.650  21.134  0.00  0.00    +0.000 A 
ATOM     21  C   UNL     1       1.410   6.946  20.605  0.00  0.00    +0.000 A 
ATOM     22  C   UNL     1       2.232   7.588  19.656  0.00  0.00    +0.000 A 
ATOM     23  C   UNL     1       1.820   8.822  19.120  0.00  0.00    +0.000 A 
BRANCH  21  24
ATOM     24  O   UNL     1       1.589   5.710  21.188  0.00  0.00    +0.000 OA
BRANCH  24  25
ATOM     25  C   UNL     1       1.010   4.605  20.496  0.00  0.00    +0.000 C 
BRANCH  25  26
ATOM     26  C   UNL     1       1.935   3.825  19.590  0.00  0.00    +0.000 A 
ATOM     27  C   UNL     1       3.061   3.135  20.041  0.00  0.00    +0.000 A 
ATOM     28  C   UNL     1       3.953   2.581  19.120  0.00  0.00    +0.000 A 
ATOM     29  C   UNL     1       3.726   2.705  17.747  0.00  0.00    +0.000 A 
ATOM     30  C   UNL     1       2.583   3.355  17.289  0.00  0.00    +0.000 A 
ATOM     31  C   UNL     1       1.694   3.904  18.205  0.00  0.00    +0.000 A 
ENDBRANCH  25  26
ENDBRANCH  24  25
ENDBRANCH  21  24
ENDBRANCH   1  22
TORSDOF 5
ENDMDL
MODEL 5
REMARK VINA RESULT:      -8.4      2.984      8.250
REMARK  Name = 
REMARK  6 active torsions:
REMARK  status: ('A' for Active; 'I' for Inactive)
REMARK    1  A    between atoms: C_1  and  C_2
REMARK    2  A    between atoms: C_5  and  O_6
REMARK    3  A    between atoms: O_6  and  C_7
REMARK    4  A    between atoms: C_7  and  C_8
REMARK    5  A    between atoms: C_14  and  N_15
REMARK    6  A    between atoms: C_16  and  C_18
REMARK                            x       y       z     vdW  Elec       q    Type
REMARK                         _______ _______ _______ _____ _____    ______ ____
ROOT
ATOM      1  N   UNL     1       2.034   8.964  17.971  0.00  0.00    +0.000 N 
ATOM      2  C   UNL     1       2.232   7.934  18.883  0.00  0.00    +0.000 C 
ATOM      3  O   UNL     1       2.122   8.029  20.100  0.00  0.00    +0.000 OA
ATOM      4  H   UNL     1       1.845   8.639  17.045  0.00  0.00    +0.000 HD
ENDROOT
BRANCH   2   5
ATOM      5  C   UNL     1       2.538   6.610  18.177  0.00  0.00    +0.000 C 
ATOM      6  C   UNL     1       3.961   6.661  17.630  0.00  0.00    +0.000 C 
ATOM      7  C   UNL     1       4.321   5.378  16.931  0.00  0.00    +0.000 C 
ATOM      8  O   UNL     1       5.123   5.341  16.003  0.00  0.00    +0.000 OA
ATOM      9  N   UNL     1       3.792   4.224  17.433  0.00  0.00    +0.000 N 
ATOM     10  C   UNL     1       2.886   4.161  18.498  0.00  0.00    +0.000 A 
ATOM     11  C   UNL     1       2.554   2.920  19.037  0.00  0.00    +0.000 A 
ATOM     12  C   UNL     1       1.682   2.846  20.121  0.00  0.00    +0.000 A 
ATOM     13  C   UNL     1       1.161   4.021  20.666  0.00  0.00    +0.000 A 
ATOM     14  C   UNL     1       1.471   5.265  20.105  0.00  0.00    +0.000 A 
ATOM     15  C   UNL     1       2.316   5.349  18.992  0.00  0.00    +0.000 A 
ATOM     16  H   UNL     1       4.151   3.365  17.030  0.00  0.00    +0.000 HD
ENDBRANCH   2   5
BRANCH   1  22
ATOM     17  C   UNL     1       3.175  13.772  18.149  0.00  0.00    +0.000 C 
ATOM     18  C   UNL     1       2.232  12.647  18.466  0.00  0.00    +0.000 A 
ATOM     19  C   UNL     1       1.046  12.883  19.160  0.00  0.00    +0.000 A 
ATOM     20  C   UNL     1       0.123  11.850  19.340  0.00  0.00    +0.000 A 
ATOM     21  C   UNL     1       0.368  10.563  18.843  0.00  0.00    +0.000 A 
ATOM     22  C   UNL     1       1.639  10.277  18.303  0.00  0.00    +0.000 A 
ATOM     23  C   UNL     1       2.543  11.334  18.092  0.00  0.00    +0.000 A 
BRANCH  21  24
ATOM     24  O   UNL     1      -0.682   9.694  19.054  0.00  0.00    +0.000 OA
BRANCH  24  25
ATOM     25  C   UNL     1      -1.984  10.278  19.054  0.00  0.00    +0.000 C 
BRANCH  25  26
ATOM     26  C   UNL     1      -2.691  10.335  17.719  0.00  0.00    +0.000 A 
ATOM     27  C   UNL     1      -2.211   9.722  16.561  0.00  0.00    +0.000 A 
ATOM     28  C   UNL     1      -2.835   9.963  15.335  0.00  0.00    +0.000 A 
ATOM     29  C   UNL     1      -3.944  10.810  15.257  0.00  0.00    +0.000 A 
ATOM     30  C   UNL     1      -4.455  11.392  16.413  0.00  0.00    +0.000 A 
ATOM     31  C   UNL     1      -3.836  11.150  17.634  0.00  0.00    +0.000 A 
ENDBRANCH  25  26
ENDBRANCH  24  25
ENDBRANCH  21  24
ENDBRANCH   1  22
TORSDOF 5
ENDMDL
MODEL 6
REMARK VINA RESULT:      -8.4      1.554      2.266
REMARK  Name = 
REMARK  6 active torsions:
REMARK  status: ('A' for Active; 'I' for Inactive)
REMARK    1  A    between atoms: C_1  and  C_2
REMARK    2  A    between atoms: C_5  and  O_6
REMARK    3  A    between atoms: O_6  and  C_7
REMARK    4  A    between atoms: C_7  and  C_8
REMARK    5  A    between atoms: C_14  and  N_15
REMARK    6  A    between atoms: C_16  and  C_18
REMARK                            x       y       z     vdW  Elec       q    Type
REMARK                         _______ _______ _______ _____ _____    ______ ____
ROOT
ATOM      1  N   UNL     1       2.655   6.632  19.344  0.00  0.00    +0.000 N 
ATOM      2  C   UNL     1       1.839   7.220  20.305  0.00  0.00    +0.000 C 
ATOM      3  O   UNL     1       1.251   6.625  21.200  0.00  0.00    +0.000 OA
ATOM      4  H   UNL     1       3.291   7.276  18.920  0.00  0.00    +0.000 HD
ENDROOT
BRANCH   2   5
ATOM      5  C   UNL     1       1.815   8.744  20.163  0.00  0.00    +0.000 C 
ATOM      6  C   UNL     1       1.687   9.099  18.686  0.00  0.00    +0.000 C 
ATOM      7  C   UNL     1       1.648  10.591  18.487  0.00  0.00    +0.000 C 
ATOM      8  O   UNL     1       2.067  11.126  17.464  0.00  0.00    +0.000 OA
ATOM      9  N   UNL     1       1.035  11.335  19.453  0.00  0.00    +0.000 N 
ATOM     10  C   UNL     1       0.510  10.816  20.642  0.00  0.00    +0.000 A 
ATOM     11  C   UNL     1      -0.249  11.642  21.469  0.00  0.00    +0.000 A 
ATOM     12  C   UNL     1      -0.807  11.128  22.637  0.00  0.00    +0.000 A 
ATOM     13  C   UNL     1      -0.613   9.783  22.960  0.00  0.00    +0.000 A 
ATOM     14  C   UNL     1       0.174   8.963  22.146  0.00  0.00    +0.000 A 
ATOM     15  C   UNL     1       0.773   9.477  20.989  0.00  0.00    +0.000 A 
ATOM     16  H   UNL     1       0.906  12.316  19.235  0.00  0.00    +0.000 HD
ENDBRANCH   2   5
BRANCH   1  22
ATOM     17  C   UNL     1       1.071   2.012  18.573  0.00  0.00    +0.000 C 
ATOM     18  C   UNL     1       2.164   2.962  18.971  0.00  0.00    +0.000 A 
ATOM     19  C   UNL     1       3.417   2.489  19.356  0.00  0.00    +0.000 A 
ATOM     20  C   UNL     1       4.459   3.386  19.605  0.00  0.00    +0.000 A 
ATOM     21  C   UNL     1       4.269   4.769  19.485  0.00  0.00    +0.000 A 
ATOM     22  C   UNL     1       2.963   5.257  19.273  0.00  0.00    +0.000 A 
ATOM     23  C   UNL     1       1.932   4.343  18.986  0.00  0.00    +0.000 A 
BRANCH  21  24
ATOM     24  O   UNL     1       5.423   5.493  19.700  0.00  0.00    +0.000 OA
BRANCH  24  25
ATOM     25  C   UNL     1       6.518   5.189  18.838  0.00  0.00    +0.000 C 
BRANCH  25  26
ATOM     26  C   UNL     1       6.244   5.269  17.354  0.00  0.00    +0.000 A 
ATOM     27  C   UNL     1       5.570   6.330  16.747  0.00  0.00    +0.000 A 
ATOM     28  C   UNL     1       5.211   6.247  15.400  0.00  0.00    +0.000 A 
ATOM     29  C   UNL     1       5.527   5.112  14.649  0.00  0.00    +0.000 A 
ATOM     30  C   UNL     1       6.236   4.068  15.235  0.00  0.00    +0.000 A 
ATOM     31  C   UNL     1       6.596   4.151  16.575  0.00  0.00    +0.000 A 
ENDBRANCH  25  26
ENDBRANCH  24  25
ENDBRANCH  21  24
ENDBRANCH   1  22
TORSDOF 5
ENDMDL
MODEL 7
REMARK VINA RESULT:      -8.4      1.283      1.908
REMARK  Name = 
REMARK  6 active torsions:
REMARK  status: ('A' for Active; 'I' for Inactive)
REMARK    1  A    between atoms: C_1  and  C_2
REMARK    2  A    between atoms: C_5  and  O_6
REMARK    3  A    between atoms: O_6  and  C_7
REMARK    4  A    between atoms: C_7  and  C_8
REMARK    5  A    between atoms: C_14  and  N_15
REMARK    6  A    between atoms: C_16  and  C_18
REMARK                            x       y       z     vdW  Elec       q    Type
REMARK                         _______ _______ _______ _____ _____    ______ ____
ROOT
ATOM      1  N   UNL     1       2.441   7.451  20.115  0.00  0.00    +0.000 N 
ATOM      2  C   UNL     1       1.891   8.262  19.129  0.00  0.00    +0.000 C 
ATOM      3  O   UNL     1       1.581   7.900  18.000  0.00  0.00    +0.000 OA
ATOM      4  H   UNL     1       2.322   7.816  21.037  0.00  0.00    +0.000 HD
ENDROOT
BRANCH   2   5
ATOM      5  C   UNL     1       1.637   9.680  19.645  0.00  0.00    +0.000 C 
ATOM      6  C   UNL     1       1.250  10.571  18.470  0.00  0.00    +0.000 C 
ATOM      7  C   UNL     1       0.979  11.981  18.922  0.00  0.00    +0.000 C 
ATOM      8  O   UNL     1       1.168  12.950  18.193  0.00  0.00    +0.000 OA
ATOM      9  N   UNL     1       0.415  12.144  20.154  0.00  0.00    +0.000 N 
ATOM     10  C   UNL     1       0.144  11.103  21.049  0.00  0.00    +0.000 A 
ATOM     11  C   UNL     1      -0.595  11.369  22.200  0.00  0.00    +0.000 A 
ATOM     12  C   UNL     1      -0.903  10.334  23.080  0.00  0.00    +0.000 A 
ATOM     13  C   UNL     1      -0.481   9.035  22.790  0.00  0.00    +0.000 A 
ATOM     14  C   UNL     1       0.285   8.773  21.650  0.00  0.00    +0.000 A 
ATOM     15  C   UNL     1       0.635   9.811  20.777  0.00  0.00    +0.000 A 
ATOM     16  H   UNL     1       0.123  13.088  20.381  0.00  0.00    +0.000 HD
ENDBRANCH   2   5
BRANCH   1  22
ATOM     17  C   UNL     1       1.106   2.813  21.191  0.00  0.00    +0.000 C 
ATOM     18  C   UNL     1       2.082   3.776  20.579  0.00  0.00    +0.000 A 
ATOM     19  C   UNL     1       3.258   3.320  19.984  0.00  0.00    +0.000 A 
ATOM     20  C   UNL     1       4.095   4.214  19.312  0.00  0.00    +0.000 A 
ATOM     21  C   UNL     1       3.784   5.578  19.230  0.00  0.00    +0.000 A 
ATOM     22  C   UNL     1       2.696   6.069  19.980  0.00  0.00    +0.000 A 
ATOM     23  C   UNL     1       1.840   5.155  20.619  0.00  0.00    +0.000 A 
BRANCH  21  24
ATOM     24  O   UNL     1       4.686   6.292  18.471  0.00  0.00    +0.000 OA
BRANCH  24  25
ATOM     25  C   UNL     1       4.421   6.343  17.070  0.00  0.00    +0.000 C 
BRANCH  25  26
ATOM     26  C   UNL     1       5.357   5.555  16.183  0.00  0.00    +0.000 A 
ATOM     27  C   UNL     1       6.748   5.667  16.233  0.00  0.00    +0.000 A 
ATOM     28  C   UNL     1       7.532   5.031  15.267  0.00  0.00    +0.000 A 
ATOM     29  C   UNL     1       6.938   4.276  14.253  0.00  0.00    +0.000 A 
ATOM     30  C   UNL     1       5.555   4.125  14.221  0.00  0.00    +0.000 A 
ATOM     31  C   UNL     1       4.774   4.755  15.182  0.00  0.00    +0.000 A 
ENDBRANCH  25  26
ENDBRANCH  24  25
ENDBRANCH  21  24
ENDBRANCH   1  22
TORSDOF 5
ENDMDL
MODEL 8
REMARK VINA RESULT:      -8.4      1.357      1.442
REMARK  Name = 
REMARK  6 active torsions:
REMARK  status: ('A' for Active; 'I' for Inactive)
REMARK    1  A    between atoms: C_1  and  C_2
REMARK    2  A    between atoms: C_5  and  O_6
REMARK    3  A    between atoms: O_6  and  C_7
REMARK    4  A    between atoms: C_7  and  C_8
REMARK    5  A    between atoms: C_14  and  N_15
REMARK    6  A    between atoms: C_16  and  C_18
REMARK                            x       y       z     vdW  Elec       q    Type
REMARK                         _______ _______ _______ _____ _____    ______ ____
ROOT
ATOM      1  N   UNL     1       2.170   6.458  18.480  0.00  0.00    +0.000 N 
ATOM      2  C   UNL     1       2.036   6.953  19.772  0.00  0.00    +0.000 C 
ATOM      3  O   UNL     1       2.017   6.278  20.794  0.00  0.00    +0.000 OA
ATOM      4  H   UNL     1       2.489   7.144  17.826  0.00  0.00    +0.000 HD
ENDROOT
BRANCH   2   5
ATOM      5  C   UNL     1       1.987   8.483  19.785  0.00  0.00    +0.000 C 
ATOM      6  C   UNL     1       1.873   8.984  18.349  0.00  0.00    +0.000 C 
ATOM      7  C   UNL     1       1.811  10.488  18.301  0.00  0.00    +0.000 C 
ATOM      8  O   UNL     1       2.235  11.130  17.344  0.00  0.00    +0.000 OA
ATOM      9  N   UNL     1       1.173  11.120  19.328  0.00  0.00    +0.000 N 
ATOM     10  C   UNL     1       0.641  10.475  20.451  0.00  0.00    +0.000 A 
ATOM     11  C   UNL     1      -0.144  11.201  21.345  0.00  0.00    +0.000 A 
ATOM     12  C   UNL     1      -0.708  10.563  22.447  0.00  0.00    +0.000 A 
ATOM     13  C   UNL     1      -0.495   9.196  22.635  0.00  0.00    +0.000 A 
ATOM     14  C   UNL     1       0.317   8.474  21.754  0.00  0.00    +0.000 A 
ATOM     15  C   UNL     1       0.922   9.112  20.664  0.00  0.00    +0.000 A 
ATOM     16  H   UNL     1       1.030  12.116  19.209  0.00  0.00    +0.000 HD
ENDBRANCH   2   5
BRANCH   1  22
ATOM     17  C   UNL     1       0.607   1.791  18.947  0.00  0.00    +0.000 C 
ATOM     18  C   UNL     1       1.619   2.778  18.441  0.00  0.00    +0.000 A 
ATOM     19  C   UNL     1       2.750   2.351  17.747  0.00  0.00    +0.000 A 
ATOM     20  C   UNL     1       3.617   3.286  17.176  0.00  0.00    +0.000 A 
ATOM     21  C   UNL     1       3.380   4.662  17.295  0.00  0.00    +0.000 A 
ATOM     22  C   UNL     1       2.343   5.098  18.146  0.00  0.00    +0.000 A 
ATOM     23  C   UNL     1       1.455   4.148  18.681  0.00  0.00    +0.000 A 
BRANCH  21  24
ATOM     24  O   UNL     1       4.300   5.429  16.612  0.00  0.00    +0.000 OA
BRANCH  24  25
ATOM     25  C   UNL     1       5.627   4.910  16.558  0.00  0.00    +0.000 C 
BRANCH  25  26
ATOM     26  C   UNL     1       6.678   5.680  17.325  0.00  0.00    +0.000 A 
ATOM     27  C   UNL     1       7.299   5.203  18.480  0.00  0.00    +0.000 A 
ATOM     28  C   UNL     1       8.134   6.044  19.219  0.00  0.00    +0.000 A 
ATOM     29  C   UNL     1       8.359   7.361  18.810  0.00  0.00    +0.000 A 
ATOM     30  C   UNL     1       7.777   7.831  17.637  0.00  0.00    +0.000 A 
ATOM     31  C   UNL     1       6.949   6.994  16.899  0.00  0.00    +0.000 A 
ENDBRANCH  25  26
ENDBRANCH  24  25
ENDBRANCH  21  24
ENDBRANCH   1  22
TORSDOF 5
ENDMDL
MODEL 9
REMARK VINA RESULT:      -8.3      2.244      2.862
REMARK  Name = 
REMARK  6 active torsions:
REMARK  status: ('A' for Active; 'I' for Inactive)
REMARK    1  A    between atoms: C_1  and  C_2
REMARK    2  A    between atoms: C_5  and  O_6
REMARK    3  A    between atoms: O_6  and  C_7
REMARK    4  A    between atoms: C_7  and  C_8
REMARK    5  A    between atoms: C_14  and  N_15
REMARK    6  A    between atoms: C_16  and  C_18
REMARK                            x       y       z     vdW  Elec       q    Type
REMARK                         _______ _______ _______ _____ _____    ______ ____
ROOT
ATOM      1  N   UNL     1       2.358   6.488  18.410  0.00  0.00    +0.000 N 
ATOM      2  C   UNL     1       2.008   6.977  19.664  0.00  0.00    +0.000 C 
ATOM      3  O   UNL     1       1.777   6.294  20.655  0.00  0.00    +0.000 OA
ATOM      4  H   UNL     1       2.816   7.167  17.837  0.00  0.00    +0.000 HD
ENDROOT
BRANCH   2   5
ATOM      5  C   UNL     1       2.013   8.507  19.691  0.00  0.00    +0.000 C 
ATOM      6  C   UNL     1       1.922   9.026  18.260  0.00  0.00    +0.000 C 
ATOM      7  C   UNL     1       1.914  10.531  18.227  0.00  0.00    +0.000 C 
ATOM      8  O   UNL     1       2.363  11.167  17.278  0.00  0.00    +0.000 OA
ATOM      9  N   UNL     1       1.295  11.175  19.258  0.00  0.00    +0.000 N 
ATOM     10  C   UNL     1       0.737  10.539  20.373  0.00  0.00    +0.000 A 
ATOM     11  C   UNL     1      -0.025  11.283  21.272  0.00  0.00    +0.000 A 
ATOM     12  C   UNL     1      -0.616  10.655  22.366  0.00  0.00    +0.000 A 
ATOM     13  C   UNL     1      -0.452   9.280  22.541  0.00  0.00    +0.000 A 
ATOM     14  C   UNL     1       0.337   8.538  21.656  0.00  0.00    +0.000 A 
ATOM     15  C   UNL     1       0.968   9.165  20.574  0.00  0.00    +0.000 A 
ATOM     16  H   UNL     1       1.187  12.178  19.148  0.00  0.00    +0.000 HD
ENDBRANCH   2   5
BRANCH   1  22
ATOM     17  C   UNL     1       0.732   1.835  18.801  0.00  0.00    +0.000 C 
ATOM     18  C   UNL     1       1.780   2.812  18.352  0.00  0.00    +0.000 A 
ATOM     19  C   UNL     1       2.947   2.373  17.728  0.00  0.00    +0.000 A 
ATOM     20  C   UNL     1       3.855   3.299  17.207  0.00  0.00    +0.000 A 
ATOM     21  C   UNL     1       3.623   4.677  17.307  0.00  0.00    +0.000 A 
ATOM     22  C   UNL     1       2.540   5.126  18.092  0.00  0.00    +0.000 A 
ATOM     23  C   UNL     1       1.614   4.185  18.577  0.00  0.00    +0.000 A 
BRANCH  21  24
ATOM     24  O   UNL     1       4.587   5.434  16.676  0.00  0.00    +0.000 OA
BRANCH  24  25
ATOM     25  C   UNL     1       5.797   4.753  16.347  0.00  0.00    +0.000 C 
BRANCH  25  26
ATOM     26  C   UNL     1       6.105   4.613  14.874  0.00  0.00    +0.000 A 
ATOM     27  C   UNL     1       5.374   3.803  14.003  0.00  0.00    +0.000 A 
ATOM     28  C   UNL     1       5.826   3.600  12.697  0.00  0.00    +0.000 A 
ATOM     29  C   UNL     1       7.002   4.207  12.249  0.00  0.00    +0.000 A 
ATOM     30  C   UNL     1       7.714   5.050  13.097  0.00  0.00    +0.000 A 
ATOM     31  C   UNL     1       7.264   5.255  14.396  0.00  0.00    +0.000 A 
ENDBRANCH  25  26
ENDBRANCH  24  25
ENDBRANCH  21  24
ENDBRANCH   1  22
TORSDOF 5
ENDMDL
