MODEL 1
REMARK VINA RESULT:      -8.8      0.000      0.000
REMARK  Name = 
REMARK  2 active torsions:
REMARK  status: ('A' for Active; 'I' for Inactive)
REMARK    1  A    between atoms: C_2  and  C_3
REMARK    2  A    between atoms: N_5  and  C_6
REMARK                            x       y       z     vdW  Elec       q    Type
REMARK                         _______ _______ _______ _____ _____    ______ ____
ROOT
ATOM      1  C   UNL     1       2.588   5.758  18.983  0.00  0.00    +0.000 A 
ATOM      2  N   UNL     1       3.621   6.039  18.153  0.00  0.00    +0.000 NA
ATOM      3  N   UNL     1       3.868   4.905  17.433  0.00  0.00    +0.000 N 
ATOM      4  C   UNL     1       2.969   3.942  17.778  0.00  0.00    +0.000 A 
ATOM      5  C   UNL     1       2.136   4.457  18.729  0.00  0.00    +0.000 A 
ATOM      6  C   UNL     1       1.160   3.462  19.206  0.00  0.00    +0.000 C 
ATOM      7  C   UNL     1       1.777   2.133  18.652  0.00  0.00    +0.000 C 
ATOM      8  C   UNL     1       2.731   2.522  17.475  0.00  0.00    +0.000 C 
ENDROOT
BRANCH   1  10
ATOM      9  O   UNL     1       1.991   6.364  21.171  0.00  0.00    +0.000 OA
ATOM     10  C   UNL     1       2.056   6.706  19.991  0.00  0.00    +0.000 C 
ATOM     11  N   UNL     1       1.710   7.979  19.532  0.00  0.00    +0.000 N 
ATOM     12  C   UNL     1       1.936   8.505  18.173  0.00  0.00    +0.000 C 
ATOM     13  C   UNL     1       1.653  10.007  18.201  0.00  0.00    +0.000 C 
ATOM     14  C   UNL     1       0.983  10.161  19.526  0.00  0.00    +0.000 A 
ATOM     15  C   UNL     1       0.372  11.300  20.024  0.00  0.00    +0.000 A 
ATOM     16  C   UNL     1      -0.153  11.255  21.314  0.00  0.00    +0.000 A 
ATOM     17  C   UNL     1      -0.051  10.085  22.083  0.00  0.00    +0.000 A 
ATOM     18  C   UNL     1       0.573   8.942  21.570  0.00  0.00    +0.000 A 
ATOM     19  C   UNL     1       1.081   8.990  20.284  0.00  0.00    +0.000 A 
ENDBRANCH   1  10
BRANCH   3  20
ATOM     20  C   UNL     1       4.969   4.849  16.532  0.00  0.00    +0.000 A 
ATOM     21  C   UNL     1       4.770   4.379  15.222  0.00  0.00    +0.000 A 
ATOM     22  C   UNL     1       5.830   4.369  14.311  0.00  0.00    +0.000 A 
ATOM     23  C   UNL     1       7.082   4.820  14.708  0.00  0.00    +0.000 A 
ATOM     24  F   UNL     1       8.095   4.823  13.832  0.00  0.00    +0.000 F 
ATOM     25  C   UNL     1       7.300   5.269  16.003  0.00  0.00    +0.000 A 
ATOM     26  C   UNL     1       6.246   5.277  16.920  0.00  0.00    +0.000 A 
ENDBRANCH   3  20
TORSDOF 2
ENDMDL
MODEL 2
REMARK VINA RESULT:      -8.5      1.096      1.249
REMARK  Name = 
REMARK  2 active torsions:
REMARK  status: ('A' for Active; 'I' for Inactive)
REMARK    1  A    between atoms: C_2  and  C_3
REMARK    2  A    between atoms: N_5  and  C_6
REMARK                            x       y       z     vdW  Elec       q    Type
REMARK                         _______ _______ _______ _____ _____    ______ ____
ROOT
ATOM      1  C   UNL     1       2.343   6.450  19.652  0.00  0.00    +0.000 A 
ATOM      2  N   UNL     1       3.269   6.588  18.673  0.00  0.00    +0.000 NA
ATOM      3  N   UNL     1       3.719   5.333  18.377  0.00  0.00    +0.000 N 
ATOM      4  C   UNL     1       3.047   4.419  19.131  0.00  0.00    +0.000 A 
ATOM      5  C   UNL     1       2.158   5.088  19.920  0.00  0.00    +0.000 A 
ATOM      6  C   UNL     1       1.420   4.180  20.816  0.00  0.00    +0.000 C 
ATOM      7  C   UNL     1       2.277   2.873  20.704  0.00  0.00    +0.000 C 
ATOM      8  C   UNL     1       3.094   2.968  19.373  0.00  0.00    +0.000 C 
ENDROOT
BRANCH   1  10
ATOM      9  O   UNL     1       1.337   7.501  21.494  0.00  0.00    +0.000 OA
ATOM     10  C   UNL     1       1.662   7.590  20.311  0.00  0.00    +0.000 C 
ATOM     11  N   UNL     1       1.482   8.742  19.541  0.00  0.00    +0.000 N 
ATOM     12  C   UNL     1       2.010   8.972  18.184  0.00  0.00    +0.000 C 
ATOM     13  C   UNL     1       1.802  10.450  17.848  0.00  0.00    +0.000 C 
ATOM     14  C   UNL     1       0.881  10.879  18.941  0.00  0.00    +0.000 A 
ATOM     15  C   UNL     1       0.238  12.100  19.057  0.00  0.00    +0.000 A 
ATOM     16  C   UNL     1      -0.546  12.327  20.187  0.00  0.00    +0.000 A 
ATOM     17  C   UNL     1      -0.663  11.342  21.180  0.00  0.00    +0.000 A 
ATOM     18  C   UNL     1      -0.004  10.113  21.053  0.00  0.00    +0.000 A 
ATOM     19  C   UNL     1       0.761   9.891  19.922  0.00  0.00    +0.000 A 
ENDBRANCH   1  10
BRANCH   3  20
ATOM     20  C   UNL     1       4.779   5.149  17.445  0.00  0.00    +0.000 A 
ATOM     21  C   UNL     1       4.636   4.209  16.409  0.00  0.00    +0.000 A 
ATOM     22  C   UNL     1       5.646   4.056  15.454  0.00  0.00    +0.000 A 
ATOM     23  C   UNL     1       6.795   4.833  15.538  0.00  0.00    +0.000 A 
ATOM     24  F   UNL     1       7.757   4.696  14.618  0.00  0.00    +0.000 F 
ATOM     25  C   UNL     1       6.960   5.750  16.567  0.00  0.00    +0.000 A 
ATOM     26  C   UNL     1       5.957   5.905  17.526  0.00  0.00    +0.000 A 
ENDBRANCH   3  20
TORSDOF 2
ENDMDL
MODEL 3
REMARK VINA RESULT:      -8.0      4.527      7.530
REMARK  Name = 
REMARK  2 active torsions:
REMARK  status: ('A' for Active; 'I' for Inactive)
REMARK    1  A    between atoms: C_2  and  C_3
REMARK    2  A    between atoms: N_5  and  C_6
REMARK                            x       y       z     vdW  Elec       q    Type
REMARK                         _______ _______ _______ _____ _____    ______ ____
ROOT
ATOM      1  C   UNL     1      -1.045  11.785  19.706  0.00  0.00    +0.000 A 
ATOM      2  N   UNL     1      -0.630  10.496  19.751  0.00  0.00    +0.000 NA
ATOM      3  N   UNL     1       0.674  10.487  19.344  0.00  0.00    +0.000 N 
ATOM      4  C   UNL     1       1.081  11.762  19.093  0.00  0.00    +0.000 A 
ATOM      5  C   UNL     1       0.033  12.601  19.338  0.00  0.00    +0.000 A 
ATOM      6  C   UNL     1       0.365  14.004  19.038  0.00  0.00    +0.000 C 
ATOM      7  C   UNL     1       1.685  13.839  18.210  0.00  0.00    +0.000 C 
ATOM      8  C   UNL     1       2.277  12.434  18.560  0.00  0.00    +0.000 C 
ENDROOT
BRANCH   1  10
ATOM      9  O   UNL     1      -2.670  12.816  21.050  0.00  0.00    +0.000 OA
ATOM     10  C   UNL     1      -2.431  12.217  20.002  0.00  0.00    +0.000 C 
ATOM     11  N   UNL     1      -3.390  11.962  19.019  0.00  0.00    +0.000 N 
ATOM     12  C   UNL     1      -3.132  11.416  17.673  0.00  0.00    +0.000 C 
ATOM     13  C   UNL     1      -4.418  11.560  16.858  0.00  0.00    +0.000 C 
ATOM     14  C   UNL     1      -5.409  11.903  17.920  0.00  0.00    +0.000 A 
ATOM     15  C   UNL     1      -6.783  12.005  17.775  0.00  0.00    +0.000 A 
ATOM     16  C   UNL     1      -7.535  12.390  18.884  0.00  0.00    +0.000 A 
ATOM     17  C   UNL     1      -6.905  12.676  20.106  0.00  0.00    +0.000 A 
ATOM     18  C   UNL     1      -5.515  12.573  20.238  0.00  0.00    +0.000 A 
ATOM     19  C   UNL     1      -4.777  12.177  19.136  0.00  0.00    +0.000 A 
ENDBRANCH   1  10
BRANCH   3  20
ATOM     20  C   UNL     1       1.372   9.256  19.190  0.00  0.00    +0.000 A 
ATOM     21  C   UNL     1       1.460   8.368  20.276  0.00  0.00    +0.000 A 
ATOM     22  C   UNL     1       2.096   7.132  20.124  0.00  0.00    +0.000 A 
ATOM     23  C   UNL     1       2.645   6.788  18.896  0.00  0.00    +0.000 A 
ATOM     24  F   UNL     1       3.243   5.600  18.745  0.00  0.00    +0.000 F 
ATOM     25  C   UNL     1       2.584   7.662  17.819  0.00  0.00    +0.000 A 
ATOM     26  C   UNL     1       1.955   8.900  17.966  0.00  0.00    +0.000 A 
ENDBRANCH   3  20
TORSDOF 2
ENDMDL
MODEL 4
REMARK VINA RESULT:      -7.9      4.284      9.137
REMARK  Name = 
REMARK  2 active torsions:
REMARK  status: ('A' for Active; 'I' for Inactive)
REMARK    1  A    between atoms: C_2  and  C_3
REMARK    2  A    between atoms: N_5  and  C_6
REMARK                            x       y       z     vdW  Elec       q    Type
REMARK                         _______ _______ _______ _____ _____    ______ ____
ROOT
ATOM      1  C   UNL     1       0.464  10.106  18.958  0.00  0.00    +0.000 A 
ATOM      2  N   UNL     1       0.511  10.745  20.151  0.00  0.00    +0.000 NA
ATOM      3  N   UNL     1      -0.679  11.400  20.294  0.00  0.00    +0.000 N 
ATOM      4  C   UNL     1      -1.476  11.135  19.222  0.00  0.00    +0.000 A 
ATOM      5  C   UNL     1      -0.796  10.304  18.380  0.00  0.00    +0.000 A 
ATOM      6  C   UNL     1      -1.563  10.005  17.158  0.00  0.00    +0.000 C 
ATOM      7  C   UNL     1      -2.684  11.098  17.223  0.00  0.00    +0.000 C 
ATOM      8  C   UNL     1      -2.787  11.568  18.711  0.00  0.00    +0.000 C 
ENDROOT
BRANCH   1  10
ATOM      9  O   UNL     1       2.238   9.804  17.450  0.00  0.00    +0.000 OA
ATOM     10  C   UNL     1       1.596   9.336  18.389  0.00  0.00    +0.000 C 
ATOM     11  N   UNL     1       1.903   8.123  19.011  0.00  0.00    +0.000 N 
ATOM     12  C   UNL     1       1.291   7.599  20.245  0.00  0.00    +0.000 C 
ATOM     13  C   UNL     1       2.114   6.391  20.697  0.00  0.00    +0.000 C 
ATOM     14  C   UNL     1       2.960   6.139  19.494  0.00  0.00    +0.000 A 
ATOM     15  C   UNL     1       3.805   5.062  19.281  0.00  0.00    +0.000 A 
ATOM     16  C   UNL     1       4.554   5.035  18.106  0.00  0.00    +0.000 A 
ATOM     17  C   UNL     1       4.457   6.083  17.177  0.00  0.00    +0.000 A 
ATOM     18  C   UNL     1       3.603   7.168  17.406  0.00  0.00    +0.000 A 
ATOM     19  C   UNL     1       2.852   7.181  18.568  0.00  0.00    +0.000 A 
ENDBRANCH   1  10
BRANCH   3  20
ATOM     20  C   UNL     1      -0.904  12.250  21.413  0.00  0.00    +0.000 A 
ATOM     21  C   UNL     1      -0.176  13.447  21.533  0.00  0.00    +0.000 A 
ATOM     22  C   UNL     1      -0.424  14.317  22.599  0.00  0.00    +0.000 A 
ATOM     23  C   UNL     1      -1.389  13.990  23.542  0.00  0.00    +0.000 A 
ATOM     24  F   UNL     1      -1.636  14.829  24.557  0.00  0.00    +0.000 F 
ATOM     25  C   UNL     1      -2.103  12.803  23.450  0.00  0.00    +0.000 A 
ATOM     26  C   UNL     1      -1.857  11.928  22.390  0.00  0.00    +0.000 A 
ENDBRANCH   3  20
TORSDOF 2
ENDMDL
MODEL 5
REMARK VINA RESULT:      -7.7      3.975      8.285
REMARK  Name = 
REMARK  2 active torsions:
REMARK  status: ('A' for Active; 'I' for Inactive)
REMARK    1  A    between atoms: C_2  and  C_3
REMARK    2  A    between atoms: N_5  and  C_6
REMARK                            x       y       z     vdW  Elec       q    Type
REMARK                         _______ _______ _______ _____ _____    ______ ____
ROOT
ATOM      1  C   UNL     1       1.219   8.912  19.112  0.00  0.00    +0.000 A 
ATOM      2  N   UNL     1       0.262   9.357  18.263  0.00  0.00    +0.000 NA
ATOM      3  N   UNL     1      -0.642  10.050  19.018  0.00  0.00    +0.000 N 
ATOM      4  C   UNL     1      -0.228  10.076  20.315  0.00  0.00    +0.000 A 
ATOM      5  C   UNL     1       0.950   9.393  20.400  0.00  0.00    +0.000 A 
ATOM      6  C   UNL     1       1.449   9.320  21.785  0.00  0.00    +0.000 C 
ATOM      7  C   UNL     1       0.180   9.757  22.592  0.00  0.00    +0.000 C 
ATOM      8  C   UNL     1      -0.746  10.547  21.609  0.00  0.00    +0.000 C 
ENDROOT
BRANCH   1  10
ATOM      9  O   UNL     1       3.200   8.488  17.928  0.00  0.00    +0.000 OA
ATOM     10  C   UNL     1       2.351   8.048  18.701  0.00  0.00    +0.000 C 
ATOM     11  N   UNL     1       2.412   6.778  19.280  0.00  0.00    +0.000 N 
ATOM     12  C   UNL     1       1.530   6.264  20.345  0.00  0.00    +0.000 C 
ATOM     13  C   UNL     1       2.127   4.949  20.849  0.00  0.00    +0.000 C 
ATOM     14  C   UNL     1       3.151   4.664  19.801  0.00  0.00    +0.000 A 
ATOM     15  C   UNL     1       3.905   3.510  19.666  0.00  0.00    +0.000 A 
ATOM     16  C   UNL     1       4.853   3.459  18.645  0.00  0.00    +0.000 A 
ATOM     17  C   UNL     1       5.037   4.556  17.790  0.00  0.00    +0.000 A 
ATOM     18  C   UNL     1       4.272   5.719  17.940  0.00  0.00    +0.000 A 
ATOM     19  C   UNL     1       3.324   5.757  18.948  0.00  0.00    +0.000 A 
ENDBRANCH   1  10
BRANCH   3  20
ATOM     20  C   UNL     1      -1.829  10.567  18.425  0.00  0.00    +0.000 A 
ATOM     21  C   UNL     1      -2.275  10.046  17.197  0.00  0.00    +0.000 A 
ATOM     22  C   UNL     1      -3.467  10.506  16.630  0.00  0.00    +0.000 A 
ATOM     23  C   UNL     1      -4.205  11.485  17.282  0.00  0.00    +0.000 A 
ATOM     24  F   UNL     1      -5.354  11.917  16.746  0.00  0.00    +0.000 F 
ATOM     25  C   UNL     1      -3.769  12.024  18.484  0.00  0.00    +0.000 A 
ATOM     26  C   UNL     1      -2.577  11.572  19.054  0.00  0.00    +0.000 A 
ENDBRANCH   3  20
TORSDOF 2
ENDMDL
MODEL 6
REMARK VINA RESULT:      -7.7      3.953      8.251
REMARK  Name = 
REMARK  2 active torsions:
REMARK  status: ('A' for Active; 'I' for Inactive)
REMARK    1  A    between atoms: C_2  and  C_3
REMARK    2  A    between atoms: N_5  and  C_6
REMARK                            x       y       z     vdW  Elec       q    Type
REMARK                         _______ _______ _______ _____ _____    ______ ____
ROOT
ATOM      1  C   UNL     1       1.477   8.964  18.530  0.00  0.00    +0.000 A 
ATOM      2  N   UNL     1       0.481   9.499  17.784  0.00  0.00    +0.000 NA
ATOM      3  N   UNL     1      -0.475   9.933  18.658  0.00  0.00    +0.000 N 
ATOM      4  C   UNL     1      -0.059   9.713  19.935  0.00  0.00    +0.000 A 
ATOM      5  C   UNL     1       1.175   9.132  19.887  0.00  0.00    +0.000 A 
ATOM      6  C   UNL     1       1.685   8.804  21.230  0.00  0.00    +0.000 C 
ATOM      7  C   UNL     1       0.387   8.946  22.096  0.00  0.00    +0.000 C 
ATOM      8  C   UNL     1      -0.608   9.848  21.294  0.00  0.00    +0.000 C 
ENDROOT
BRANCH   1  10
ATOM      9  O   UNL     1       3.577   9.000  17.482  0.00  0.00    +0.000 OA
ATOM     10  C   UNL     1       2.677   8.309  17.957  0.00  0.00    +0.000 C 
ATOM     11  N   UNL     1       2.735   6.917  18.051  0.00  0.00    +0.000 N 
ATOM     12  C   UNL     1       1.779   6.052  18.767  0.00  0.00    +0.000 C 
ATOM     13  C   UNL     1       2.379   4.647  18.831  0.00  0.00    +0.000 C 
ATOM     14  C   UNL     1       3.508   4.759  17.861  0.00  0.00    +0.000 A 
ATOM     15  C   UNL     1       4.318   3.733  17.403  0.00  0.00    +0.000 A 
ATOM     16  C   UNL     1       5.359   4.054  16.533  0.00  0.00    +0.000 A 
ATOM     17  C   UNL     1       5.578   5.385  16.148  0.00  0.00    +0.000 A 
ATOM     18  C   UNL     1       4.755   6.414  16.621  0.00  0.00    +0.000 A 
ATOM     19  C   UNL     1       3.716   6.086  17.474  0.00  0.00    +0.000 A 
ENDBRANCH   1  10
BRANCH   3  20
ATOM     20  C   UNL     1      -1.705  10.463  18.175  0.00  0.00    +0.000 A 
ATOM     21  C   UNL     1      -2.248   9.972  16.974  0.00  0.00    +0.000 A 
ATOM     22  C   UNL     1      -3.481  10.444  16.514  0.00  0.00    +0.000 A 
ATOM     23  C   UNL     1      -4.165  11.404  17.247  0.00  0.00    +0.000 A 
ATOM     24  F   UNL     1      -5.353  11.848  16.815  0.00  0.00    +0.000 F 
ATOM     25  C   UNL     1      -3.634  11.914  18.424  0.00  0.00    +0.000 A 
ATOM     26  C   UNL     1      -2.401  11.450  18.886  0.00  0.00    +0.000 A 
ENDBRANCH   3  20
TORSDOF 2
ENDMDL
MODEL 7
REMARK VINA RESULT:      -7.7      3.825      6.711
REMARK  Name = 
REMARK  2 active torsions:
REMARK  status: ('A' for Active; 'I' for Inactive)
REMARK    1  A    between atoms: C_2  and  C_3
REMARK    2  A    between atoms: N_5  and  C_6
REMARK                            x       y       z     vdW  Elec       q    Type
REMARK                         _______ _______ _______ _____ _____    ______ ____
ROOT
ATOM      1  C   UNL     1       0.040  11.640  19.984  0.00  0.00    +0.000 A 
ATOM      2  N   UNL     1       0.746  10.802  19.189  0.00  0.00    +0.000 NA
ATOM      3  N   UNL     1       0.875   9.626  19.873  0.00  0.00    +0.000 N 
ATOM      4  C   UNL     1       0.218   9.716  21.062  0.00  0.00    +0.000 A 
ATOM      5  C   UNL     1      -0.339  10.959  21.148  0.00  0.00    +0.000 A 
ATOM      6  C   UNL     1      -1.028  11.169  22.433  0.00  0.00    +0.000 C 
ATOM      7  C   UNL     1      -0.479   9.968  23.277  0.00  0.00    +0.000 C 
ATOM      8  C   UNL     1       0.038   8.891  22.267  0.00  0.00    +0.000 C 
ENDROOT
BRANCH   1  10
ATOM      9  O   UNL     1      -1.422  13.443  19.632  0.00  0.00    +0.000 OA
ATOM     10  C   UNL     1      -0.256  13.052  19.640  0.00  0.00    +0.000 C 
ATOM     11  N   UNL     1       0.842  13.881  19.400  0.00  0.00    +0.000 N 
ATOM     12  C   UNL     1       2.261  13.517  19.573  0.00  0.00    +0.000 C 
ATOM     13  C   UNL     1       3.087  14.799  19.458  0.00  0.00    +0.000 C 
ATOM     14  C   UNL     1       2.080  15.757  18.916  0.00  0.00    +0.000 A 
ATOM     15  C   UNL     1       2.313  17.050  18.474  0.00  0.00    +0.000 A 
ATOM     16  C   UNL     1       1.222  17.807  18.050  0.00  0.00    +0.000 A 
ATOM     17  C   UNL     1      -0.074  17.269  18.085  0.00  0.00    +0.000 A 
ATOM     18  C   UNL     1      -0.296  15.963  18.538  0.00  0.00    +0.000 A 
ATOM     19  C   UNL     1       0.793  15.213  18.945  0.00  0.00    +0.000 A 
ENDBRANCH   1  10
BRANCH   3  20
ATOM     20  C   UNL     1       1.658   8.564  19.337  0.00  0.00    +0.000 A 
ATOM     21  C   UNL     1       2.213   8.691  18.052  0.00  0.00    +0.000 A 
ATOM     22  C   UNL     1       3.027   7.679  17.535  0.00  0.00    +0.000 A 
ATOM     23  C   UNL     1       3.281   6.545  18.295  0.00  0.00    +0.000 A 
ATOM     24  F   UNL     1       4.072   5.581  17.806  0.00  0.00    +0.000 F 
ATOM     25  C   UNL     1       2.725   6.396  19.558  0.00  0.00    +0.000 A 
ATOM     26  C   UNL     1       1.907   7.400  20.078  0.00  0.00    +0.000 A 
ENDBRANCH   3  20
TORSDOF 2
ENDMDL
MODEL 8
REMARK VINA RESULT:      -7.6      4.823      7.880
REMARK  Name = 
REMARK  2 active torsions:
REMARK  status: ('A' for Active; 'I' for Inactive)
REMARK    1  A    between atoms: C_2  and  C_3
REMARK    2  A    between atoms: N_5  and  C_6
REMARK                            x       y       z     vdW  Elec       q    Type
REMARK                         _______ _______ _______ _____ _____    ______ ____
ROOT
ATOM      1  C   UNL     1      -1.620  11.325  18.315  0.00  0.00    +0.000 A 
ATOM      2  N   UNL     1      -1.077  10.100  18.512  0.00  0.00    +0.000 NA
ATOM      3  N   UNL     1       0.236  10.299  18.835  0.00  0.00    +0.000 N 
ATOM      4  C   UNL     1       0.496  11.635  18.883  0.00  0.00    +0.000 A 
ATOM      5  C   UNL     1      -0.656  12.304  18.588  0.00  0.00    +0.000 A 
ATOM      6  C   UNL     1      -0.457  13.764  18.562  0.00  0.00    +0.000 C 
ATOM      7  C   UNL     1       1.106  13.861  18.525  0.00  0.00    +0.000 C 
ATOM      8  C   UNL     1       1.667  12.506  19.070  0.00  0.00    +0.000 C 
ENDROOT
BRANCH   1  10
ATOM      9  O   UNL     1      -3.357  11.209  16.741  0.00  0.00    +0.000 OA
ATOM     10  C   UNL     1      -3.018  11.547  17.873  0.00  0.00    +0.000 C 
ATOM     11  N   UNL     1      -3.894  12.087  18.818  0.00  0.00    +0.000 N 
ATOM     12  C   UNL     1      -3.593  12.341  20.239  0.00  0.00    +0.000 C 
ATOM     13  C   UNL     1      -4.910  12.674  20.942  0.00  0.00    +0.000 C 
ATOM     14  C   UNL     1      -5.824  12.884  19.781  0.00  0.00    +0.000 A 
ATOM     15  C   UNL     1      -7.126  13.356  19.820  0.00  0.00    +0.000 A 
ATOM     16  C   UNL     1      -7.835  13.432  18.622  0.00  0.00    +0.000 A 
ATOM     17  C   UNL     1      -7.241  13.028  17.417  0.00  0.00    +0.000 A 
ATOM     18  C   UNL     1      -5.926  12.548  17.391  0.00  0.00    +0.000 A 
ATOM     19  C   UNL     1      -5.224  12.488  18.582  0.00  0.00    +0.000 A 
ENDBRANCH   1  10
BRANCH   3  20
ATOM     20  C   UNL     1       1.110   9.189  19.009  0.00  0.00    +0.000 A 
ATOM     21  C   UNL     1       1.177   8.549  20.259  0.00  0.00    +0.000 A 
ATOM     22  C   UNL     1       1.991   7.425  20.431  0.00  0.00    +0.000 A 
ATOM     23  C   UNL     1       2.738   6.948  19.362  0.00  0.00    +0.000 A 
ATOM     24  F   UNL     1       3.509   5.864  19.522  0.00  0.00    +0.000 F 
ATOM     25  C   UNL     1       2.699   7.581  18.127  0.00  0.00    +0.000 A 
ATOM     26  C   UNL     1       1.892   8.707  17.951  0.00  0.00    +0.000 A 
ENDBRANCH   3  20
TORSDOF 2
ENDMDL
MODEL 9
REMARK VINA RESULT:      -7.5      4.667      9.259
REMARK  Name = 
REMARK  2 active torsions:
REMARK  status: ('A' for Active; 'I' for Inactive)
REMARK    1  A    between atoms: C_2  and  C_3
REMARK    2  A    between atoms: N_5  and  C_6
REMARK                            x       y       z     vdW  Elec       q    Type
REMARK                         _______ _______ _______ _____ _____    ______ ____
ROOT
ATOM      1  C   UNL     1       0.324  10.740  18.674  0.00  0.00    +0.000 A 
ATOM      2  N   UNL     1      -0.932  10.663  18.173  0.00  0.00    +0.000 NA
ATOM      3  N   UNL     1      -1.669  11.621  18.810  0.00  0.00    +0.000 N 
ATOM      4  C   UNL     1      -0.870  12.317  19.665  0.00  0.00    +0.000 A 
ATOM      5  C   UNL     1       0.392  11.805  19.581  0.00  0.00    +0.000 A 
ATOM      6  C   UNL     1       1.319  12.464  20.518  0.00  0.00    +0.000 C 
ATOM      7  C   UNL     1       0.321  13.219  21.460  0.00  0.00    +0.000 C 
ATOM      8  C   UNL     1      -1.026  13.370  20.681  0.00  0.00    +0.000 C 
ENDROOT
BRANCH   1  10
ATOM      9  O   UNL     1       2.172  10.113  17.370  0.00  0.00    +0.000 OA
ATOM     10  C   UNL     1       1.422   9.817  18.298  0.00  0.00    +0.000 C 
ATOM     11  N   UNL     1       1.571   8.670  19.082  0.00  0.00    +0.000 N 
ATOM     12  C   UNL     1       0.822   8.354  20.313  0.00  0.00    +0.000 C 
ATOM     13  C   UNL     1       1.497   7.150  20.971  0.00  0.00    +0.000 C 
ATOM     14  C   UNL     1       2.405   6.683  19.883  0.00  0.00    +0.000 A 
ATOM     15  C   UNL     1       3.164   5.523  19.871  0.00  0.00    +0.000 A 
ATOM     16  C   UNL     1       3.994   5.291  18.776  0.00  0.00    +0.000 A 
ATOM     17  C   UNL     1       4.062   6.220  17.726  0.00  0.00    +0.000 A 
ATOM     18  C   UNL     1       3.294   7.390  17.752  0.00  0.00    +0.000 A 
ATOM     19  C   UNL     1       2.462   7.607  18.836  0.00  0.00    +0.000 A 
ENDBRANCH   1  10
BRANCH   3  20
ATOM     20  C   UNL     1      -3.068  11.730  18.570  0.00  0.00    +0.000 A 
ATOM     21  C   UNL     1      -3.587  11.363  17.316  0.00  0.00    +0.000 A 
ATOM     22  C   UNL     1      -4.965  11.415  17.083  0.00  0.00    +0.000 A 
ATOM     23  C   UNL     1      -5.818  11.836  18.095  0.00  0.00    +0.000 A 
ATOM     24  F   UNL     1      -7.138  11.874  17.877  0.00  0.00    +0.000 F 
ATOM     25  C   UNL     1      -5.319  12.221  19.332  0.00  0.00    +0.000 A 
ATOM     26  C   UNL     1      -3.944  12.177  19.569  0.00  0.00    +0.000 A 
ENDBRANCH   3  20
TORSDOF 2
ENDMDL
