MODEL 1
REMARK VINA RESULT:      -8.1      0.000      0.000
REMARK  Name = 
REMARK  4 active torsions:
REMARK  status: ('A' for Active; 'I' for Inactive)
REMARK    1  A    between atoms: C_2  and  C_22
REMARK    2  A    between atoms: N_3  and  C_4
REMARK    3  A    between atoms: C_4  and  C_5
REMARK    4  A    between atoms: C_10  and  C_11
REMARK                            x       y       z     vdW  Elec       q    Type
REMARK                         _______ _______ _______ _____ _____    ______ ____
ROOT
ATOM      1  C   UNL     1       1.403   8.766  20.002  0.00  0.00    +0.000 C 
ATOM      2  O   UNL     1       1.108   9.639  19.179  0.00  0.00    +0.000 OA
ATOM      3  N   UNL     1       1.820   7.491  19.611  0.00  0.00    +0.000 N 
ATOM      4  C   UNL     1       2.227   7.329  18.214  0.00  0.00    +0.000 C 
ATOM      5  C   UNL     1       2.066   5.903  17.696  0.00  0.00    +0.000 C 
ATOM      6  C   UNL     1       2.658   4.838  18.629  0.00  0.00    +0.000 C 
ATOM      7  C   UNL     1       2.110   5.050  20.044  0.00  0.00    +0.000 C 
ATOM      8  C   UNL     1       2.286   6.476  20.561  0.00  0.00    +0.000 C 
ENDROOT
BRANCH   6   9
ATOM      9  C   UNL     1       4.170   4.737  18.564  0.00  0.00    +0.000 A 
ATOM     10  C   UNL     1       5.052   4.709  19.631  0.00  0.00    +0.000 A 
ATOM     11  N   UNL     1       6.330   4.648  19.155  0.00  0.00    +0.000 N 
ATOM     12  C   UNL     1       6.324   4.621  17.786  0.00  0.00    +0.000 A 
ATOM     13  C   UNL     1       7.405   4.566  16.899  0.00  0.00    +0.000 A 
ATOM     14  C   UNL     1       7.122   4.537  15.533  0.00  0.00    +0.000 A 
ATOM     15  C   UNL     1       5.803   4.558  15.081  0.00  0.00    +0.000 A 
ATOM     16  C   UNL     1       4.733   4.619  15.986  0.00  0.00    +0.000 A 
ATOM     17  C   UNL     1       4.988   4.658  17.376  0.00  0.00    +0.000 A 
ATOM     18  H   UNL     1       7.164   4.630  19.726  0.00  0.00    +0.000 HD
ENDBRANCH   6   9
BRANCH   1  19
ATOM     19  C   UNL     1       1.194   9.048  21.492  0.00  0.00    +0.000 C 
BRANCH  19  22
ATOM     20  O   UNL     1       0.932  11.817  21.707  0.00  0.00    +0.000 OA
ATOM     21  C   UNL     1      -0.078  11.129  21.768  0.00  0.00    +0.000 C 
ATOM     22  N   UNL     1      -0.058   9.754  21.704  0.00  0.00    +0.000 N 
ATOM     23  H   UNL     1      -0.913   9.245  21.513  0.00  0.00    +0.000 HD
BRANCH  21  24
ATOM     24  C   UNL     1      -1.409  11.779  21.900  0.00  0.00    +0.000 A 
ATOM     25  C   UNL     1      -2.023  11.775  23.162  0.00  0.00    +0.000 A 
ATOM     26  C   UNL     1      -3.301  12.315  23.322  0.00  0.00    +0.000 A 
ATOM     27  C   UNL     1      -3.962  12.844  22.221  0.00  0.00    +0.000 A 
ATOM     28  F   UNL     1      -5.197  13.340  22.369  0.00  0.00    +0.000 F 
ATOM     29  C   UNL     1      -3.367  12.852  20.963  0.00  0.00    +0.000 A 
ATOM     30  C   UNL     1      -2.084  12.320  20.797  0.00  0.00    +0.000 A 
ENDBRANCH  21  24
ENDBRANCH  19  22
ENDBRANCH   1  19
TORSDOF 4
ENDMDL
MODEL 2
REMARK VINA RESULT:      -8.1      3.766     10.637
REMARK  Name = 
REMARK  4 active torsions:
REMARK  status: ('A' for Active; 'I' for Inactive)
REMARK    1  A    between atoms: C_2  and  C_22
REMARK    2  A    between atoms: N_3  and  C_4
REMARK    3  A    between atoms: C_4  and  C_5
REMARK    4  A    between atoms: C_10  and  C_11
REMARK                            x       y       z     vdW  Elec       q    Type
REMARK                         _______ _______ _______ _____ _____    ______ ____
ROOT
ATOM      1  C   UNL     1       1.751  10.129  18.175  0.00  0.00    +0.000 C 
ATOM      2  O   UNL     1       2.536  10.834  17.532  0.00  0.00    +0.000 OA
ATOM      3  N   UNL     1       1.063  10.616  19.290  0.00  0.00    +0.000 N 
ATOM      4  C   UNL     1       1.034  12.069  19.466  0.00  0.00    +0.000 C 
ATOM      5  C   UNL     1       0.854  12.502  20.917  0.00  0.00    +0.000 C 
ATOM      6  C   UNL     1      -0.294  11.780  21.637  0.00  0.00    +0.000 C 
ATOM      7  C   UNL     1      -0.127  10.267  21.456  0.00  0.00    +0.000 C 
ATOM      8  C   UNL     1       0.042   9.840  20.000  0.00  0.00    +0.000 C 
ENDROOT
BRANCH   6   9
ATOM      9  C   UNL     1      -1.672  12.295  21.266  0.00  0.00    +0.000 A 
ATOM     10  C   UNL     1      -2.104  12.694  20.013  0.00  0.00    +0.000 A 
ATOM     11  N   UNL     1      -3.396  13.125  20.101  0.00  0.00    +0.000 N 
ATOM     12  C   UNL     1      -3.848  13.009  21.389  0.00  0.00    +0.000 A 
ATOM     13  C   UNL     1      -5.099  13.338  21.920  0.00  0.00    +0.000 A 
ATOM     14  C   UNL     1      -5.307  13.108  23.280  0.00  0.00    +0.000 A 
ATOM     15  C   UNL     1      -4.296  12.565  24.071  0.00  0.00    +0.000 A 
ATOM     16  C   UNL     1      -3.045  12.248  23.521  0.00  0.00    +0.000 A 
ATOM     17  C   UNL     1      -2.801  12.476  22.147  0.00  0.00    +0.000 A 
ATOM     18  H   UNL     1      -3.945  13.482  19.331  0.00  0.00    +0.000 HD
ENDBRANCH   6   9
BRANCH   1  19
ATOM     19  C   UNL     1       1.614   8.648  17.814  0.00  0.00    +0.000 C 
BRANCH  19  22
ATOM     20  O   UNL     1       2.160   6.025  18.591  0.00  0.00    +0.000 OA
ATOM     21  C   UNL     1       3.075   6.703  18.143  0.00  0.00    +0.000 C 
ATOM     22  N   UNL     1       2.922   8.016  17.761  0.00  0.00    +0.000 N 
ATOM     23  H   UNL     1       3.624   8.457  17.178  0.00  0.00    +0.000 HD
BRANCH  21  24
ATOM     24  C   UNL     1       4.427   6.104  17.977  0.00  0.00    +0.000 A 
ATOM     25  C   UNL     1       5.176   6.469  16.847  0.00  0.00    +0.000 A 
ATOM     26  C   UNL     1       6.422   5.885  16.612  0.00  0.00    +0.000 A 
ATOM     27  C   UNL     1       6.908   4.933  17.500  0.00  0.00    +0.000 A 
ATOM     28  F   UNL     1       8.093   4.355  17.263  0.00  0.00    +0.000 F 
ATOM     29  C   UNL     1       6.176   4.559  18.623  0.00  0.00    +0.000 A 
ATOM     30  C   UNL     1       4.930   5.146  18.867  0.00  0.00    +0.000 A 
ENDBRANCH  21  24
ENDBRANCH  19  22
ENDBRANCH   1  19
TORSDOF 4
ENDMDL
MODEL 3
REMARK VINA RESULT:      -8.0      6.308      8.927
REMARK  Name = 
REMARK  4 active torsions:
REMARK  status: ('A' for Active; 'I' for Inactive)
REMARK    1  A    between atoms: C_2  and  C_22
REMARK    2  A    between atoms: N_3  and  C_4
REMARK    3  A    between atoms: C_4  and  C_5
REMARK    4  A    between atoms: C_10  and  C_11
REMARK                            x       y       z     vdW  Elec       q    Type
REMARK                         _______ _______ _______ _____ _____    ______ ____
ROOT
ATOM      1  C   UNL     1       7.758   7.649  18.226  0.00  0.00    +0.000 C 
ATOM      2  O   UNL     1       8.672   7.404  19.021  0.00  0.00    +0.000 OA
ATOM      3  N   UNL     1       6.785   6.699  17.902  0.00  0.00    +0.000 N 
ATOM      4  C   UNL     1       6.678   5.536  18.784  0.00  0.00    +0.000 C 
ATOM      5  C   UNL     1       6.104   4.302  18.094  0.00  0.00    +0.000 C 
ATOM      6  C   UNL     1       4.820   4.582  17.300  0.00  0.00    +0.000 C 
ATOM      7  C   UNL     1       5.063   5.765  16.355  0.00  0.00    +0.000 C 
ATOM      8  C   UNL     1       5.627   7.000  17.054  0.00  0.00    +0.000 C 
ENDROOT
BRANCH   6   9
ATOM      9  C   UNL     1       3.583   4.729  18.164  0.00  0.00    +0.000 A 
ATOM     10  C   UNL     1       2.603   5.702  18.060  0.00  0.00    +0.000 A 
ATOM     11  N   UNL     1       1.676   5.510  19.043  0.00  0.00    +0.000 N 
ATOM     12  C   UNL     1       2.006   4.416  19.799  0.00  0.00    +0.000 A 
ATOM     13  C   UNL     1       1.341   3.871  20.902  0.00  0.00    +0.000 A 
ATOM     14  C   UNL     1       1.889   2.732  21.492  0.00  0.00    +0.000 A 
ATOM     15  C   UNL     1       3.058   2.164  20.987  0.00  0.00    +0.000 A 
ATOM     16  C   UNL     1       3.714   2.730  19.884  0.00  0.00    +0.000 A 
ATOM     17  C   UNL     1       3.187   3.888  19.269  0.00  0.00    +0.000 A 
ATOM     18  H   UNL     1       0.863   6.091  19.199  0.00  0.00    +0.000 HD
ENDBRANCH   6   9
BRANCH   1  19
ATOM     19  C   UNL     1       7.756   8.988  17.485  0.00  0.00    +0.000 C 
BRANCH  19  22
ATOM     20  O   UNL     1       7.740  11.764  17.206  0.00  0.00    +0.000 OA
ATOM     21  C   UNL     1       8.615  11.252  17.890  0.00  0.00    +0.000 C 
ATOM     22  N   UNL     1       8.733   9.892  18.068  0.00  0.00    +0.000 N 
ATOM     23  H   UNL     1       9.305   9.529  18.822  0.00  0.00    +0.000 HD
BRANCH  21  24
ATOM     24  C   UNL     1       9.605  12.113  18.591  0.00  0.00    +0.000 A 
ATOM     25  C   UNL     1       9.256  13.448  18.847  0.00  0.00    +0.000 A 
ATOM     26  C   UNL     1      10.176  14.313  19.442  0.00  0.00    +0.000 A 
ATOM     27  C   UNL     1      11.442  13.843  19.769  0.00  0.00    +0.000 A 
ATOM     28  F   UNL     1      12.333  14.678  20.319  0.00  0.00    +0.000 F 
ATOM     29  C   UNL     1      11.804  12.523  19.519  0.00  0.00    +0.000 A 
ATOM     30  C   UNL     1      10.884  11.650  18.929  0.00  0.00    +0.000 A 
ENDBRANCH  21  24
ENDBRANCH  19  22
ENDBRANCH   1  19
TORSDOF 4
ENDMDL
MODEL 4
REMARK VINA RESULT:      -8.0      1.237      1.469
REMARK  Name = 
REMARK  4 active torsions:
REMARK  status: ('A' for Active; 'I' for Inactive)
REMARK    1  A    between atoms: C_2  and  C_22
REMARK    2  A    between atoms: N_3  and  C_4
REMARK    3  A    between atoms: C_4  and  C_5
REMARK    4  A    between atoms: C_10  and  C_11
REMARK                            x       y       z     vdW  Elec       q    Type
REMARK                         _______ _______ _______ _____ _____    ______ ____
ROOT
ATOM      1  C   UNL     1       1.500   8.574  19.893  0.00  0.00    +0.000 C 
ATOM      2  O   UNL     1       1.164   9.415  19.053  0.00  0.00    +0.000 OA
ATOM      3  N   UNL     1       1.900   7.285  19.530  0.00  0.00    +0.000 N 
ATOM      4  C   UNL     1       2.238   7.070  18.122  0.00  0.00    +0.000 C 
ATOM      5  C   UNL     1       2.054   5.626  17.667  0.00  0.00    +0.000 C 
ATOM      6  C   UNL     1       2.695   4.597  18.609  0.00  0.00    +0.000 C 
ATOM      7  C   UNL     1       2.217   4.863  20.041  0.00  0.00    +0.000 C 
ATOM      8  C   UNL     1       2.415   6.308  20.494  0.00  0.00    +0.000 C 
ENDROOT
BRANCH   6   9
ATOM      9  C   UNL     1       4.201   4.494  18.472  0.00  0.00    +0.000 A 
ATOM     10  C   UNL     1       5.122   4.311  19.491  0.00  0.00    +0.000 A 
ATOM     11  N   UNL     1       6.380   4.307  18.963  0.00  0.00    +0.000 N 
ATOM     12  C   UNL     1       6.324   4.470  17.604  0.00  0.00    +0.000 A 
ATOM     13  C   UNL     1       7.370   4.530  16.676  0.00  0.00    +0.000 A 
ATOM     14  C   UNL     1       7.036   4.693  15.332  0.00  0.00    +0.000 A 
ATOM     15  C   UNL     1       5.701   4.786  14.938  0.00  0.00    +0.000 A 
ATOM     16  C   UNL     1       4.667   4.730  15.884  0.00  0.00    +0.000 A 
ATOM     17  C   UNL     1       4.974   4.574  17.255  0.00  0.00    +0.000 A 
ATOM     18  H   UNL     1       7.234   4.204  19.493  0.00  0.00    +0.000 HD
ENDBRANCH   6   9
BRANCH   1  19
ATOM     19  C   UNL     1       1.366   8.912  21.380  0.00  0.00    +0.000 C 
BRANCH  19  22
ATOM     20  O   UNL     1      -0.788   9.274  23.115  0.00  0.00    +0.000 OA
ATOM     21  C   UNL     1      -0.400  10.232  22.460  0.00  0.00    +0.000 C 
ATOM     22  N   UNL     1       0.633  10.155  21.553  0.00  0.00    +0.000 N 
ATOM     23  H   UNL     1       1.077  11.003  21.221  0.00  0.00    +0.000 HD
BRANCH  21  24
ATOM     24  C   UNL     1      -1.042  11.561  22.641  0.00  0.00    +0.000 A 
ATOM     25  C   UNL     1      -0.349  12.696  22.191  0.00  0.00    +0.000 A 
ATOM     26  C   UNL     1      -0.880  13.971  22.397  0.00  0.00    +0.000 A 
ATOM     27  C   UNL     1      -2.094  14.106  23.059  0.00  0.00    +0.000 A 
ATOM     28  F   UNL     1      -2.593  15.329  23.278  0.00  0.00    +0.000 F 
ATOM     29  C   UNL     1      -2.792  12.990  23.513  0.00  0.00    +0.000 A 
ATOM     30  C   UNL     1      -2.268  11.711  23.303  0.00  0.00    +0.000 A 
ENDBRANCH  21  24
ENDBRANCH  19  22
ENDBRANCH   1  19
TORSDOF 4
ENDMDL
MODEL 5
REMARK VINA RESULT:      -7.9      6.155      8.552
REMARK  Name = 
REMARK  4 active torsions:
REMARK  status: ('A' for Active; 'I' for Inactive)
REMARK    1  A    between atoms: C_2  and  C_22
REMARK    2  A    between atoms: N_3  and  C_4
REMARK    3  A    between atoms: C_4  and  C_5
REMARK    4  A    between atoms: C_10  and  C_11
REMARK                            x       y       z     vdW  Elec       q    Type
REMARK                         _______ _______ _______ _____ _____    ______ ____
ROOT
ATOM      1  C   UNL     1       7.913   7.460  18.296  0.00  0.00    +0.000 C 
ATOM      2  O   UNL     1       8.792   7.097  19.084  0.00  0.00    +0.000 OA
ATOM      3  N   UNL     1       6.879   6.609  17.897  0.00  0.00    +0.000 N 
ATOM      4  C   UNL     1       6.672   5.401  18.698  0.00  0.00    +0.000 C 
ATOM      5  C   UNL     1       6.022   4.261  17.921  0.00  0.00    +0.000 C 
ATOM      6  C   UNL     1       4.776   4.687  17.131  0.00  0.00    +0.000 C 
ATOM      7  C   UNL     1       5.121   5.908  16.270  0.00  0.00    +0.000 C 
ATOM      8  C   UNL     1       5.761   7.050  17.057  0.00  0.00    +0.000 C 
ENDROOT
BRANCH   6   9
ATOM      9  C   UNL     1       3.538   4.868  17.987  0.00  0.00    +0.000 A 
ATOM     10  C   UNL     1       2.551   5.828  17.836  0.00  0.00    +0.000 A 
ATOM     11  N   UNL     1       1.625   5.679  18.828  0.00  0.00    +0.000 N 
ATOM     12  C   UNL     1       1.963   4.627  19.637  0.00  0.00    +0.000 A 
ATOM     13  C   UNL     1       1.302   4.133  20.767  0.00  0.00    +0.000 A 
ATOM     14  C   UNL     1       1.858   3.029  21.412  0.00  0.00    +0.000 A 
ATOM     15  C   UNL     1       3.031   2.444  20.936  0.00  0.00    +0.000 A 
ATOM     16  C   UNL     1       3.683   2.959  19.805  0.00  0.00    +0.000 A 
ATOM     17  C   UNL     1       3.147   4.081  19.133  0.00  0.00    +0.000 A 
ATOM     18  H   UNL     1       0.808   6.261  18.955  0.00  0.00    +0.000 HD
ENDBRANCH   6   9
BRANCH   1  19
ATOM     19  C   UNL     1       8.021   8.842  17.646  0.00  0.00    +0.000 C 
BRANCH  19  22
ATOM     20  O   UNL     1      10.072  10.726  17.478  0.00  0.00    +0.000 OA
ATOM     21  C   UNL     1       9.333  10.754  18.452  0.00  0.00    +0.000 C 
ATOM     22  N   UNL     1       8.311   9.853  18.649  0.00  0.00    +0.000 N 
ATOM     23  H   UNL     1       7.583  10.054  19.325  0.00  0.00    +0.000 HD
BRANCH  21  24
ATOM     24  C   UNL     1       9.509  11.811  19.485  0.00  0.00    +0.000 A 
ATOM     25  C   UNL     1       9.859  13.100  19.056  0.00  0.00    +0.000 A 
ATOM     26  C   UNL     1      10.100  14.110  19.991  0.00  0.00    +0.000 A 
ATOM     27  C   UNL     1      10.000  13.823  21.347  0.00  0.00    +0.000 A 
ATOM     28  F   UNL     1      10.254  14.784  22.244  0.00  0.00    +0.000 F 
ATOM     29  C   UNL     1       9.656  12.548  21.786  0.00  0.00    +0.000 A 
ATOM     30  C   UNL     1       9.407  11.535  20.855  0.00  0.00    +0.000 A 
ENDBRANCH  21  24
ENDBRANCH  19  22
ENDBRANCH   1  19
TORSDOF 4
ENDMDL
MODEL 6
REMARK VINA RESULT:      -7.8      3.734     10.773
REMARK  Name = 
REMARK  4 active torsions:
REMARK  status: ('A' for Active; 'I' for Inactive)
REMARK    1  A    between atoms: C_2  and  C_22
REMARK    2  A    between atoms: N_3  and  C_4
REMARK    3  A    between atoms: C_4  and  C_5
REMARK    4  A    between atoms: C_10  and  C_11
REMARK                            x       y       z     vdW  Elec       q    Type
REMARK                         _______ _______ _______ _____ _____    ______ ____
ROOT
ATOM      1  C   UNL     1       1.500   9.764  18.657  0.00  0.00    +0.000 C 
ATOM      2  O   UNL     1       2.102  10.285  17.713  0.00  0.00    +0.000 OA
ATOM      3  N   UNL     1       0.854  10.525  19.635  0.00  0.00    +0.000 N 
ATOM      4  C   UNL     1       0.619  11.936  19.324  0.00  0.00    +0.000 C 
ATOM      5  C   UNL     1       0.512  12.821  20.562  0.00  0.00    +0.000 C 
ATOM      6  C   UNL     1      -0.437  12.268  21.635  0.00  0.00    +0.000 C 
ATOM      7  C   UNL     1      -0.057  10.815  21.940  0.00  0.00    +0.000 C 
ATOM      8  C   UNL     1       0.036   9.932  20.698  0.00  0.00    +0.000 C 
ENDROOT
BRANCH   6   9
ATOM      9  C   UNL     1      -1.906  12.465  21.314  0.00  0.00    +0.000 A 
ATOM     10  C   UNL     1      -2.478  12.584  20.058  0.00  0.00    +0.000 A 
ATOM     11  N   UNL     1      -3.822  12.784  20.195  0.00  0.00    +0.000 N 
ATOM     12  C   UNL     1      -4.168  12.787  21.520  0.00  0.00    +0.000 A 
ATOM     13  C   UNL     1      -5.426  12.964  22.105  0.00  0.00    +0.000 A 
ATOM     14  C   UNL     1      -5.508  12.911  23.496  0.00  0.00    +0.000 A 
ATOM     15  C   UNL     1      -4.368  12.685  24.266  0.00  0.00    +0.000 A 
ATOM     16  C   UNL     1      -3.114  12.517  23.662  0.00  0.00    +0.000 A 
ATOM     17  C   UNL     1      -2.997  12.573  22.254  0.00  0.00    +0.000 A 
ATOM     18  H   UNL     1      -4.472  12.916  19.432  0.00  0.00    +0.000 HD
ENDBRANCH   6   9
BRANCH   1  19
ATOM     19  C   UNL     1       1.559   8.243  18.827  0.00  0.00    +0.000 C 
BRANCH  19  22
ATOM     20  O   UNL     1       2.226   5.537  18.696  0.00  0.00    +0.000 OA
ATOM     21  C   UNL     1       2.960   6.347  18.145  0.00  0.00    +0.000 C 
ATOM     22  N   UNL     1       2.741   7.706  18.175  0.00  0.00    +0.000 N 
ATOM     23  H   UNL     1       3.218   8.308  17.516  0.00  0.00    +0.000 HD
BRANCH  21  24
ATOM     24  C   UNL     1       4.146   5.871  17.383  0.00  0.00    +0.000 A 
ATOM     25  C   UNL     1       4.174   4.529  16.976  0.00  0.00    +0.000 A 
ATOM     26  C   UNL     1       5.294   4.018  16.316  0.00  0.00    +0.000 A 
ATOM     27  C   UNL     1       6.382   4.848  16.077  0.00  0.00    +0.000 A 
ATOM     28  F   UNL     1       7.466   4.353  15.465  0.00  0.00    +0.000 F 
ATOM     29  C   UNL     1       6.370   6.180  16.477  0.00  0.00    +0.000 A 
ATOM     30  C   UNL     1       5.249   6.699  17.133  0.00  0.00    +0.000 A 
ENDBRANCH  21  24
ENDBRANCH  19  22
ENDBRANCH   1  19
TORSDOF 4
ENDMDL
MODEL 7
REMARK VINA RESULT:      -7.8      4.924      9.834
REMARK  Name = 
REMARK  4 active torsions:
REMARK  status: ('A' for Active; 'I' for Inactive)
REMARK    1  A    between atoms: C_2  and  C_22
REMARK    2  A    between atoms: N_3  and  C_4
REMARK    3  A    between atoms: C_4  and  C_5
REMARK    4  A    between atoms: C_10  and  C_11
REMARK                            x       y       z     vdW  Elec       q    Type
REMARK                         _______ _______ _______ _____ _____    ______ ____
ROOT
ATOM      1  C   UNL     1       7.055   5.906  18.457  0.00  0.00    +0.000 C 
ATOM      2  O   UNL     1       7.784   5.282  19.235  0.00  0.00    +0.000 OA
ATOM      3  N   UNL     1       5.662   5.822  18.520  0.00  0.00    +0.000 N 
ATOM      4  C   UNL     1       5.089   5.253  19.741  0.00  0.00    +0.000 C 
ATOM      5  C   UNL     1       3.716   4.622  19.531  0.00  0.00    +0.000 C 
ATOM      6  C   UNL     1       2.737   5.520  18.762  0.00  0.00    +0.000 C 
ATOM      7  C   UNL     1       3.405   5.998  17.468  0.00  0.00    +0.000 C 
ATOM      8  C   UNL     1       4.774   6.639  17.687  0.00  0.00    +0.000 C 
ENDROOT
BRANCH   6   9
ATOM      9  C   UNL     1       2.144   6.638  19.597  0.00  0.00    +0.000 A 
ATOM     10  C   UNL     1       1.782   6.582  20.933  0.00  0.00    +0.000 A 
ATOM     11  N   UNL     1       1.255   7.784  21.306  0.00  0.00    +0.000 N 
ATOM     12  C   UNL     1       1.268   8.655  20.249  0.00  0.00    +0.000 A 
ATOM     13  C   UNL     1       0.821   9.979  20.189  0.00  0.00    +0.000 A 
ATOM     14  C   UNL     1       0.961  10.657  18.978  0.00  0.00    +0.000 A 
ATOM     15  C   UNL     1       1.532  10.027  17.874  0.00  0.00    +0.000 A 
ATOM     16  C   UNL     1       1.969   8.696  17.952  0.00  0.00    +0.000 A 
ATOM     17  C   UNL     1       1.834   7.980  19.163  0.00  0.00    +0.000 A 
ATOM     18  H   UNL     1       0.900   8.004  22.226  0.00  0.00    +0.000 HD
ENDBRANCH   6   9
BRANCH   1  19
ATOM     19  C   UNL     1       7.694   6.702  17.317  0.00  0.00    +0.000 C 
BRANCH  19  22
ATOM     20  O   UNL     1       7.949   4.090  16.370  0.00  0.00    +0.000 OA
ATOM     21  C   UNL     1       7.362   4.908  15.675  0.00  0.00    +0.000 C 
ATOM     22  N   UNL     1       7.207   6.229  16.032  0.00  0.00    +0.000 N 
ATOM     23  H   UNL     1       6.519   6.802  15.560  0.00  0.00    +0.000 HD
BRANCH  21  24
ATOM     24  C   UNL     1       6.759   4.483  14.383  0.00  0.00    +0.000 A 
ATOM     25  C   UNL     1       5.445   3.993  14.396  0.00  0.00    +0.000 A 
ATOM     26  C   UNL     1       4.859   3.521  13.220  0.00  0.00    +0.000 A 
ATOM     27  C   UNL     1       5.592   3.531  12.040  0.00  0.00    +0.000 A 
ATOM     28  F   UNL     1       5.039   3.057  10.916  0.00  0.00    +0.000 F 
ATOM     29  C   UNL     1       6.898   4.012  12.011  0.00  0.00    +0.000 A 
ATOM     30  C   UNL     1       7.488   4.493  13.185  0.00  0.00    +0.000 A 
ENDBRANCH  21  24
ENDBRANCH  19  22
ENDBRANCH   1  19
TORSDOF 4
ENDMDL
MODEL 8
REMARK VINA RESULT:      -7.7      1.522      1.698
REMARK  Name = 
REMARK  4 active torsions:
REMARK  status: ('A' for Active; 'I' for Inactive)
REMARK    1  A    between atoms: C_2  and  C_22
REMARK    2  A    between atoms: N_3  and  C_4
REMARK    3  A    between atoms: C_4  and  C_5
REMARK    4  A    between atoms: C_10  and  C_11
REMARK                            x       y       z     vdW  Elec       q    Type
REMARK                         _______ _______ _______ _____ _____    ______ ____
ROOT
ATOM      1  C   UNL     1       1.401   8.835  20.013  0.00  0.00    +0.000 C 
ATOM      2  O   UNL     1       1.319   9.777  19.218  0.00  0.00    +0.000 OA
ATOM      3  N   UNL     1       1.736   7.543  19.599  0.00  0.00    +0.000 N 
ATOM      4  C   UNL     1       2.321   7.408  18.264  0.00  0.00    +0.000 C 
ATOM      5  C   UNL     1       2.089   6.038  17.635  0.00  0.00    +0.000 C 
ATOM      6  C   UNL     1       2.429   4.867  18.568  0.00  0.00    +0.000 C 
ATOM      7  C   UNL     1       1.708   5.066  19.906  0.00  0.00    +0.000 C 
ATOM      8  C   UNL     1       1.954   6.436  20.535  0.00  0.00    +0.000 C 
ENDROOT
BRANCH   6   9
ATOM      9  C   UNL     1       3.916   4.602  18.704  0.00  0.00    +0.000 A 
ATOM     10  C   UNL     1       4.519   3.539  19.356  0.00  0.00    +0.000 A 
ATOM     11  N   UNL     1       5.875   3.680  19.284  0.00  0.00    +0.000 N 
ATOM     12  C   UNL     1       6.197   4.811  18.583  0.00  0.00    +0.000 A 
ATOM     13  C   UNL     1       7.459   5.334  18.279  0.00  0.00    +0.000 A 
ATOM     14  C   UNL     1       7.510   6.510  17.532  0.00  0.00    +0.000 A 
ATOM     15  C   UNL     1       6.338   7.132  17.104  0.00  0.00    +0.000 A 
ATOM     16  C   UNL     1       5.082   6.596  17.424  0.00  0.00    +0.000 A 
ATOM     17  C   UNL     1       4.996   5.409  18.187  0.00  0.00    +0.000 A 
ATOM     18  H   UNL     1       6.548   3.046  19.692  0.00  0.00    +0.000 HD
ENDBRANCH   6   9
BRANCH   1  19
ATOM     19  C   UNL     1       1.011   9.062  21.476  0.00  0.00    +0.000 C 
BRANCH  19  22
ATOM     20  O   UNL     1      -0.123   9.973  23.856  0.00  0.00    +0.000 OA
ATOM     21  C   UNL     1      -0.384  10.569  22.820  0.00  0.00    +0.000 C 
ATOM     22  N   UNL     1       0.096  10.185  21.589  0.00  0.00    +0.000 N 
ATOM     23  H   UNL     1       0.061  10.832  20.809  0.00  0.00    +0.000 HD
BRANCH  21  24
ATOM     24  C   UNL     1      -1.247  11.780  22.861  0.00  0.00    +0.000 A 
ATOM     25  C   UNL     1      -0.691  13.000  22.445  0.00  0.00    +0.000 A 
ATOM     26  C   UNL     1      -1.440  14.176  22.526  0.00  0.00    +0.000 A 
ATOM     27  C   UNL     1      -2.732  14.130  23.033  0.00  0.00    +0.000 A 
ATOM     28  F   UNL     1      -3.442  15.261  23.133  0.00  0.00    +0.000 F 
ATOM     29  C   UNL     1      -3.296  12.928  23.451  0.00  0.00    +0.000 A 
ATOM     30  C   UNL     1      -2.554  11.745  23.365  0.00  0.00    +0.000 A 
ENDBRANCH  21  24
ENDBRANCH  19  22
ENDBRANCH   1  19
TORSDOF 4
ENDMDL
MODEL 9
REMARK VINA RESULT:      -7.7      4.298      9.115
REMARK  Name = 
REMARK  4 active torsions:
REMARK  status: ('A' for Active; 'I' for Inactive)
REMARK    1  A    between atoms: C_2  and  C_22
REMARK    2  A    between atoms: N_3  and  C_4
REMARK    3  A    between atoms: C_4  and  C_5
REMARK    4  A    between atoms: C_10  and  C_11
REMARK                            x       y       z     vdW  Elec       q    Type
REMARK                         _______ _______ _______ _____ _____    ______ ____
ROOT
ATOM      1  C   UNL     1       0.306   9.495  21.727  0.00  0.00    +0.000 C 
ATOM      2  O   UNL     1      -0.581   9.182  22.527  0.00  0.00    +0.000 OA
ATOM      3  N   UNL     1       0.105  10.462  20.739  0.00  0.00    +0.000 N 
ATOM      4  C   UNL     1      -1.061  11.333  20.895  0.00  0.00    +0.000 C 
ATOM      5  C   UNL     1      -1.580  11.896  19.575  0.00  0.00    +0.000 C 
ATOM      6  C   UNL     1      -0.482  12.504  18.691  0.00  0.00    +0.000 C 
ATOM      7  C   UNL     1       0.652  11.486  18.529  0.00  0.00    +0.000 C 
ATOM      8  C   UNL     1       1.175  10.935  19.854  0.00  0.00    +0.000 C 
ENDROOT
BRANCH   6   9
ATOM      9  C   UNL     1      -0.018  13.875  19.144  0.00  0.00    +0.000 A 
ATOM     10  C   UNL     1      -0.706  14.764  19.952  0.00  0.00    +0.000 A 
ATOM     11  N   UNL     1       0.034  15.902  20.098  0.00  0.00    +0.000 N 
ATOM     12  C   UNL     1       1.216  15.789  19.415  0.00  0.00    +0.000 A 
ATOM     13  C   UNL     1       2.258  16.714  19.292  0.00  0.00    +0.000 A 
ATOM     14  C   UNL     1       3.371  16.341  18.538  0.00  0.00    +0.000 A 
ATOM     15  C   UNL     1       3.432  15.085  17.936  0.00  0.00    +0.000 A 
ATOM     16  C   UNL     1       2.374  14.174  18.065  0.00  0.00    +0.000 A 
ATOM     17  C   UNL     1       1.229  14.525  18.817  0.00  0.00    +0.000 A 
ATOM     18  H   UNL     1      -0.246  16.715  20.629  0.00  0.00    +0.000 HD
ENDBRANCH   6   9
BRANCH   1  19
ATOM     19  C   UNL     1       1.627   8.722  21.743  0.00  0.00    +0.000 C 
BRANCH  19  22
ATOM     20  O   UNL     1       2.498   7.738  19.282  0.00  0.00    +0.000 OA
ATOM     21  C   UNL     1       1.923   6.974  20.045  0.00  0.00    +0.000 C 
ATOM     22  N   UNL     1       1.425   7.364  21.268  0.00  0.00    +0.000 N 
ATOM     23  H   UNL     1       1.182   6.665  21.960  0.00  0.00    +0.000 HD
BRANCH  21  24
ATOM     24  C   UNL     1       1.749   5.545  19.670  0.00  0.00    +0.000 A 
ATOM     25  C   UNL     1       2.020   5.173  18.344  0.00  0.00    +0.000 A 
ATOM     26  C   UNL     1       1.809   3.857  17.927  0.00  0.00    +0.000 A 
ATOM     27  C   UNL     1       1.320   2.924  18.833  0.00  0.00    +0.000 A 
ATOM     28  F   UNL     1       1.096   1.667  18.428  0.00  0.00    +0.000 F 
ATOM     29  C   UNL     1       1.045   3.279  20.150  0.00  0.00    +0.000 A 
ATOM     30  C   UNL     1       1.261   4.593  20.575  0.00  0.00    +0.000 A 
ENDBRANCH  21  24
ENDBRANCH  19  22
ENDBRANCH   1  19
TORSDOF 4
ENDMDL
