MODEL 1
REMARK VINA RESULT:     -10.0      0.000      0.000
REMARK  Name = 
REMARK  3 active torsions:
REMARK  status: ('A' for Active; 'I' for Inactive)
REMARK    1  A    between atoms: C_4  and  C_5
REMARK    2  A    between atoms: N_7  and  C_8
REMARK    3  A    between atoms: C_12  and  C_13
REMARK                            x       y       z     vdW  Elec       q    Type
REMARK                         _______ _______ _______ _____ _____    ______ ____
ROOT
ATOM      1  C   UNL     1       2.631   5.821  18.179  0.00  0.00    +0.000 C 
ATOM      2  O   UNL     1       1.601   5.203  18.449  0.00  0.00    +0.000 OA
ATOM      3  N   UNL     1       2.869   7.157  18.472  0.00  0.00    +0.000 N 
ATOM      4  H   UNL     1       3.636   7.615  17.990  0.00  0.00    +0.000 HD
ENDROOT
BRANCH   1   8
ATOM      5  O   UNL     1       4.040   2.208  19.580  0.00  0.00    +0.000 OA
ATOM      6  C   UNL     1       4.413   3.155  18.893  0.00  0.00    +0.000 C 
ATOM      7  C   UNL     1       3.681   3.590  17.651  0.00  0.00    +0.000 C 
ATOM      8  C   UNL     1       3.747   5.095  17.432  0.00  0.00    +0.000 C 
ATOM      9  C   UNL     1       5.109   5.676  17.713  0.00  0.00    +0.000 A 
ATOM     10  C   UNL     1       5.481   6.918  17.178  0.00  0.00    +0.000 A 
ATOM     11  C   UNL     1       6.722   7.467  17.492  0.00  0.00    +0.000 A 
ATOM     12  C   UNL     1       7.588   6.772  18.330  0.00  0.00    +0.000 A 
ATOM     13  F   UNL     1       8.781   7.303  18.629  0.00  0.00    +0.000 F 
ATOM     14  C   UNL     1       7.230   5.545  18.878  0.00  0.00    +0.000 A 
ATOM     15  C   UNL     1       5.985   5.004  18.571  0.00  0.00    +0.000 A 
ATOM     16  N   UNL     1       5.574   3.817  19.184  0.00  0.00    +0.000 N 
ATOM     17  H   UNL     1       6.132   3.411  19.927  0.00  0.00    +0.000 HD
ENDBRANCH   1   8
BRANCH   3  18
ATOM     18  C   UNL     1       1.973   8.009  19.160  0.00  0.00    +0.000 A 
ATOM     19  C   UNL     1       1.768   7.921  20.543  0.00  0.00    +0.000 A 
ATOM     20  C   UNL     1       0.806   8.704  21.175  0.00  0.00    +0.000 A 
ATOM     21  C   UNL     1       0.034   9.592  20.434  0.00  0.00    +0.000 A 
ATOM     22  C   UNL     1       0.253   9.722  19.059  0.00  0.00    +0.000 A 
ATOM     23  C   UNL     1       1.239   8.948  18.426  0.00  0.00    +0.000 A 
BRANCH  22  24
ATOM     24  C   UNL     1      -0.631  10.580  18.253  0.00  0.00    +0.000 A 
ATOM     25  N   UNL     1      -0.735  11.873  18.375  0.00  0.00    +0.000 NA
ATOM     26  N   UNL     1      -1.615  12.222  17.383  0.00  0.00    +0.000 N 
ATOM     27  C   UNL     1      -2.026  11.107  16.671  0.00  0.00    +0.000 A 
ATOM     28  O   UNL     1      -2.763  11.070  15.704  0.00  0.00    +0.000 OA
ATOM     29  N   UNL     1      -1.407  10.053  17.269  0.00  0.00    +0.000 N 
ATOM     30  H   UNL     1      -1.844  13.182  17.165  0.00  0.00    +0.000 HD
ATOM     31  H   UNL     1      -1.523   9.102  16.970  0.00  0.00    +0.000 HD
ENDBRANCH  22  24
ENDBRANCH   3  18
TORSDOF 3
ENDMDL
MODEL 2
REMARK VINA RESULT:      -9.7      1.141      1.299
REMARK  Name = 
REMARK  3 active torsions:
REMARK  status: ('A' for Active; 'I' for Inactive)
REMARK    1  A    between atoms: C_4  and  C_5
REMARK    2  A    between atoms: N_7  and  C_8
REMARK    3  A    between atoms: C_12  and  C_13
REMARK                            x       y       z     vdW  Elec       q    Type
REMARK                         _______ _______ _______ _____ _____    ______ ____
ROOT
ATOM      1  C   UNL     1       2.669   5.711  18.123  0.00  0.00    +0.000 C 
ATOM      2  O   UNL     1       1.541   5.219  18.079  0.00  0.00    +0.000 OA
ATOM      3  N   UNL     1       3.007   6.896  18.760  0.00  0.00    +0.000 N 
ATOM      4  H   UNL     1       3.898   7.321  18.523  0.00  0.00    +0.000 HD
ENDROOT
BRANCH   1   8
ATOM      5  O   UNL     1       4.122   2.139  19.583  0.00  0.00    +0.000 OA
ATOM      6  C   UNL     1       4.488   3.084  18.891  0.00  0.00    +0.000 C 
ATOM      7  C   UNL     1       3.766   3.493  17.634  0.00  0.00    +0.000 C 
ATOM      8  C   UNL     1       3.809   4.996  17.400  0.00  0.00    +0.000 C 
ATOM      9  C   UNL     1       5.156   5.605  17.693  0.00  0.00    +0.000 A 
ATOM     10  C   UNL     1       5.513   6.847  17.150  0.00  0.00    +0.000 A 
ATOM     11  C   UNL     1       6.740   7.422  17.475  0.00  0.00    +0.000 A 
ATOM     12  C   UNL     1       7.605   6.752  18.332  0.00  0.00    +0.000 A 
ATOM     13  F   UNL     1       8.784   7.307  18.643  0.00  0.00    +0.000 F 
ATOM     14  C   UNL     1       7.262   5.524  18.890  0.00  0.00    +0.000 A 
ATOM     15  C   UNL     1       6.031   4.958  18.571  0.00  0.00    +0.000 A 
ATOM     16  N   UNL     1       5.632   3.771  19.191  0.00  0.00    +0.000 N 
ATOM     17  H   UNL     1       6.187   3.383  19.947  0.00  0.00    +0.000 HD
ENDBRANCH   1   8
BRANCH   3  18
ATOM     18  C   UNL     1       2.108   7.709  19.490  0.00  0.00    +0.000 A 
ATOM     19  C   UNL     1       1.655   7.365  20.770  0.00  0.00    +0.000 A 
ATOM     20  C   UNL     1       0.694   8.134  21.421  0.00  0.00    +0.000 A 
ATOM     21  C   UNL     1       0.170   9.263  20.803  0.00  0.00    +0.000 A 
ATOM     22  C   UNL     1       0.640   9.646  19.542  0.00  0.00    +0.000 A 
ATOM     23  C   UNL     1       1.626   8.882  18.896  0.00  0.00    +0.000 A 
BRANCH  22  24
ATOM     24  C   UNL     1       0.015  10.777  18.838  0.00  0.00    +0.000 A 
ATOM     25  N   UNL     1      -0.952  10.679  17.971  0.00  0.00    +0.000 NA
ATOM     26  N   UNL     1      -1.232  11.982  17.649  0.00  0.00    +0.000 N 
ATOM     27  C   UNL     1      -0.412  12.852  18.348  0.00  0.00    +0.000 A 
ATOM     28  O   UNL     1      -0.429  14.068  18.331  0.00  0.00    +0.000 OA
ATOM     29  N   UNL     1       0.409  12.055  19.084  0.00  0.00    +0.000 N 
ATOM     30  H   UNL     1      -2.001  12.246  17.049  0.00  0.00    +0.000 HD
ATOM     31  H   UNL     1       1.124  12.411  19.693  0.00  0.00    +0.000 HD
ENDBRANCH  22  24
ENDBRANCH   3  18
TORSDOF 3
ENDMDL
MODEL 3
REMARK VINA RESULT:      -9.3      2.762      3.931
REMARK  Name = 
REMARK  3 active torsions:
REMARK  status: ('A' for Active; 'I' for Inactive)
REMARK    1  A    between atoms: C_4  and  C_5
REMARK    2  A    between atoms: N_7  and  C_8
REMARK    3  A    between atoms: C_12  and  C_13
REMARK                            x       y       z     vdW  Elec       q    Type
REMARK                         _______ _______ _______ _____ _____    ______ ____
ROOT
ATOM      1  C   UNL     1       2.532   7.266  19.442  0.00  0.00    +0.000 C 
ATOM      2  O   UNL     1       2.510   7.843  18.354  0.00  0.00    +0.000 OA
ATOM      3  N   UNL     1       1.891   7.697  20.595  0.00  0.00    +0.000 N 
ATOM      4  H   UNL     1       2.179   7.283  21.476  0.00  0.00    +0.000 HD
ENDROOT
BRANCH   1   8
ATOM      5  O   UNL     1       5.014   6.074  16.372  0.00  0.00    +0.000 OA
ATOM      6  C   UNL     1       4.399   5.592  17.319  0.00  0.00    +0.000 C 
ATOM      7  C   UNL     1       4.621   6.040  18.740  0.00  0.00    +0.000 C 
ATOM      8  C   UNL     1       3.350   5.983  19.575  0.00  0.00    +0.000 C 
ATOM      9  C   UNL     1       2.531   4.743  19.325  0.00  0.00    +0.000 A 
ATOM     10  C   UNL     1       1.587   4.308  20.267  0.00  0.00    +0.000 A 
ATOM     11  C   UNL     1       0.799   3.191  19.997  0.00  0.00    +0.000 A 
ATOM     12  C   UNL     1       0.962   2.511  18.795  0.00  0.00    +0.000 A 
ATOM     13  F   UNL     1       0.203   1.438  18.539  0.00  0.00    +0.000 F 
ATOM     14  C   UNL     1       1.885   2.936  17.844  0.00  0.00    +0.000 A 
ATOM     15  C   UNL     1       2.663   4.059  18.113  0.00  0.00    +0.000 A 
ATOM     16  N   UNL     1       3.529   4.553  17.134  0.00  0.00    +0.000 N 
ATOM     17  H   UNL     1       3.511   4.162  16.198  0.00  0.00    +0.000 HD
ENDBRANCH   1   8
BRANCH   3  18
ATOM     18  C   UNL     1       1.081   8.853  20.689  0.00  0.00    +0.000 A 
ATOM     19  C   UNL     1       0.825   9.492  21.909  0.00  0.00    +0.000 A 
ATOM     20  C   UNL     1      -0.057  10.566  21.983  0.00  0.00    +0.000 A 
ATOM     21  C   UNL     1      -0.698  11.022  20.837  0.00  0.00    +0.000 A 
ATOM     22  C   UNL     1      -0.424  10.422  19.603  0.00  0.00    +0.000 A 
ATOM     23  C   UNL     1       0.483   9.353  19.525  0.00  0.00    +0.000 A 
BRANCH  22  24
ATOM     24  C   UNL     1      -1.177  10.829  18.406  0.00  0.00    +0.000 A 
ATOM     25  N   UNL     1      -1.444  12.059  18.071  0.00  0.00    +0.000 NA
ATOM     26  N   UNL     1      -2.096  11.934  16.871  0.00  0.00    +0.000 N 
ATOM     27  C   UNL     1      -2.205  10.603  16.503  0.00  0.00    +0.000 A 
ATOM     28  O   UNL     1      -2.683  10.149  15.481  0.00  0.00    +0.000 OA
ATOM     29  N   UNL     1      -1.637   9.903  17.523  0.00  0.00    +0.000 N 
ATOM     30  H   UNL     1      -2.367  12.728  16.308  0.00  0.00    +0.000 HD
ATOM     31  H   UNL     1      -1.577   8.901  17.538  0.00  0.00    +0.000 HD
ENDBRANCH  22  24
ENDBRANCH   3  18
TORSDOF 3
ENDMDL
MODEL 4
REMARK VINA RESULT:      -9.1      3.730      8.728
REMARK  Name = 
REMARK  3 active torsions:
REMARK  status: ('A' for Active; 'I' for Inactive)
REMARK    1  A    between atoms: C_4  and  C_5
REMARK    2  A    between atoms: N_7  and  C_8
REMARK    3  A    between atoms: C_12  and  C_13
REMARK                            x       y       z     vdW  Elec       q    Type
REMARK                         _______ _______ _______ _____ _____    ______ ____
ROOT
ATOM      1  C   UNL     1       1.180   9.311  19.208  0.00  0.00    +0.000 C 
ATOM      2  O   UNL     1       0.765   9.073  20.343  0.00  0.00    +0.000 OA
ATOM      3  N   UNL     1       2.018   8.488  18.469  0.00  0.00    +0.000 N 
ATOM      4  H   UNL     1       2.486   8.894  17.664  0.00  0.00    +0.000 HD
ENDROOT
BRANCH   1   8
ATOM      5  O   UNL     1       1.096  12.793  21.415  0.00  0.00    +0.000 OA
ATOM      6  C   UNL     1       0.591  12.314  20.404  0.00  0.00    +0.000 C 
ATOM      7  C   UNL     1       1.416  11.821  19.244  0.00  0.00    +0.000 C 
ATOM      8  C   UNL     1       0.784  10.628  18.544  0.00  0.00    +0.000 C 
ATOM      9  C   UNL     1      -0.706  10.764  18.367  0.00  0.00    +0.000 A 
ATOM     10  C   UNL     1      -1.385  10.006  17.402  0.00  0.00    +0.000 A 
ATOM     11  C   UNL     1      -2.770  10.103  17.289  0.00  0.00    +0.000 A 
ATOM     12  C   UNL     1      -3.469  10.961  18.132  0.00  0.00    +0.000 A 
ATOM     13  F   UNL     1      -4.801  11.052  18.020  0.00  0.00    +0.000 F 
ATOM     14  C   UNL     1      -2.813  11.711  19.103  0.00  0.00    +0.000 A 
ATOM     15  C   UNL     1      -1.431  11.603  19.220  0.00  0.00    +0.000 A 
ATOM     16  N   UNL     1      -0.767  12.279  20.248  0.00  0.00    +0.000 N 
ATOM     17  H   UNL     1      -1.300  12.758  20.966  0.00  0.00    +0.000 HD
ENDBRANCH   1   8
BRANCH   3  18
ATOM     18  C   UNL     1       2.498   7.227  18.893  0.00  0.00    +0.000 A 
ATOM     19  C   UNL     1       1.858   6.477  19.889  0.00  0.00    +0.000 A 
ATOM     20  C   UNL     1       2.411   5.288  20.355  0.00  0.00    +0.000 A 
ATOM     21  C   UNL     1       3.613   4.825  19.832  0.00  0.00    +0.000 A 
ATOM     22  C   UNL     1       4.245   5.540  18.808  0.00  0.00    +0.000 A 
ATOM     23  C   UNL     1       3.675   6.728  18.322  0.00  0.00    +0.000 A 
BRANCH  22  24
ATOM     24  C   UNL     1       5.568   5.113  18.325  0.00  0.00    +0.000 A 
ATOM     25  N   UNL     1       6.487   4.549  19.055  0.00  0.00    +0.000 NA
ATOM     26  N   UNL     1       7.493   4.283  18.163  0.00  0.00    +0.000 N 
ATOM     27  C   UNL     1       7.147   4.700  16.888  0.00  0.00    +0.000 A 
ATOM     28  O   UNL     1       7.789   4.574  15.862  0.00  0.00    +0.000 OA
ATOM     29  N   UNL     1       5.916   5.264  17.019  0.00  0.00    +0.000 N 
ATOM     30  H   UNL     1       8.326   3.769  18.412  0.00  0.00    +0.000 HD
ATOM     31  H   UNL     1       5.408   5.667  16.252  0.00  0.00    +0.000 HD
ENDBRANCH  22  24
ENDBRANCH   3  18
TORSDOF 3
ENDMDL
MODEL 5
REMARK VINA RESULT:      -9.1      3.110      3.874
REMARK  Name = 
REMARK  3 active torsions:
REMARK  status: ('A' for Active; 'I' for Inactive)
REMARK    1  A    between atoms: C_4  and  C_5
REMARK    2  A    between atoms: N_7  and  C_8
REMARK    3  A    between atoms: C_12  and  C_13
REMARK                            x       y       z     vdW  Elec       q    Type
REMARK                         _______ _______ _______ _____ _____    ______ ____
ROOT
ATOM      1  C   UNL     1       3.234   5.111  17.886  0.00  0.00    +0.000 C 
ATOM      2  O   UNL     1       2.087   4.776  17.590  0.00  0.00    +0.000 OA
ATOM      3  N   UNL     1       3.623   6.381  18.289  0.00  0.00    +0.000 N 
ATOM      4  H   UNL     1       4.615   6.598  18.266  0.00  0.00    +0.000 HD
ENDROOT
BRANCH   1   8
ATOM      5  O   UNL     1       6.654   5.525  20.152  0.00  0.00    +0.000 OA
ATOM      6  C   UNL     1       6.282   4.996  19.108  0.00  0.00    +0.000 C 
ATOM      7  C   UNL     1       5.161   3.991  19.066  0.00  0.00    +0.000 C 
ATOM      8  C   UNL     1       4.351   4.074  17.781  0.00  0.00    +0.000 C 
ATOM      9  C   UNL     1       5.204   4.261  16.553  0.00  0.00    +0.000 A 
ATOM     10  C   UNL     1       4.707   3.940  15.281  0.00  0.00    +0.000 A 
ATOM     11  C   UNL     1       5.488   4.170  14.151  0.00  0.00    +0.000 A 
ATOM     12  C   UNL     1       6.761   4.711  14.295  0.00  0.00    +0.000 A 
ATOM     13  F   UNL     1       7.509   4.931  13.206  0.00  0.00    +0.000 F 
ATOM     14  C   UNL     1       7.265   5.047  15.547  0.00  0.00    +0.000 A 
ATOM     15  C   UNL     1       6.478   4.825  16.674  0.00  0.00    +0.000 A 
ATOM     16  N   UNL     1       6.931   5.239  17.929  0.00  0.00    +0.000 N 
ATOM     17  H   UNL     1       7.777   5.793  18.005  0.00  0.00    +0.000 HD
ENDBRANCH   1   8
BRANCH   3  18
ATOM     18  C   UNL     1       2.751   7.482  18.457  0.00  0.00    +0.000 A 
ATOM     19  C   UNL     1       2.513   8.411  17.437  0.00  0.00    +0.000 A 
ATOM     20  C   UNL     1       1.729   9.539  17.665  0.00  0.00    +0.000 A 
ATOM     21  C   UNL     1       1.167   9.756  18.917  0.00  0.00    +0.000 A 
ATOM     22  C   UNL     1       1.361   8.817  19.937  0.00  0.00    +0.000 A 
ATOM     23  C   UNL     1       2.133   7.668  19.699  0.00  0.00    +0.000 A 
BRANCH  22  24
ATOM     24  C   UNL     1       0.859   9.092  21.292  0.00  0.00    +0.000 A 
ATOM     25  N   UNL     1       1.491   8.815  22.397  0.00  0.00    +0.000 NA
ATOM     26  N   UNL     1       0.667   9.308  23.375  0.00  0.00    +0.000 N 
ATOM     27  C   UNL     1      -0.465   9.887  22.824  0.00  0.00    +0.000 A 
ATOM     28  O   UNL     1      -1.370  10.455  23.405  0.00  0.00    +0.000 OA
ATOM     29  N   UNL     1      -0.340   9.707  21.481  0.00  0.00    +0.000 N 
ATOM     30  H   UNL     1       0.920   9.317  24.353  0.00  0.00    +0.000 HD
ATOM     31  H   UNL     1      -1.023  10.021  20.816  0.00  0.00    +0.000 HD
ENDBRANCH  22  24
ENDBRANCH   3  18
TORSDOF 3
ENDMDL
MODEL 6
REMARK VINA RESULT:      -8.9      3.292      3.956
REMARK  Name = 
REMARK  3 active torsions:
REMARK  status: ('A' for Active; 'I' for Inactive)
REMARK    1  A    between atoms: C_4  and  C_5
REMARK    2  A    between atoms: N_7  and  C_8
REMARK    3  A    between atoms: C_12  and  C_13
REMARK                            x       y       z     vdW  Elec       q    Type
REMARK                         _______ _______ _______ _____ _____    ______ ____
ROOT
ATOM      1  C   UNL     1       4.047   6.486  18.000  0.00  0.00    +0.000 C 
ATOM      2  O   UNL     1       4.719   7.391  17.504  0.00  0.00    +0.000 OA
ATOM      3  N   UNL     1       2.822   6.646  18.633  0.00  0.00    +0.000 N 
ATOM      4  H   UNL     1       2.488   5.881  19.212  0.00  0.00    +0.000 HD
ENDROOT
BRANCH   1   8
ATOM      5  O   UNL     1       7.532   5.558  20.000  0.00  0.00    +0.000 OA
ATOM      6  C   UNL     1       6.862   5.157  19.053  0.00  0.00    +0.000 C 
ATOM      7  C   UNL     1       5.421   4.743  19.198  0.00  0.00    +0.000 C 
ATOM      8  C   UNL     1       4.595   5.061  17.961  0.00  0.00    +0.000 C 
ATOM      9  C   UNL     1       5.312   4.749  16.672  0.00  0.00    +0.000 A 
ATOM     10  C   UNL     1       4.596   4.569  15.480  0.00  0.00    +0.000 A 
ATOM     11  C   UNL     1       5.277   4.336  14.288  0.00  0.00    +0.000 A 
ATOM     12  C   UNL     1       6.666   4.277  14.292  0.00  0.00    +0.000 A 
ATOM     13  F   UNL     1       7.318   4.053  13.143  0.00  0.00    +0.000 F 
ATOM     14  C   UNL     1       7.393   4.466  15.462  0.00  0.00    +0.000 A 
ATOM     15  C   UNL     1       6.710   4.708  16.651  0.00  0.00    +0.000 A 
ATOM     16  N   UNL     1       7.425   4.990  17.817  0.00  0.00    +0.000 N 
ATOM     17  H   UNL     1       8.430   5.122  17.776  0.00  0.00    +0.000 HD
ENDBRANCH   1   8
BRANCH   3  18
ATOM     18  C   UNL     1       2.137   7.875  18.775  0.00  0.00    +0.000 A 
ATOM     19  C   UNL     1       2.180   8.875  17.796  0.00  0.00    +0.000 A 
ATOM     20  C   UNL     1       1.579  10.113  18.010  0.00  0.00    +0.000 A 
ATOM     21  C   UNL     1       0.920  10.370  19.207  0.00  0.00    +0.000 A 
ATOM     22  C   UNL     1       0.832   9.369  20.180  0.00  0.00    +0.000 A 
ATOM     23  C   UNL     1       1.419   8.113  19.954  0.00  0.00    +0.000 A 
BRANCH  22  24
ATOM     24  C   UNL     1       0.230   9.669  21.488  0.00  0.00    +0.000 A 
ATOM     25  N   UNL     1       0.407   8.970  22.573  0.00  0.00    +0.000 NA
ATOM     26  N   UNL     1      -0.290   9.667  23.526  0.00  0.00    +0.000 N 
ATOM     27  C   UNL     1      -0.881  10.796  22.981  0.00  0.00    +0.000 A 
ATOM     28  O   UNL     1      -1.527  11.651  23.555  0.00  0.00    +0.000 OA
ATOM     29  N   UNL     1      -0.563  10.761  21.658  0.00  0.00    +0.000 N 
ATOM     30  H   UNL     1      -0.281   9.418  24.505  0.00  0.00    +0.000 HD
ATOM     31  H   UNL     1      -0.863  11.457  20.999  0.00  0.00    +0.000 HD
ENDBRANCH  22  24
ENDBRANCH   3  18
TORSDOF 3
ENDMDL
MODEL 7
REMARK VINA RESULT:      -8.8      1.913      2.387
REMARK  Name = 
REMARK  3 active torsions:
REMARK  status: ('A' for Active; 'I' for Inactive)
REMARK    1  A    between atoms: C_4  and  C_5
REMARK    2  A    between atoms: N_7  and  C_8
REMARK    3  A    between atoms: C_12  and  C_13
REMARK                            x       y       z     vdW  Elec       q    Type
REMARK                         _______ _______ _______ _____ _____    ______ ____
ROOT
ATOM      1  C   UNL     1       2.205   7.449  18.479  0.00  0.00    +0.000 C 
ATOM      2  O   UNL     1       2.223   7.566  19.705  0.00  0.00    +0.000 OA
ATOM      3  N   UNL     1       1.657   8.364  17.590  0.00  0.00    +0.000 N 
ATOM      4  H   UNL     1       1.482   8.050  16.641  0.00  0.00    +0.000 HD
ENDROOT
BRANCH   1   8
ATOM      5  O   UNL     1       1.908   3.835  20.441  0.00  0.00    +0.000 OA
ATOM      6  C   UNL     1       2.617   4.392  19.608  0.00  0.00    +0.000 C 
ATOM      7  C   UNL     1       2.069   4.937  18.315  0.00  0.00    +0.000 C 
ATOM      8  C   UNL     1       2.800   6.189  17.854  0.00  0.00    +0.000 C 
ATOM      9  C   UNL     1       4.294   6.103  18.030  0.00  0.00    +0.000 A 
ATOM     10  C   UNL     1       5.150   6.940  17.299  0.00  0.00    +0.000 A 
ATOM     11  C   UNL     1       6.526   6.886  17.513  0.00  0.00    +0.000 A 
ATOM     12  C   UNL     1       7.040   5.994  18.448  0.00  0.00    +0.000 A 
ATOM     13  F   UNL     1       8.363   5.945  18.651  0.00  0.00    +0.000 F 
ATOM     14  C   UNL     1       6.205   5.166  19.191  0.00  0.00    +0.000 A 
ATOM     15  C   UNL     1       4.830   5.230  18.982  0.00  0.00    +0.000 A 
ATOM     16  N   UNL     1       3.971   4.471  19.781  0.00  0.00    +0.000 N 
ATOM     17  H   UNL     1       4.338   3.962  20.578  0.00  0.00    +0.000 HD
ENDBRANCH   1   8
BRANCH   3  18
ATOM     18  C   UNL     1       1.063   9.594  17.957  0.00  0.00    +0.000 A 
ATOM     19  C   UNL     1       1.797  10.643  18.525  0.00  0.00    +0.000 A 
ATOM     20  C   UNL     1       1.165  11.802  18.967  0.00  0.00    +0.000 A 
ATOM     21  C   UNL     1      -0.213  11.934  18.846  0.00  0.00    +0.000 A 
ATOM     22  C   UNL     1      -0.958  10.914  18.244  0.00  0.00    +0.000 A 
ATOM     23  C   UNL     1      -0.317   9.755  17.778  0.00  0.00    +0.000 A 
BRANCH  22  24
ATOM     24  C   UNL     1      -2.427  11.001  18.210  0.00  0.00    +0.000 A 
ATOM     25  N   UNL     1      -3.221  10.079  17.747  0.00  0.00    +0.000 NA
ATOM     26  N   UNL     1      -4.474  10.581  17.985  0.00  0.00    +0.000 N 
ATOM     27  C   UNL     1      -4.403  11.819  18.602  0.00  0.00    +0.000 A 
ATOM     28  O   UNL     1      -5.323  12.514  18.990  0.00  0.00    +0.000 OA
ATOM     29  N   UNL     1      -3.073  12.089  18.707  0.00  0.00    +0.000 N 
ATOM     30  H   UNL     1      -5.319  10.056  17.808  0.00  0.00    +0.000 HD
ATOM     31  H   UNL     1      -2.711  12.934  19.112  0.00  0.00    +0.000 HD
ENDBRANCH  22  24
ENDBRANCH   3  18
TORSDOF 3
ENDMDL
MODEL 8
REMARK VINA RESULT:      -8.8      3.115      3.606
REMARK  Name = 
REMARK  3 active torsions:
REMARK  status: ('A' for Active; 'I' for Inactive)
REMARK    1  A    between atoms: C_4  and  C_5
REMARK    2  A    between atoms: N_7  and  C_8
REMARK    3  A    between atoms: C_12  and  C_13
REMARK                            x       y       z     vdW  Elec       q    Type
REMARK                         _______ _______ _______ _____ _____    ______ ____
ROOT
ATOM      1  C   UNL     1       2.222   7.631  18.569  0.00  0.00    +0.000 C 
ATOM      2  O   UNL     1       2.228   7.673  19.800  0.00  0.00    +0.000 OA
ATOM      3  N   UNL     1       1.752   8.634  17.732  0.00  0.00    +0.000 N 
ATOM      4  H   UNL     1       1.570   8.391  16.763  0.00  0.00    +0.000 HD
ENDROOT
BRANCH   1   8
ATOM      5  O   UNL     1       1.730   3.943  20.345  0.00  0.00    +0.000 OA
ATOM      6  C   UNL     1       2.464   4.501  19.535  0.00  0.00    +0.000 C 
ATOM      7  C   UNL     1       1.941   5.143  18.277  0.00  0.00    +0.000 C 
ATOM      8  C   UNL     1       2.740   6.374  17.875  0.00  0.00    +0.000 C 
ATOM      9  C   UNL     1       4.228   6.194  18.032  0.00  0.00    +0.000 A 
ATOM     10  C   UNL     1       5.126   7.017  17.337  0.00  0.00    +0.000 A 
ATOM     11  C   UNL     1       6.497   6.874  17.536  0.00  0.00    +0.000 A 
ATOM     12  C   UNL     1       6.965   5.907  18.419  0.00  0.00    +0.000 A 
ATOM     13  F   UNL     1       8.284   5.772  18.607  0.00  0.00    +0.000 F 
ATOM     14  C   UNL     1       6.089   5.090  19.126  0.00  0.00    +0.000 A 
ATOM     15  C   UNL     1       4.718   5.243  18.933  0.00  0.00    +0.000 A 
ATOM     16  N   UNL     1       3.822   4.494  19.700  0.00  0.00    +0.000 N 
ATOM     17  H   UNL     1       4.164   3.924  20.466  0.00  0.00    +0.000 HD
ENDBRANCH   1   8
BRANCH   3  18
ATOM     18  C   UNL     1       1.236   9.878  18.167  0.00  0.00    +0.000 A 
ATOM     19  C   UNL     1      -0.105  10.046  18.536  0.00  0.00    +0.000 A 
ATOM     20  C   UNL     1      -0.605  11.304  18.862  0.00  0.00    +0.000 A 
ATOM     21  C   UNL     1       0.229  12.416  18.826  0.00  0.00    +0.000 A 
ATOM     22  C   UNL     1       1.580  12.261  18.499  0.00  0.00    +0.000 A 
ATOM     23  C   UNL     1       2.089  10.988  18.192  0.00  0.00    +0.000 A 
BRANCH  22  24
ATOM     24  C   UNL     1       2.441  13.446  18.356  0.00  0.00    +0.000 A 
ATOM     25  N   UNL     1       2.104  14.661  18.681  0.00  0.00    +0.000 NA
ATOM     26  N   UNL     1       3.237  15.390  18.431  0.00  0.00    +0.000 N 
ATOM     27  C   UNL     1       4.253  14.578  17.954  0.00  0.00    +0.000 A 
ATOM     28  O   UNL     1       5.394  14.896  17.678  0.00  0.00    +0.000 OA
ATOM     29  N   UNL     1       3.709  13.333  17.879  0.00  0.00    +0.000 N 
ATOM     30  H   UNL     1       3.321  16.371  18.660  0.00  0.00    +0.000 HD
ATOM     31  H   UNL     1       4.215  12.528  17.556  0.00  0.00    +0.000 HD
ENDBRANCH  22  24
ENDBRANCH   3  18
TORSDOF 3
ENDMDL
MODEL 9
REMARK VINA RESULT:      -8.7      2.442      3.456
REMARK  Name = 
REMARK  3 active torsions:
REMARK  status: ('A' for Active; 'I' for Inactive)
REMARK    1  A    between atoms: C_4  and  C_5
REMARK    2  A    between atoms: N_7  and  C_8
REMARK    3  A    between atoms: C_12  and  C_13
REMARK                            x       y       z     vdW  Elec       q    Type
REMARK                         _______ _______ _______ _____ _____    ______ ____
ROOT
ATOM      1  C   UNL     1       2.926   5.694  17.783  0.00  0.00    +0.000 C 
ATOM      2  O   UNL     1       1.829   5.137  17.836  0.00  0.00    +0.000 OA
ATOM      3  N   UNL     1       3.158   7.040  18.029  0.00  0.00    +0.000 N 
ATOM      4  H   UNL     1       4.043   7.430  17.717  0.00  0.00    +0.000 HD
ENDROOT
BRANCH   1   8
ATOM      5  O   UNL     1       4.105   2.499  20.107  0.00  0.00    +0.000 OA
ATOM      6  C   UNL     1       4.579   3.297  19.304  0.00  0.00    +0.000 C 
ATOM      7  C   UNL     1       4.052   3.441  17.901  0.00  0.00    +0.000 C 
ATOM      8  C   UNL     1       4.148   4.870  17.386  0.00  0.00    +0.000 C 
ATOM      9  C   UNL     1       5.447   5.545  17.746  0.00  0.00    +0.000 A 
ATOM     10  C   UNL     1       5.895   6.663  17.028  0.00  0.00    +0.000 A 
ATOM     11  C   UNL     1       7.070   7.308  17.407  0.00  0.00    +0.000 A 
ATOM     12  C   UNL     1       7.794   6.832  18.495  0.00  0.00    +0.000 A 
ATOM     13  F   UNL     1       8.923   7.455  18.858  0.00  0.00    +0.000 F 
ATOM     14  C   UNL     1       7.357   5.731  19.226  0.00  0.00    +0.000 A 
ATOM     15  C   UNL     1       6.178   5.095  18.850  0.00  0.00    +0.000 A 
ATOM     16  N   UNL     1       5.677   4.046  19.626  0.00  0.00    +0.000 N 
ATOM     17  H   UNL     1       6.112   3.822  20.515  0.00  0.00    +0.000 HD
ENDBRANCH   1   8
BRANCH   3  18
ATOM     18  C   UNL     1       2.170   7.977  18.415  0.00  0.00    +0.000 A 
ATOM     19  C   UNL     1       1.618   8.898  17.515  0.00  0.00    +0.000 A 
ATOM     20  C   UNL     1       0.723   9.872  17.948  0.00  0.00    +0.000 A 
ATOM     21  C   UNL     1       0.362   9.941  19.288  0.00  0.00    +0.000 A 
ATOM     22  C   UNL     1       0.872   9.005  20.194  0.00  0.00    +0.000 A 
ATOM     23  C   UNL     1       1.758   8.008  19.753  0.00  0.00    +0.000 A 
BRANCH  22  24
ATOM     24  C   UNL     1       0.578   9.137  21.630  0.00  0.00    +0.000 A 
ATOM     25  N   UNL     1      -0.615   9.155  22.152  0.00  0.00    +0.000 NA
ATOM     26  N   UNL     1      -0.378   9.228  23.500  0.00  0.00    +0.000 N 
ATOM     27  C   UNL     1       0.982   9.249  23.763  0.00  0.00    +0.000 A 
ATOM     28  O   UNL     1       1.532   9.265  24.848  0.00  0.00    +0.000 OA
ATOM     29  N   UNL     1       1.582   9.225  22.542  0.00  0.00    +0.000 N 
ATOM     30  H   UNL     1      -1.114   9.178  24.191  0.00  0.00    +0.000 HD
ATOM     31  H   UNL     1       2.578   9.240  22.416  0.00  0.00    +0.000 HD
ENDBRANCH  22  24
ENDBRANCH   3  18
TORSDOF 3
ENDMDL
