MODEL 1
REMARK VINA RESULT:      -8.2      0.000      0.000
REMARK  Name = 
REMARK  6 active torsions:
REMARK  status: ('A' for Active; 'I' for Inactive)
REMARK    1  A    between atoms: C_1  and  C_2
REMARK    2  A    between atoms: C_7  and  C_8
REMARK    3  A    between atoms: N_10  and  C_11
REMARK    4  A    between atoms: C_14  and  C_15
REMARK    5  A    between atoms: C_21  and  C_22
REMARK    6  A    between atoms: C_27  and  C_28
REMARK                            x       y       z     vdW  Elec       q    Type
REMARK                         _______ _______ _______ _____ _____    ______ ____
ROOT
ATOM      1  C   UNL     1       1.264   9.026  19.004  0.00  0.00    +0.000 A 
ATOM      2  C   UNL     1       2.079   9.319  17.919  0.00  0.00    +0.000 A 
ATOM      3  C   UNL     1       3.060   8.418  17.502  0.00  0.00    +0.000 A 
ATOM      4  C   UNL     1       3.258   7.168  18.126  0.00  0.00    +0.000 A 
ATOM      5  C   UNL     1       2.454   6.887  19.262  0.00  0.00    +0.000 A 
ATOM      6  C   UNL     1       1.503   7.850  19.710  0.00  0.00    +0.000 A 
ENDROOT
BRANCH   4   7
ATOM      7  C   UNL     1       4.241   6.239  17.506  0.00  0.00    +0.000 A 
ATOM      8  C   UNL     1       5.594   6.565  17.336  0.00  0.00    +0.000 A 
ATOM      9  C   UNL     1       6.517   5.624  16.865  0.00  0.00    +0.000 A 
ATOM     10  C   UNL     1       6.093   4.362  16.462  0.00  0.00    +0.000 A 
ATOM     11  C   UNL     1       4.743   4.043  16.522  0.00  0.00    +0.000 A 
ATOM     12  C   UNL     1       3.835   4.964  17.053  0.00  0.00    +0.000 A 
ENDBRANCH   4   7
BRANCH   1  15
ATOM     13  C   UNL     1       0.351  10.968  20.221  0.00  0.00    +0.000 C 
ATOM     14  O   UNL     1       1.449  11.401  20.580  0.00  0.00    +0.000 OA
ATOM     15  N   UNL     1       0.200   9.864  19.401  0.00  0.00    +0.000 N 
ATOM     16  H   UNL     1      -0.679   9.791  18.888  0.00  0.00    +0.000 HD
BRANCH  13  23
ATOM     17  C   UNL     1      -3.230  12.378  23.528  0.00  0.00    +0.000 C 
ATOM     18  C   UNL     1      -2.620  12.434  22.141  0.00  0.00    +0.000 A 
ATOM     19  N   UNL     1      -3.184  13.238  21.293  0.00  0.00    +0.000 NA
ATOM     20  N   UNL     1      -2.644  13.305  20.054  0.00  0.00    +0.000 N 
ATOM     21  C   UNL     1      -1.556  12.603  19.615  0.00  0.00    +0.000 A 
ATOM     22  O   UNL     1      -1.153  12.703  18.457  0.00  0.00    +0.000 OA
ATOM     23  C   UNL     1      -0.898  11.704  20.600  0.00  0.00    +0.000 A 
ATOM     24  C   UNL     1      -1.419  11.585  21.842  0.00  0.00    +0.000 A 
ATOM     25  C   UNL     1      -0.950  10.704  22.971  0.00  0.00    +0.000 C 
ATOM     26  H   UNL     1      -3.097  13.937  19.400  0.00  0.00    +0.000 HD
ENDBRANCH  13  23
ENDBRANCH   1  15
BRANCH   5  27
ATOM     27  C   UNL     1       2.489   5.608  20.075  0.00  0.00    +0.000 C 
ATOM     28  F   UNL     1       3.711   5.076  20.329  0.00  0.00    +0.000 F 
ATOM     29  F   UNL     1       1.888   5.769  21.290  0.00  0.00    +0.000 F 
ATOM     30  F   UNL     1       1.798   4.597  19.466  0.00  0.00    +0.000 F 
ENDBRANCH   5  27
TORSDOF 4
ENDMDL
MODEL 2
REMARK VINA RESULT:      -8.1      0.135      1.152
REMARK  Name = 
REMARK  6 active torsions:
REMARK  status: ('A' for Active; 'I' for Inactive)
REMARK    1  A    between atoms: C_1  and  C_2
REMARK    2  A    between atoms: C_7  and  C_8
REMARK    3  A    between atoms: N_10  and  C_11
REMARK    4  A    between atoms: C_14  and  C_15
REMARK    5  A    between atoms: C_21  and  C_22
REMARK    6  A    between atoms: C_27  and  C_28
REMARK                            x       y       z     vdW  Elec       q    Type
REMARK                         _______ _______ _______ _____ _____    ______ ____
ROOT
ATOM      1  C   UNL     1       1.316   8.978  18.969  0.00  0.00    +0.000 A 
ATOM      2  C   UNL     1       2.154   9.281  17.905  0.00  0.00    +0.000 A 
ATOM      3  C   UNL     1       3.135   8.379  17.492  0.00  0.00    +0.000 A 
ATOM      4  C   UNL     1       3.312   7.118  18.101  0.00  0.00    +0.000 A 
ATOM      5  C   UNL     1       2.486   6.826  19.218  0.00  0.00    +0.000 A 
ATOM      6  C   UNL     1       1.533   7.790  19.662  0.00  0.00    +0.000 A 
ENDROOT
BRANCH   4   7
ATOM      7  C   UNL     1       4.301   6.191  17.486  0.00  0.00    +0.000 A 
ATOM      8  C   UNL     1       3.947   4.939  16.963  0.00  0.00    +0.000 A 
ATOM      9  C   UNL     1       4.876   4.146  16.279  0.00  0.00    +0.000 A 
ATOM     10  C   UNL     1       6.206   4.542  16.184  0.00  0.00    +0.000 A 
ATOM     11  C   UNL     1       6.609   5.729  16.781  0.00  0.00    +0.000 A 
ATOM     12  C   UNL     1       5.665   6.548  17.407  0.00  0.00    +0.000 A 
ENDBRANCH   4   7
BRANCH   1  15
ATOM     13  C   UNL     1       0.405  10.949  20.140  0.00  0.00    +0.000 C 
ATOM     14  O   UNL     1       1.505  11.404  20.466  0.00  0.00    +0.000 OA
ATOM     15  N   UNL     1       0.251   9.818  19.359  0.00  0.00    +0.000 N 
ATOM     16  H   UNL     1      -0.637   9.720  18.864  0.00  0.00    +0.000 HD
BRANCH  13  23
ATOM     17  C   UNL     1      -3.143  12.411  23.461  0.00  0.00    +0.000 C 
ATOM     18  C   UNL     1      -2.552  12.438  22.065  0.00  0.00    +0.000 A 
ATOM     19  N   UNL     1      -3.133  13.217  21.206  0.00  0.00    +0.000 NA
ATOM     20  N   UNL     1      -2.610  13.259  19.958  0.00  0.00    +0.000 N 
ATOM     21  C   UNL     1      -1.523  12.555  19.522  0.00  0.00    +0.000 A 
ATOM     22  O   UNL     1      -1.135  12.630  18.357  0.00  0.00    +0.000 OA
ATOM     23  C   UNL     1      -0.845  11.684  20.518  0.00  0.00    +0.000 A 
ATOM     24  C   UNL     1      -1.348  11.591  21.770  0.00  0.00    +0.000 A 
ATOM     25  C   UNL     1      -0.858  10.741  22.913  0.00  0.00    +0.000 C 
ATOM     26  H   UNL     1      -3.076  13.872  19.296  0.00  0.00    +0.000 HD
ENDBRANCH  13  23
ENDBRANCH   1  15
BRANCH   5  27
ATOM     27  C   UNL     1       2.496   5.535  20.012  0.00  0.00    +0.000 C 
ATOM     28  F   UNL     1       1.878   4.465  19.451  0.00  0.00    +0.000 F 
ATOM     29  F   UNL     1       3.768   5.129  20.295  0.00  0.00    +0.000 F 
ATOM     30  F   UNL     1       1.888   5.678  21.229  0.00  0.00    +0.000 F 
ENDBRANCH   5  27
TORSDOF 4
ENDMDL
MODEL 3
REMARK VINA RESULT:      -8.1      1.148      2.194
REMARK  Name = 
REMARK  6 active torsions:
REMARK  status: ('A' for Active; 'I' for Inactive)
REMARK    1  A    between atoms: C_1  and  C_2
REMARK    2  A    between atoms: C_7  and  C_8
REMARK    3  A    between atoms: N_10  and  C_11
REMARK    4  A    between atoms: C_14  and  C_15
REMARK    5  A    between atoms: C_21  and  C_22
REMARK    6  A    between atoms: C_27  and  C_28
REMARK                            x       y       z     vdW  Elec       q    Type
REMARK                         _______ _______ _______ _____ _____    ______ ____
ROOT
ATOM      1  C   UNL     1       1.284   8.593  19.630  0.00  0.00    +0.000 A 
ATOM      2  C   UNL     1       1.892   9.004  18.452  0.00  0.00    +0.000 A 
ATOM      3  C   UNL     1       2.820   8.185  17.807  0.00  0.00    +0.000 A 
ATOM      4  C   UNL     1       3.167   6.905  18.289  0.00  0.00    +0.000 A 
ATOM      5  C   UNL     1       2.580   6.503  19.517  0.00  0.00    +0.000 A 
ATOM      6  C   UNL     1       1.683   7.383  20.192  0.00  0.00    +0.000 A 
ENDROOT
BRANCH   4   7
ATOM      7  C   UNL     1       4.065   6.074  17.442  0.00  0.00    +0.000 A 
ATOM      8  C   UNL     1       3.786   4.738  17.119  0.00  0.00    +0.000 A 
ATOM      9  C   UNL     1       4.586   4.023  16.220  0.00  0.00    +0.000 A 
ATOM     10  C   UNL     1       5.739   4.596  15.693  0.00  0.00    +0.000 A 
ATOM     11  C   UNL     1       6.098   5.882  16.073  0.00  0.00    +0.000 A 
ATOM     12  C   UNL     1       5.262   6.614  16.922  0.00  0.00    +0.000 A 
ENDBRANCH   4   7
BRANCH   1  15
ATOM     13  C   UNL     1       0.410  10.673  20.628  0.00  0.00    +0.000 C 
ATOM     14  O   UNL     1       1.385  11.364  20.318  0.00  0.00    +0.000 OA
ATOM     15  N   UNL     1       0.272   9.346  20.264  0.00  0.00    +0.000 N 
ATOM     16  H   UNL     1      -0.677   8.969  20.255  0.00  0.00    +0.000 HD
BRANCH  13  23
ATOM     17  C   UNL     1      -3.809  13.487  20.839  0.00  0.00    +0.000 C 
ATOM     18  C   UNL     1      -2.775  12.606  21.514  0.00  0.00    +0.000 A 
ATOM     19  N   UNL     1      -2.979  12.330  22.765  0.00  0.00    +0.000 NA
ATOM     20  N   UNL     1      -2.069  11.538  23.379  0.00  0.00    +0.000 N 
ATOM     21  C   UNL     1      -0.955  11.000  22.798  0.00  0.00    +0.000 A 
ATOM     22  O   UNL     1      -0.162  10.315  23.442  0.00  0.00    +0.000 OA
ATOM     23  C   UNL     1      -0.741  11.298  21.357  0.00  0.00    +0.000 A 
ATOM     24  C   UNL     1      -1.610  12.107  20.710  0.00  0.00    +0.000 A 
ATOM     25  C   UNL     1      -1.560  12.578  19.279  0.00  0.00    +0.000 C 
ATOM     26  H   UNL     1      -2.241  11.331  24.358  0.00  0.00    +0.000 HD
ENDBRANCH  13  23
ENDBRANCH   1  15
BRANCH   5  27
ATOM     27  C   UNL     1       2.800   5.172  20.209  0.00  0.00    +0.000 C 
ATOM     28  F   UNL     1       2.189   4.090  19.664  0.00  0.00    +0.000 F 
ATOM     29  F   UNL     1       4.126   4.859  20.284  0.00  0.00    +0.000 F 
ATOM     30  F   UNL     1       2.363   5.191  21.505  0.00  0.00    +0.000 F 
ENDBRANCH   5  27
TORSDOF 4
ENDMDL
MODEL 4
REMARK VINA RESULT:      -8.1      1.125      1.860
REMARK  Name = 
REMARK  6 active torsions:
REMARK  status: ('A' for Active; 'I' for Inactive)
REMARK    1  A    between atoms: C_1  and  C_2
REMARK    2  A    between atoms: C_7  and  C_8
REMARK    3  A    between atoms: N_10  and  C_11
REMARK    4  A    between atoms: C_14  and  C_15
REMARK    5  A    between atoms: C_21  and  C_22
REMARK    6  A    between atoms: C_27  and  C_28
REMARK                            x       y       z     vdW  Elec       q    Type
REMARK                         _______ _______ _______ _____ _____    ______ ____
ROOT
ATOM      1  C   UNL     1       1.297   8.620  19.609  0.00  0.00    +0.000 A 
ATOM      2  C   UNL     1       1.905   9.033  18.431  0.00  0.00    +0.000 A 
ATOM      3  C   UNL     1       2.836   8.218  17.787  0.00  0.00    +0.000 A 
ATOM      4  C   UNL     1       3.186   6.938  18.268  0.00  0.00    +0.000 A 
ATOM      5  C   UNL     1       2.598   6.534  19.496  0.00  0.00    +0.000 A 
ATOM      6  C   UNL     1       1.698   7.411  20.169  0.00  0.00    +0.000 A 
ENDROOT
BRANCH   4   7
ATOM      7  C   UNL     1       4.088   6.109  17.422  0.00  0.00    +0.000 A 
ATOM      8  C   UNL     1       5.308   6.582  16.920  0.00  0.00    +0.000 A 
ATOM      9  C   UNL     1       6.190   5.739  16.233  0.00  0.00    +0.000 A 
ATOM     10  C   UNL     1       5.831   4.425  15.949  0.00  0.00    +0.000 A 
ATOM     11  C   UNL     1       4.585   3.957  16.345  0.00  0.00    +0.000 A 
ATOM     12  C   UNL     1       3.735   4.783  17.086  0.00  0.00    +0.000 A 
ENDBRANCH   4   7
BRANCH   1  15
ATOM     13  C   UNL     1       0.423  10.692  20.625  0.00  0.00    +0.000 C 
ATOM     14  O   UNL     1       1.406  11.381  20.336  0.00  0.00    +0.000 OA
ATOM     15  N   UNL     1       0.282   9.370  20.241  0.00  0.00    +0.000 N 
ATOM     16  H   UNL     1      -0.669   9.000  20.216  0.00  0.00    +0.000 HD
BRANCH  13  23
ATOM     17  C   UNL     1      -3.794  13.508  20.824  0.00  0.00    +0.000 C 
ATOM     18  C   UNL     1      -2.766  12.622  21.501  0.00  0.00    +0.000 A 
ATOM     19  N   UNL     1      -2.979  12.339  22.749  0.00  0.00    +0.000 NA
ATOM     20  N   UNL     1      -2.074  11.542  23.364  0.00  0.00    +0.000 N 
ATOM     21  C   UNL     1      -0.956  11.006  22.787  0.00  0.00    +0.000 A 
ATOM     22  O   UNL     1      -0.169  10.316  23.433  0.00  0.00    +0.000 OA
ATOM     23  C   UNL     1      -0.732  11.313  21.350  0.00  0.00    +0.000 A 
ATOM     24  C   UNL     1      -1.595  12.127  20.702  0.00  0.00    +0.000 A 
ATOM     25  C   UNL     1      -1.535  12.606  19.274  0.00  0.00    +0.000 C 
ATOM     26  H   UNL     1      -2.253  11.329  24.341  0.00  0.00    +0.000 HD
ENDBRANCH  13  23
ENDBRANCH   1  15
BRANCH   5  27
ATOM     27  C   UNL     1       2.820   5.203  20.187  0.00  0.00    +0.000 C 
ATOM     28  F   UNL     1       4.095   4.740  20.229  0.00  0.00    +0.000 F 
ATOM     29  F   UNL     1       2.387   5.231  21.481  0.00  0.00    +0.000 F 
ATOM     30  F   UNL     1       2.111   4.195  19.595  0.00  0.00    +0.000 F 
ENDBRANCH   5  27
TORSDOF 4
ENDMDL
MODEL 5
REMARK VINA RESULT:      -7.9      3.734      8.924
REMARK  Name = 
REMARK  6 active torsions:
REMARK  status: ('A' for Active; 'I' for Inactive)
REMARK    1  A    between atoms: C_1  and  C_2
REMARK    2  A    between atoms: C_7  and  C_8
REMARK    3  A    between atoms: N_10  and  C_11
REMARK    4  A    between atoms: C_14  and  C_15
REMARK    5  A    between atoms: C_21  and  C_22
REMARK    6  A    between atoms: C_27  and  C_28
REMARK                            x       y       z     vdW  Elec       q    Type
REMARK                         _______ _______ _______ _____ _____    ______ ____
ROOT
ATOM      1  C   UNL     1       2.784   8.102  18.212  0.00  0.00    +0.000 A 
ATOM      2  C   UNL     1       2.247   9.123  17.439  0.00  0.00    +0.000 A 
ATOM      3  C   UNL     1       1.189   9.897  17.918  0.00  0.00    +0.000 A 
ATOM      4  C   UNL     1       0.632   9.712  19.201  0.00  0.00    +0.000 A 
ATOM      5  C   UNL     1       1.151   8.640  19.974  0.00  0.00    +0.000 A 
ATOM      6  C   UNL     1       2.189   7.821  19.439  0.00  0.00    +0.000 A 
ENDROOT
BRANCH   4   7
ATOM      7  C   UNL     1      -0.399  10.687  19.649  0.00  0.00    +0.000 A 
ATOM      8  C   UNL     1      -0.239  11.497  20.783  0.00  0.00    +0.000 A 
ATOM      9  C   UNL     1      -1.171  12.491  21.105  0.00  0.00    +0.000 A 
ATOM     10  C   UNL     1      -2.334  12.636  20.355  0.00  0.00    +0.000 A 
ATOM     11  C   UNL     1      -2.570  11.781  19.287  0.00  0.00    +0.000 A 
ATOM     12  C   UNL     1      -1.607  10.833  18.931  0.00  0.00    +0.000 A 
ENDBRANCH   4   7
BRANCH   1  15
ATOM     13  C   UNL     1       3.929   5.980  17.694  0.00  0.00    +0.000 C 
ATOM     14  O   UNL     1       2.921   5.277  17.812  0.00  0.00    +0.000 OA
ATOM     15  N   UNL     1       3.913   7.358  17.807  0.00  0.00    +0.000 N 
ATOM     16  H   UNL     1       4.681   7.863  17.365  0.00  0.00    +0.000 HD
BRANCH  13  23
ATOM     17  C   UNL     1       7.615   4.847  14.395  0.00  0.00    +0.000 C 
ATOM     18  C   UNL     1       7.040   4.801  15.797  0.00  0.00    +0.000 A 
ATOM     19  N   UNL     1       7.784   4.256  16.710  0.00  0.00    +0.000 NA
ATOM     20  N   UNL     1       7.287   4.217  17.968  0.00  0.00    +0.000 N 
ATOM     21  C   UNL     1       6.071   4.700  18.365  0.00  0.00    +0.000 A 
ATOM     22  O   UNL     1       5.686   4.592  19.528  0.00  0.00    +0.000 OA
ATOM     23  C   UNL     1       5.235   5.348  17.320  0.00  0.00    +0.000 A 
ATOM     24  C   UNL     1       5.679   5.386  16.043  0.00  0.00    +0.000 A 
ATOM     25  C   UNL     1       4.983   5.942  14.828  0.00  0.00    +0.000 C 
ATOM     26  H   UNL     1       7.879   3.787  18.672  0.00  0.00    +0.000 HD
ENDBRANCH  13  23
ENDBRANCH   1  15
BRANCH   5  27
ATOM     27  C   UNL     1       0.713   8.269  21.377  0.00  0.00    +0.000 C 
ATOM     28  F   UNL     1      -0.622   8.256  21.619  0.00  0.00    +0.000 F 
ATOM     29  F   UNL     1       1.173   7.034  21.736  0.00  0.00    +0.000 F 
ATOM     30  F   UNL     1       1.220   9.125  22.315  0.00  0.00    +0.000 F 
ENDBRANCH   5  27
TORSDOF 4
ENDMDL
MODEL 6
REMARK VINA RESULT:      -7.7      3.659      8.848
REMARK  Name = 
REMARK  6 active torsions:
REMARK  status: ('A' for Active; 'I' for Inactive)
REMARK    1  A    between atoms: C_1  and  C_2
REMARK    2  A    between atoms: C_7  and  C_8
REMARK    3  A    between atoms: N_10  and  C_11
REMARK    4  A    between atoms: C_14  and  C_15
REMARK    5  A    between atoms: C_21  and  C_22
REMARK    6  A    between atoms: C_27  and  C_28
REMARK                            x       y       z     vdW  Elec       q    Type
REMARK                         _______ _______ _______ _____ _____    ______ ____
ROOT
ATOM      1  C   UNL     1       2.113   8.441  18.790  0.00  0.00    +0.000 A 
ATOM      2  C   UNL     1       1.673   9.380  17.866  0.00  0.00    +0.000 A 
ATOM      3  C   UNL     1       0.664  10.284  18.197  0.00  0.00    +0.000 A 
ATOM      4  C   UNL     1       0.063  10.319  19.473  0.00  0.00    +0.000 A 
ATOM      5  C   UNL     1       0.481   9.332  20.403  0.00  0.00    +0.000 A 
ATOM      6  C   UNL     1       1.468   8.376  20.022  0.00  0.00    +0.000 A 
ENDROOT
BRANCH   4   7
ATOM      7  C   UNL     1      -0.904  11.417  19.747  0.00  0.00    +0.000 A 
ATOM      8  C   UNL     1      -2.253  11.355  19.368  0.00  0.00    +0.000 A 
ATOM      9  C   UNL     1      -3.164  12.347  19.750  0.00  0.00    +0.000 A 
ATOM     10  C   UNL     1      -2.729  13.475  20.440  0.00  0.00    +0.000 A 
ATOM     11  C   UNL     1      -1.381  13.614  20.740  0.00  0.00    +0.000 A 
ATOM     12  C   UNL     1      -0.487  12.591  20.413  0.00  0.00    +0.000 A 
ENDBRANCH   4   7
BRANCH   1  15
ATOM     13  C   UNL     1       3.047   6.252  18.141  0.00  0.00    +0.000 C 
ATOM     14  O   UNL     1       1.957   5.746  17.858  0.00  0.00    +0.000 OA
ATOM     15  N   UNL     1       3.194   7.571  18.531  0.00  0.00    +0.000 N 
ATOM     16  H   UNL     1       4.119   7.985  18.408  0.00  0.00    +0.000 HD
BRANCH  13  23
ATOM     17  C   UNL     1       7.369   5.068  15.759  0.00  0.00    +0.000 C 
ATOM     18  C   UNL     1       6.392   4.861  16.901  0.00  0.00    +0.000 A 
ATOM     19  N   UNL     1       6.737   4.001  17.808  0.00  0.00    +0.000 NA
ATOM     20  N   UNL     1       5.879   3.812  18.838  0.00  0.00    +0.000 N 
ATOM     21  C   UNL     1       4.680   4.447  19.008  0.00  0.00    +0.000 A 
ATOM     22  O   UNL     1       3.947   4.188  19.960  0.00  0.00    +0.000 OA
ATOM     23  C   UNL     1       4.303   5.451  17.978  0.00  0.00    +0.000 A 
ATOM     24  C   UNL     1       5.117   5.654  16.918  0.00  0.00    +0.000 A 
ATOM     25  C   UNL     1       4.911   6.575  15.743  0.00  0.00    +0.000 C 
ATOM     26  H   UNL     1       6.161   3.135  19.540  0.00  0.00    +0.000 HD
ENDBRANCH  13  23
ENDBRANCH   1  15
BRANCH   5  27
ATOM     27  C   UNL     1      -0.018   9.191  21.828  0.00  0.00    +0.000 C 
ATOM     28  F   UNL     1      -0.610  10.280  22.380  0.00  0.00    +0.000 F 
ATOM     29  F   UNL     1      -0.920   8.172  21.945  0.00  0.00    +0.000 F 
ATOM     30  F   UNL     1       0.991   8.876  22.695  0.00  0.00    +0.000 F 
ENDBRANCH   5  27
TORSDOF 4
ENDMDL
MODEL 7
REMARK VINA RESULT:      -7.7      3.721      8.920
REMARK  Name = 
REMARK  6 active torsions:
REMARK  status: ('A' for Active; 'I' for Inactive)
REMARK    1  A    between atoms: C_1  and  C_2
REMARK    2  A    between atoms: C_7  and  C_8
REMARK    3  A    between atoms: N_10  and  C_11
REMARK    4  A    between atoms: C_14  and  C_15
REMARK    5  A    between atoms: C_21  and  C_22
REMARK    6  A    between atoms: C_27  and  C_28
REMARK                            x       y       z     vdW  Elec       q    Type
REMARK                         _______ _______ _______ _____ _____    ______ ____
ROOT
ATOM      1  C   UNL     1       2.755   8.160  18.245  0.00  0.00    +0.000 A 
ATOM      2  C   UNL     1       2.216   9.162  17.449  0.00  0.00    +0.000 A 
ATOM      3  C   UNL     1       1.156   9.944  17.908  0.00  0.00    +0.000 A 
ATOM      4  C   UNL     1       0.599   9.787  19.195  0.00  0.00    +0.000 A 
ATOM      5  C   UNL     1       1.120   8.735  19.993  0.00  0.00    +0.000 A 
ATOM      6  C   UNL     1       2.160   7.907  19.478  0.00  0.00    +0.000 A 
ENDROOT
BRANCH   4   7
ATOM      7  C   UNL     1      -0.435  10.770  19.620  0.00  0.00    +0.000 A 
ATOM      8  C   UNL     1      -1.658  10.925  18.952  0.00  0.00    +0.000 A 
ATOM      9  C   UNL     1      -2.659  11.767  19.449  0.00  0.00    +0.000 A 
ATOM     10  C   UNL     1      -2.426  12.548  20.577  0.00  0.00    +0.000 A 
ATOM     11  C   UNL     1      -1.188  12.494  21.202  0.00  0.00    +0.000 A 
ATOM     12  C   UNL     1      -0.214  11.604  20.739  0.00  0.00    +0.000 A 
ENDBRANCH   4   7
BRANCH   1  15
ATOM     13  C   UNL     1       3.930   6.027  17.850  0.00  0.00    +0.000 C 
ATOM     14  O   UNL     1       2.943   5.316  18.058  0.00  0.00    +0.000 OA
ATOM     15  N   UNL     1       3.886   7.410  17.858  0.00  0.00    +0.000 N 
ATOM     16  H   UNL     1       4.628   7.895  17.352  0.00  0.00    +0.000 HD
BRANCH  13  23
ATOM     17  C   UNL     1       7.566   4.791  14.533  0.00  0.00    +0.000 C 
ATOM     18  C   UNL     1       7.018   4.801  15.948  0.00  0.00    +0.000 A 
ATOM     19  N   UNL     1       7.786   4.307  16.869  0.00  0.00    +0.000 NA
ATOM     20  N   UNL     1       7.314   4.318  18.137  0.00  0.00    +0.000 N 
ATOM     21  C   UNL     1       6.100   4.805  18.536  0.00  0.00    +0.000 A 
ATOM     22  O   UNL     1       5.739   4.744  19.710  0.00  0.00    +0.000 OA
ATOM     23  C   UNL     1       5.236   5.394  17.479  0.00  0.00    +0.000 A 
ATOM     24  C   UNL     1       5.655   5.381  16.194  0.00  0.00    +0.000 A 
ATOM     25  C   UNL     1       4.929   5.873  14.969  0.00  0.00    +0.000 C 
ATOM     26  H   UNL     1       7.925   3.927  18.848  0.00  0.00    +0.000 HD
ENDBRANCH  13  23
ENDBRANCH   1  15
BRANCH   5  27
ATOM     27  C   UNL     1       0.682   8.395  21.404  0.00  0.00    +0.000 C 
ATOM     28  F   UNL     1       1.061   9.251  22.386  0.00  0.00    +0.000 F 
ATOM     29  F   UNL     1      -0.676   8.292  21.497  0.00  0.00    +0.000 F 
ATOM     30  F   UNL     1       1.161   7.180  21.810  0.00  0.00    +0.000 F 
ENDBRANCH   5  27
TORSDOF 4
ENDMDL
MODEL 8
REMARK VINA RESULT:      -7.6      2.498      3.603
REMARK  Name = 
REMARK  6 active torsions:
REMARK  status: ('A' for Active; 'I' for Inactive)
REMARK    1  A    between atoms: C_1  and  C_2
REMARK    2  A    between atoms: C_7  and  C_8
REMARK    3  A    between atoms: N_10  and  C_11
REMARK    4  A    between atoms: C_14  and  C_15
REMARK    5  A    between atoms: C_21  and  C_22
REMARK    6  A    between atoms: C_27  and  C_28
REMARK                            x       y       z     vdW  Elec       q    Type
REMARK                         _______ _______ _______ _____ _____    ______ ____
ROOT
ATOM      1  C   UNL     1       1.463   7.916  20.571  0.00  0.00    +0.000 A 
ATOM      2  C   UNL     1       0.976   6.746  21.137  0.00  0.00    +0.000 A 
ATOM      3  C   UNL     1       1.355   5.500  20.635  0.00  0.00    +0.000 A 
ATOM      4  C   UNL     1       2.261   5.357  19.562  0.00  0.00    +0.000 A 
ATOM      5  C   UNL     1       2.725   6.553  18.954  0.00  0.00    +0.000 A 
ATOM      6  C   UNL     1       2.274   7.815  19.443  0.00  0.00    +0.000 A 
ENDROOT
BRANCH   4   7
ATOM      7  C   UNL     1       2.691   3.978  19.206  0.00  0.00    +0.000 A 
ATOM      8  C   UNL     1       2.037   3.202  18.238  0.00  0.00    +0.000 A 
ATOM      9  C   UNL     1       2.541   1.960  17.837  0.00  0.00    +0.000 A 
ATOM     10  C   UNL     1       3.660   1.418  18.463  0.00  0.00    +0.000 A 
ATOM     11  C   UNL     1       4.269   2.116  19.497  0.00  0.00    +0.000 A 
ATOM     12  C   UNL     1       3.800   3.385  19.849  0.00  0.00    +0.000 A 
ENDBRANCH   4   7
BRANCH   1  15
ATOM     13  C   UNL     1       0.212  10.042  20.604  0.00  0.00    +0.000 C 
ATOM     14  O   UNL     1      -0.587   9.715  19.722  0.00  0.00    +0.000 OA
ATOM     15  N   UNL     1       1.182   9.191  21.105  0.00  0.00    +0.000 N 
ATOM     16  H   UNL     1       1.548   9.410  22.032  0.00  0.00    +0.000 HD
BRANCH  13  23
ATOM     17  C   UNL     1       1.051  15.043  20.793  0.00  0.00    +0.000 C 
ATOM     18  C   UNL     1       0.440  13.784  21.380  0.00  0.00    +0.000 A 
ATOM     19  N   UNL     1      -0.284  13.935  22.445  0.00  0.00    +0.000 NA
ATOM     20  N   UNL     1      -0.842  12.822  22.974  0.00  0.00    +0.000 N 
ATOM     21  C   UNL     1      -0.713  11.551  22.486  0.00  0.00    +0.000 A 
ATOM     22  O   UNL     1      -1.231  10.591  23.053  0.00  0.00    +0.000 OA
ATOM     23  C   UNL     1       0.096  11.389  21.249  0.00  0.00    +0.000 A 
ATOM     24  C   UNL     1       0.695  12.470  20.701  0.00  0.00    +0.000 A 
ATOM     25  C   UNL     1       1.592  12.528  19.491  0.00  0.00    +0.000 C 
ATOM     26  H   UNL     1      -1.406  12.955  23.809  0.00  0.00    +0.000 HD
ENDBRANCH  13  23
ENDBRANCH   1  15
BRANCH   5  27
ATOM     27  C   UNL     1       3.707   6.636  17.803  0.00  0.00    +0.000 C 
ATOM     28  F   UNL     1       3.657   5.641  16.881  0.00  0.00    +0.000 F 
ATOM     29  F   UNL     1       3.566   7.802  17.106  0.00  0.00    +0.000 F 
ATOM     30  F   UNL     1       5.004   6.633  18.235  0.00  0.00    +0.000 F 
ENDBRANCH   5  27
TORSDOF 4
ENDMDL
MODEL 9
REMARK VINA RESULT:      -7.6      2.499      3.480
REMARK  Name = 
REMARK  6 active torsions:
REMARK  status: ('A' for Active; 'I' for Inactive)
REMARK    1  A    between atoms: C_1  and  C_2
REMARK    2  A    between atoms: C_7  and  C_8
REMARK    3  A    between atoms: N_10  and  C_11
REMARK    4  A    between atoms: C_14  and  C_15
REMARK    5  A    between atoms: C_21  and  C_22
REMARK    6  A    between atoms: C_27  and  C_28
REMARK                            x       y       z     vdW  Elec       q    Type
REMARK                         _______ _______ _______ _____ _____    ______ ____
ROOT
ATOM      1  C   UNL     1       1.472   7.950  20.562  0.00  0.00    +0.000 A 
ATOM      2  C   UNL     1       1.031   6.756  21.117  0.00  0.00    +0.000 A 
ATOM      3  C   UNL     1       1.443   5.532  20.590  0.00  0.00    +0.000 A 
ATOM      4  C   UNL     1       2.338   5.435  19.503  0.00  0.00    +0.000 A 
ATOM      5  C   UNL     1       2.755   6.655  18.908  0.00  0.00    +0.000 A 
ATOM      6  C   UNL     1       2.270   7.893  19.423  0.00  0.00    +0.000 A 
ENDROOT
BRANCH   4   7
ATOM      7  C   UNL     1       2.809   4.076  19.120  0.00  0.00    +0.000 A 
ATOM      8  C   UNL     1       3.957   3.485  19.667  0.00  0.00    +0.000 A 
ATOM      9  C   UNL     1       4.302   2.159  19.380  0.00  0.00    +0.000 A 
ATOM     10  C   UNL     1       3.559   1.421  18.464  0.00  0.00    +0.000 A 
ATOM     11  C   UNL     1       2.475   2.012  17.828  0.00  0.00    +0.000 A 
ATOM     12  C   UNL     1       2.098   3.314  18.166  0.00  0.00    +0.000 A 
ENDBRANCH   4   7
BRANCH   1  15
ATOM     13  C   UNL     1       0.213  10.072  20.593  0.00  0.00    +0.000 C 
ATOM     14  O   UNL     1      -0.534   9.771  19.658  0.00  0.00    +0.000 OA
ATOM     15  N   UNL     1       1.156   9.207  21.120  0.00  0.00    +0.000 N 
ATOM     16  H   UNL     1       1.470   9.397  22.073  0.00  0.00    +0.000 HD
BRANCH  13  23
ATOM     17  C   UNL     1       0.884  15.092  20.904  0.00  0.00    +0.000 C 
ATOM     18  C   UNL     1       0.320  13.799  21.462  0.00  0.00    +0.000 A 
ATOM     19  N   UNL     1      -0.401  13.898  22.536  0.00  0.00    +0.000 NA
ATOM     20  N   UNL     1      -0.918  12.753  23.040  0.00  0.00    +0.000 N 
ATOM     21  C   UNL     1      -0.749  11.501  22.518  0.00  0.00    +0.000 A 
ATOM     22  O   UNL     1      -1.231  10.509  23.063  0.00  0.00    +0.000 OA
ATOM     23  C   UNL     1       0.056  11.398  21.273  0.00  0.00    +0.000 A 
ATOM     24  C   UNL     1       0.615  12.512  20.749  0.00  0.00    +0.000 A 
ATOM     25  C   UNL     1       1.501  12.631  19.535  0.00  0.00    +0.000 C 
ATOM     26  H   UNL     1      -1.480  12.846  23.881  0.00  0.00    +0.000 HD
ENDBRANCH  13  23
ENDBRANCH   1  15
BRANCH   5  27
ATOM     27  C   UNL     1       3.717   6.787  17.745  0.00  0.00    +0.000 C 
ATOM     28  F   UNL     1       5.040   6.815  18.044  0.00  0.00    +0.000 F 
ATOM     29  F   UNL     1       3.557   5.776  16.842  0.00  0.00    +0.000 F 
ATOM     30  F   UNL     1       3.506   7.937  17.034  0.00  0.00    +0.000 F 
ENDBRANCH   5  27
TORSDOF 4
ENDMDL
