MODEL 1
REMARK VINA RESULT:      -8.6      0.000      0.000
REMARK  Name = 
REMARK  5 active torsions:
REMARK  status: ('A' for Active; 'I' for Inactive)
REMARK    1  A    between atoms: C_1  and  C_2
REMARK    2  A    between atoms: C_2  and  C_3
REMARK    3  A    between atoms: N_7  and  C_8
REMARK    4  A    between atoms: C_13  and  N_14
REMARK    5  A    between atoms: C_15  and  C_17
REMARK                            x       y       z     vdW  Elec       q    Type
REMARK                         _______ _______ _______ _____ _____    ______ ____
ROOT
ATOM      1  C   UNL     1       3.237   5.298  18.657  0.00  0.00    +0.000 A 
ATOM      2  C   UNL     1       2.171   4.380  18.717  0.00  0.00    +0.000 A 
ATOM      3  C   UNL     1       2.402   3.002  18.763  0.00  0.00    +0.000 A 
ATOM      4  C   UNL     1       3.698   2.516  18.714  0.00  0.00    +0.000 A 
ATOM      5  C   UNL     1       4.766   3.406  18.661  0.00  0.00    +0.000 A 
ATOM      6  C   UNL     1       4.557   4.801  18.681  0.00  0.00    +0.000 A 
ENDROOT
BRANCH   1  11
ATOM      7  C   UNL     1       2.183   7.548  19.351  0.00  0.00    +0.000 A 
ATOM      8  N   UNL     1       1.980   8.660  18.672  0.00  0.00    +0.000 NA
ATOM      9  N   UNL     1       2.684   8.542  17.509  0.00  0.00    +0.000 NA
ATOM     10  N   UNL     1       3.321   7.381  17.457  0.00  0.00    +0.000 NA
ATOM     11  N   UNL     1       2.948   6.683  18.551  0.00  0.00    +0.000 N 
BRANCH   7  13
ATOM     12  C   UNL     1       0.784   8.415  21.252  0.00  0.00    +0.000 C 
ATOM     13  C   UNL     1       1.716   7.313  20.753  0.00  0.00    +0.000 C 
ENDBRANCH   7  13
ENDBRANCH   1  11
BRANCH   6  14
ATOM     14  N   UNL     1       5.731   5.592  18.788  0.00  0.00    +0.000 N 
ATOM     15  C   UNL     1       6.567   5.903  17.702  0.00  0.00    +0.000 C 
ATOM     16  O   UNL     1       7.453   6.750  17.796  0.00  0.00    +0.000 OA
ATOM     17  H   UNL     1       6.170   5.700  19.699  0.00  0.00    +0.000 HD
BRANCH  15  18
ATOM     18  C   UNL     1       6.365   5.036  16.458  0.00  0.00    +0.000 C 
ATOM     19  C   UNL     1       5.030   4.916  15.722  0.00  0.00    +0.000 C 
ATOM     20  C   UNL     1       5.621   4.506  14.408  0.00  0.00    +0.000 A 
ATOM     21  C   UNL     1       5.152   3.724  13.375  0.00  0.00    +0.000 A 
ATOM     22  C   UNL     1       6.003   3.497  12.279  0.00  0.00    +0.000 A 
ATOM     23  C   UNL     1       7.280   4.085  12.209  0.00  0.00    +0.000 A 
ATOM     24  C   UNL     1       7.744   4.874  13.254  0.00  0.00    +0.000 A 
ATOM     25  C   UNL     1       6.912   5.022  14.340  0.00  0.00    +0.000 A 
ATOM     26  O   UNL     1       7.314   5.607  15.506  0.00  0.00    +0.000 OA
ENDBRANCH  15  18
ENDBRANCH   6  14
TORSDOF 4
ENDMDL
MODEL 2
REMARK VINA RESULT:      -8.5      2.449      5.968
REMARK  Name = 
REMARK  5 active torsions:
REMARK  status: ('A' for Active; 'I' for Inactive)
REMARK    1  A    between atoms: C_1  and  C_2
REMARK    2  A    between atoms: C_2  and  C_3
REMARK    3  A    between atoms: N_7  and  C_8
REMARK    4  A    between atoms: C_13  and  N_14
REMARK    5  A    between atoms: C_15  and  C_17
REMARK                            x       y       z     vdW  Elec       q    Type
REMARK                         _______ _______ _______ _____ _____    ______ ____
ROOT
ATOM      1  C   UNL     1       6.564   5.310  16.549  0.00  0.00    +0.000 A 
ATOM      2  C   UNL     1       7.248   4.282  15.872  0.00  0.00    +0.000 A 
ATOM      3  C   UNL     1       6.777   3.776  14.656  0.00  0.00    +0.000 A 
ATOM      4  C   UNL     1       5.598   4.263  14.114  0.00  0.00    +0.000 A 
ATOM      5  C   UNL     1       4.910   5.283  14.764  0.00  0.00    +0.000 A 
ATOM      6  C   UNL     1       5.403   5.852  15.958  0.00  0.00    +0.000 A 
ENDROOT
BRANCH   1  11
ATOM      7  C   UNL     1       7.720   6.914  18.205  0.00  0.00    +0.000 A 
ATOM      8  N   UNL     1       8.216   6.711  19.410  0.00  0.00    +0.000 NA
ATOM      9  N   UNL     1       7.784   5.480  19.810  0.00  0.00    +0.000 NA
ATOM     10  N   UNL     1       7.028   4.918  18.878  0.00  0.00    +0.000 NA
ATOM     11  N   UNL     1       7.049   5.745  17.810  0.00  0.00    +0.000 N 
BRANCH   7  13
ATOM     12  C   UNL     1       8.498   9.304  18.265  0.00  0.00    +0.000 C 
ATOM     13  C   UNL     1       7.824   8.202  17.451  0.00  0.00    +0.000 C 
ENDBRANCH   7  13
ENDBRANCH   1  11
BRANCH   6  14
ATOM     14  N   UNL     1       4.696   6.989  16.429  0.00  0.00    +0.000 N 
ATOM     15  C   UNL     1       3.955   7.011  17.623  0.00  0.00    +0.000 C 
ATOM     16  O   UNL     1       3.529   8.063  18.094  0.00  0.00    +0.000 OA
ATOM     17  H   UNL     1       4.448   7.722  15.768  0.00  0.00    +0.000 HD
BRANCH  15  18
ATOM     18  C   UNL     1       3.630   5.636  18.211  0.00  0.00    +0.000 C 
ATOM     19  C   UNL     1       3.653   5.335  19.711  0.00  0.00    +0.000 C 
ATOM     20  C   UNL     1       2.722   4.163  19.640  0.00  0.00    +0.000 A 
ATOM     21  C   UNL     1       2.598   3.020  20.400  0.00  0.00    +0.000 A 
ATOM     22  C   UNL     1       1.624   2.079  20.024  0.00  0.00    +0.000 A 
ATOM     23  C   UNL     1       0.764   2.311  18.933  0.00  0.00    +0.000 A 
ATOM     24  C   UNL     1       0.894   3.467  18.175  0.00  0.00    +0.000 A 
ATOM     25  C   UNL     1       1.901   4.336  18.529  0.00  0.00    +0.000 A 
ATOM     26  O   UNL     1       2.259   5.406  17.763  0.00  0.00    +0.000 OA
ENDBRANCH  15  18
ENDBRANCH   6  14
TORSDOF 4
ENDMDL
MODEL 3
REMARK VINA RESULT:      -8.2      2.899      6.190
REMARK  Name = 
REMARK  5 active torsions:
REMARK  status: ('A' for Active; 'I' for Inactive)
REMARK    1  A    between atoms: C_1  and  C_2
REMARK    2  A    between atoms: C_2  and  C_3
REMARK    3  A    between atoms: N_7  and  C_8
REMARK    4  A    between atoms: C_13  and  N_14
REMARK    5  A    between atoms: C_15  and  C_17
REMARK                            x       y       z     vdW  Elec       q    Type
REMARK                         _______ _______ _______ _____ _____    ______ ____
ROOT
ATOM      1  C   UNL     1       6.307   5.176  17.116  0.00  0.00    +0.000 A 
ATOM      2  C   UNL     1       6.510   5.762  15.852  0.00  0.00    +0.000 A 
ATOM      3  C   UNL     1       5.876   5.262  14.710  0.00  0.00    +0.000 A 
ATOM      4  C   UNL     1       5.058   4.147  14.805  0.00  0.00    +0.000 A 
ATOM      5  C   UNL     1       4.839   3.557  16.046  0.00  0.00    +0.000 A 
ATOM      6  C   UNL     1       5.417   4.085  17.219  0.00  0.00    +0.000 A 
ENDROOT
BRANCH   1  11
ATOM      7  C   UNL     1       7.768   6.858  18.415  0.00  0.00    +0.000 A 
ATOM      8  N   UNL     1       8.474   6.724  19.521  0.00  0.00    +0.000 NA
ATOM      9  N   UNL     1       8.107   5.534  20.079  0.00  0.00    +0.000 NA
ATOM     10  N   UNL     1       7.185   4.931  19.342  0.00  0.00    +0.000 NA
ATOM     11  N   UNL     1       7.021   5.683  18.233  0.00  0.00    +0.000 N 
BRANCH   7  13
ATOM     12  C   UNL     1       8.461   9.267  18.225  0.00  0.00    +0.000 C 
ATOM     13  C   UNL     1       7.748   8.089  17.566  0.00  0.00    +0.000 C 
ENDBRANCH   7  13
ENDBRANCH   1  11
BRANCH   6  14
ATOM     14  N   UNL     1       4.984   3.491  18.433  0.00  0.00    +0.000 N 
ATOM     15  C   UNL     1       3.958   4.013  19.239  0.00  0.00    +0.000 C 
ATOM     16  O   UNL     1       3.480   3.366  20.168  0.00  0.00    +0.000 OA
ATOM     17  H   UNL     1       5.608   2.846  18.915  0.00  0.00    +0.000 HD
BRANCH  15  18
ATOM     18  C   UNL     1       3.575   5.465  18.943  0.00  0.00    +0.000 C 
ATOM     19  C   UNL     1       2.813   5.897  17.689  0.00  0.00    +0.000 C 
ATOM     20  C   UNL     1       2.266   7.161  18.278  0.00  0.00    +0.000 A 
ATOM     21  C   UNL     1       1.919   8.375  17.726  0.00  0.00    +0.000 A 
ATOM     22  C   UNL     1       1.469   9.389  18.590  0.00  0.00    +0.000 A 
ATOM     23  C   UNL     1       1.329   9.165  19.973  0.00  0.00    +0.000 A 
ATOM     24  C   UNL     1       1.679   7.937  20.520  0.00  0.00    +0.000 A 
ATOM     25  C   UNL     1       2.178   6.989  19.656  0.00  0.00    +0.000 A 
ATOM     26  O   UNL     1       2.733   5.817  20.083  0.00  0.00    +0.000 OA
ENDBRANCH  15  18
ENDBRANCH   6  14
TORSDOF 4
ENDMDL
MODEL 4
REMARK VINA RESULT:      -7.9      3.048      5.042
REMARK  Name = 
REMARK  5 active torsions:
REMARK  status: ('A' for Active; 'I' for Inactive)
REMARK    1  A    between atoms: C_1  and  C_2
REMARK    2  A    between atoms: C_2  and  C_3
REMARK    3  A    between atoms: N_7  and  C_8
REMARK    4  A    between atoms: C_13  and  N_14
REMARK    5  A    between atoms: C_15  and  C_17
REMARK                            x       y       z     vdW  Elec       q    Type
REMARK                         _______ _______ _______ _____ _____    ______ ____
ROOT
ATOM      1  C   UNL     1       1.837   5.833  20.083  0.00  0.00    +0.000 A 
ATOM      2  C   UNL     1       1.433   6.937  20.857  0.00  0.00    +0.000 A 
ATOM      3  C   UNL     1       1.412   8.229  20.323  0.00  0.00    +0.000 A 
ATOM      4  C   UNL     1       1.827   8.446  19.019  0.00  0.00    +0.000 A 
ATOM      5  C   UNL     1       2.223   7.368  18.234  0.00  0.00    +0.000 A 
ATOM      6  C   UNL     1       2.190   6.049  18.733  0.00  0.00    +0.000 A 
ENDROOT
BRANCH   1  11
ATOM      7  C   UNL     1       1.172   3.371  20.469  0.00  0.00    +0.000 A 
ATOM      8  N   UNL     1       1.399   2.558  21.482  0.00  0.00    +0.000 NA
ATOM      9  N   UNL     1       2.325   3.168  22.275  0.00  0.00    +0.000 NA
ATOM     10  N   UNL     1       2.681   4.341  21.771  0.00  0.00    +0.000 NA
ATOM     11  N   UNL     1       1.900   4.552  20.690  0.00  0.00    +0.000 N 
BRANCH   7  13
ATOM     12  C   UNL     1       0.950   1.936  18.417  0.00  0.00    +0.000 C 
ATOM     13  C   UNL     1       0.329   3.031  19.280  0.00  0.00    +0.000 C 
ENDBRANCH   7  13
ENDBRANCH   1  11
BRANCH   6  14
ATOM     14  N   UNL     1       2.463   5.030  17.783  0.00  0.00    +0.000 N 
ATOM     15  C   UNL     1       3.736   4.474  17.575  0.00  0.00    +0.000 C 
ATOM     16  O   UNL     1       3.891   3.462  16.894  0.00  0.00    +0.000 OA
ATOM     17  H   UNL     1       1.813   4.890  17.012  0.00  0.00    +0.000 HD
BRANCH  15  18
ATOM     18  C   UNL     1       4.900   5.280  18.156  0.00  0.00    +0.000 C 
ATOM     19  C   UNL     1       6.242   4.660  18.548  0.00  0.00    +0.000 C 
ATOM     20  C   UNL     1       7.031   5.928  18.430  0.00  0.00    +0.000 A 
ATOM     21  C   UNL     1       8.161   6.389  19.070  0.00  0.00    +0.000 A 
ATOM     22  C   UNL     1       8.624   7.676  18.746  0.00  0.00    +0.000 A 
ATOM     23  C   UNL     1       7.988   8.459  17.763  0.00  0.00    +0.000 A 
ATOM     24  C   UNL     1       6.851   7.984  17.121  0.00  0.00    +0.000 A 
ATOM     25  C   UNL     1       6.386   6.749  17.509  0.00  0.00    +0.000 A 
ATOM     26  O   UNL     1       5.183   6.249  17.101  0.00  0.00    +0.000 OA
ENDBRANCH  15  18
ENDBRANCH   6  14
TORSDOF 4
ENDMDL
MODEL 5
REMARK VINA RESULT:      -7.8      0.836      1.007
REMARK  Name = 
REMARK  5 active torsions:
REMARK  status: ('A' for Active; 'I' for Inactive)
REMARK    1  A    between atoms: C_1  and  C_2
REMARK    2  A    between atoms: C_2  and  C_3
REMARK    3  A    between atoms: N_7  and  C_8
REMARK    4  A    between atoms: C_13  and  N_14
REMARK    5  A    between atoms: C_15  and  C_17
REMARK                            x       y       z     vdW  Elec       q    Type
REMARK                         _______ _______ _______ _____ _____    ______ ____
ROOT
ATOM      1  C   UNL     1       3.192   4.622  18.312  0.00  0.00    +0.000 A 
ATOM      2  C   UNL     1       2.046   3.830  18.110  0.00  0.00    +0.000 A 
ATOM      3  C   UNL     1       2.142   2.445  17.941  0.00  0.00    +0.000 A 
ATOM      4  C   UNL     1       3.385   1.833  17.935  0.00  0.00    +0.000 A 
ATOM      5  C   UNL     1       4.530   2.597  18.140  0.00  0.00    +0.000 A 
ATOM      6  C   UNL     1       4.450   3.985  18.377  0.00  0.00    +0.000 A 
ENDROOT
BRANCH   1  11
ATOM      7  C   UNL     1       2.274   6.833  19.272  0.00  0.00    +0.000 A 
ATOM      8  N   UNL     1       2.257   8.055  18.778  0.00  0.00    +0.000 NA
ATOM      9  N   UNL     1       3.080   8.050  17.690  0.00  0.00    +0.000 NA
ATOM     10  N   UNL     1       3.610   6.849  17.504  0.00  0.00    +0.000 NA
ATOM     11  N   UNL     1       3.046   6.030  18.417  0.00  0.00    +0.000 N 
BRANCH   7  13
ATOM     12  C   UNL     1       2.259   5.183  21.169  0.00  0.00    +0.000 C 
ATOM     13  C   UNL     1       1.624   6.429  20.558  0.00  0.00    +0.000 C 
ENDBRANCH   7  13
ENDBRANCH   1  11
BRANCH   6  14
ATOM     14  N   UNL     1       5.672   4.615  18.731  0.00  0.00    +0.000 N 
ATOM     15  C   UNL     1       6.641   5.022  17.799  0.00  0.00    +0.000 C 
ATOM     16  O   UNL     1       7.584   5.740  18.127  0.00  0.00    +0.000 OA
ATOM     17  H   UNL     1       6.021   4.512  19.682  0.00  0.00    +0.000 HD
BRANCH  15  18
ATOM     18  C   UNL     1       6.494   4.416  16.402  0.00  0.00    +0.000 C 
ATOM     19  C   UNL     1       5.163   4.342  15.652  0.00  0.00    +0.000 C 
ATOM     20  C   UNL     1       5.768   4.261  14.284  0.00  0.00    +0.000 A 
ATOM     21  C   UNL     1       5.350   3.672  13.110  0.00  0.00    +0.000 A 
ATOM     22  C   UNL     1       6.202   3.746  11.995  0.00  0.00    +0.000 A 
ATOM     23  C   UNL     1       7.427   4.440  12.052  0.00  0.00    +0.000 A 
ATOM     24  C   UNL     1       7.839   5.032  13.239  0.00  0.00    +0.000 A 
ATOM     25  C   UNL     1       7.012   4.884  14.329  0.00  0.00    +0.000 A 
ATOM     26  O   UNL     1       7.380   5.248  15.592  0.00  0.00    +0.000 OA
ENDBRANCH  15  18
ENDBRANCH   6  14
TORSDOF 4
ENDMDL
MODEL 6
REMARK VINA RESULT:      -7.7      2.626      5.146
REMARK  Name = 
REMARK  5 active torsions:
REMARK  status: ('A' for Active; 'I' for Inactive)
REMARK    1  A    between atoms: C_1  and  C_2
REMARK    2  A    between atoms: C_2  and  C_3
REMARK    3  A    between atoms: N_7  and  C_8
REMARK    4  A    between atoms: C_13  and  N_14
REMARK    5  A    between atoms: C_15  and  C_17
REMARK                            x       y       z     vdW  Elec       q    Type
REMARK                         _______ _______ _______ _____ _____    ______ ____
ROOT
ATOM      1  C   UNL     1       3.184   5.331  19.173  0.00  0.00    +0.000 A 
ATOM      2  C   UNL     1       2.348   6.042  20.054  0.00  0.00    +0.000 A 
ATOM      3  C   UNL     1       1.951   7.354  19.778  0.00  0.00    +0.000 A 
ATOM      4  C   UNL     1       2.409   7.990  18.635  0.00  0.00    +0.000 A 
ATOM      5  C   UNL     1       3.231   7.302  17.747  0.00  0.00    +0.000 A 
ATOM      6  C   UNL     1       3.590   5.957  17.975  0.00  0.00    +0.000 A 
ENDROOT
BRANCH   1  11
ATOM      7  C   UNL     1       2.921   2.933  20.087  0.00  0.00    +0.000 A 
ATOM      8  N   UNL     1       3.816   2.057  20.501  0.00  0.00    +0.000 NA
ATOM      9  N   UNL     1       5.037   2.536  20.125  0.00  0.00    +0.000 NA
ATOM     10  N   UNL     1       4.915   3.689  19.482  0.00  0.00    +0.000 NA
ATOM     11  N   UNL     1       3.608   4.024  19.529  0.00  0.00    +0.000 N 
BRANCH   7  13
ATOM     12  C   UNL     1       0.828   2.387  18.806  0.00  0.00    +0.000 C 
ATOM     13  C   UNL     1       1.440   2.732  20.161  0.00  0.00    +0.000 C 
ENDBRANCH   7  13
ENDBRANCH   1  11
BRANCH   6  14
ATOM     14  N   UNL     1       4.294   5.325  16.916  0.00  0.00    +0.000 N 
ATOM     15  C   UNL     1       5.694   5.322  16.800  0.00  0.00    +0.000 C 
ATOM     16  O   UNL     1       6.268   4.599  15.988  0.00  0.00    +0.000 OA
ATOM     17  H   UNL     1       3.800   5.124  16.049  0.00  0.00    +0.000 HD
BRANCH  15  18
ATOM     18  C   UNL     1       6.420   6.354  17.665  0.00  0.00    +0.000 C 
ATOM     19  C   UNL     1       7.764   6.087  18.345  0.00  0.00    +0.000 C 
ATOM     20  C   UNL     1       8.162   7.527  18.456  0.00  0.00    +0.000 A 
ATOM     21  C   UNL     1       8.943   8.214  19.360  0.00  0.00    +0.000 A 
ATOM     22  C   UNL     1       9.078   9.604  19.194  0.00  0.00    +0.000 A 
ATOM     23  C   UNL     1       8.476  10.275  18.113  0.00  0.00    +0.000 A 
ATOM     24  C   UNL     1       7.692   9.573  17.205  0.00  0.00    +0.000 A 
ATOM     25  C   UNL     1       7.527   8.227  17.434  0.00  0.00    +0.000 A 
ATOM     26  O   UNL     1       6.638   7.461  16.737  0.00  0.00    +0.000 OA
ENDBRANCH  15  18
ENDBRANCH   6  14
TORSDOF 4
ENDMDL
MODEL 7
REMARK VINA RESULT:      -7.6      2.192      6.973
REMARK  Name = 
REMARK  5 active torsions:
REMARK  status: ('A' for Active; 'I' for Inactive)
REMARK    1  A    between atoms: C_1  and  C_2
REMARK    2  A    between atoms: C_2  and  C_3
REMARK    3  A    between atoms: N_7  and  C_8
REMARK    4  A    between atoms: C_13  and  N_14
REMARK    5  A    between atoms: C_15  and  C_17
REMARK                            x       y       z     vdW  Elec       q    Type
REMARK                         _______ _______ _______ _____ _____    ______ ____
ROOT
ATOM      1  C   UNL     1       4.236   4.237  18.837  0.00  0.00    +0.000 A 
ATOM      2  C   UNL     1       3.890   3.104  19.597  0.00  0.00    +0.000 A 
ATOM      3  C   UNL     1       2.555   2.721  19.764  0.00  0.00    +0.000 A 
ATOM      4  C   UNL     1       1.543   3.483  19.204  0.00  0.00    +0.000 A 
ATOM      5  C   UNL     1       1.863   4.604  18.443  0.00  0.00    +0.000 A 
ATOM      6  C   UNL     1       3.205   4.969  18.209  0.00  0.00    +0.000 A 
ENDROOT
BRANCH   1  11
ATOM      7  C   UNL     1       6.563   4.439  17.742  0.00  0.00    +0.000 A 
ATOM      8  N   UNL     1       7.747   4.704  18.259  0.00  0.00    +0.000 NA
ATOM      9  N   UNL     1       7.531   5.136  19.534  0.00  0.00    +0.000 NA
ATOM     10  N   UNL     1       6.236   5.149  19.816  0.00  0.00    +0.000 NA
ATOM     11  N   UNL     1       5.600   4.617  18.749  0.00  0.00    +0.000 N 
BRANCH   7  13
ATOM     12  C   UNL     1       7.002   5.040  15.341  0.00  0.00    +0.000 C 
ATOM     13  C   UNL     1       6.324   4.076  16.310  0.00  0.00    +0.000 C 
ENDBRANCH   7  13
ENDBRANCH   1  11
BRANCH   6  14
ATOM     14  N   UNL     1       3.397   6.030  17.286  0.00  0.00    +0.000 N 
ATOM     15  C   UNL     1       3.041   7.365  17.544  0.00  0.00    +0.000 C 
ATOM     16  O   UNL     1       3.405   8.280  16.808  0.00  0.00    +0.000 OA
ATOM     17  H   UNL     1       3.510   5.810  16.299  0.00  0.00    +0.000 HD
BRANCH  15  18
ATOM     18  C   UNL     1       2.087   7.567  18.723  0.00  0.00    +0.000 C 
ATOM     19  C   UNL     1       2.504   7.390  20.184  0.00  0.00    +0.000 C 
ATOM     20  C   UNL     1       1.430   8.265  20.752  0.00  0.00    +0.000 A 
ATOM     21  C   UNL     1       0.760   8.262  21.957  0.00  0.00    +0.000 A 
ATOM     22  C   UNL     1      -0.249   9.220  22.154  0.00  0.00    +0.000 A 
ATOM     23  C   UNL     1      -0.542  10.189  21.174  0.00  0.00    +0.000 A 
ATOM     24  C   UNL     1       0.140  10.186  19.964  0.00  0.00    +0.000 A 
ATOM     25  C   UNL     1       1.075   9.194  19.778  0.00  0.00    +0.000 A 
ATOM     26  O   UNL     1       1.677   8.961  18.575  0.00  0.00    +0.000 OA
ENDBRANCH  15  18
ENDBRANCH   6  14
TORSDOF 4
ENDMDL
MODEL 8
REMARK VINA RESULT:      -7.5      2.546      5.866
REMARK  Name = 
REMARK  5 active torsions:
REMARK  status: ('A' for Active; 'I' for Inactive)
REMARK    1  A    between atoms: C_1  and  C_2
REMARK    2  A    between atoms: C_2  and  C_3
REMARK    3  A    between atoms: N_7  and  C_8
REMARK    4  A    between atoms: C_13  and  N_14
REMARK    5  A    between atoms: C_15  and  C_17
REMARK                            x       y       z     vdW  Elec       q    Type
REMARK                         _______ _______ _______ _____ _____    ______ ____
ROOT
ATOM      1  C   UNL     1       6.698   5.850  16.480  0.00  0.00    +0.000 A 
ATOM      2  C   UNL     1       7.373   4.716  15.988  0.00  0.00    +0.000 A 
ATOM      3  C   UNL     1       6.695   3.722  15.275  0.00  0.00    +0.000 A 
ATOM      4  C   UNL     1       5.328   3.824  15.073  0.00  0.00    +0.000 A 
ATOM      5  C   UNL     1       4.644   4.940  15.545  0.00  0.00    +0.000 A 
ATOM      6  C   UNL     1       5.320   5.986  16.209  0.00  0.00    +0.000 A 
ENDROOT
BRANCH   1  11
ATOM      7  C   UNL     1       7.876   6.780  18.578  0.00  0.00    +0.000 A 
ATOM      8  N   UNL     1       8.226   8.009  18.906  0.00  0.00    +0.000 NA
ATOM      9  N   UNL     1       8.087   8.770  17.782  0.00  0.00    +0.000 NA
ATOM     10  N   UNL     1       7.664   8.035  16.763  0.00  0.00    +0.000 NA
ATOM     11  N   UNL     1       7.419   6.799  17.250  0.00  0.00    +0.000 N 
BRANCH   7  13
ATOM     12  C   UNL     1       6.706   4.830  19.648  0.00  0.00    +0.000 C 
ATOM     13  C   UNL     1       8.018   5.591  19.473  0.00  0.00    +0.000 C 
ENDBRANCH   7  13
ENDBRANCH   1  11
BRANCH   6  14
ATOM     14  N   UNL     1       4.537   7.135  16.494  0.00  0.00    +0.000 N 
ATOM     15  C   UNL     1       3.749   7.279  17.648  0.00  0.00    +0.000 C 
ATOM     16  O   UNL     1       3.250   8.360  17.954  0.00  0.00    +0.000 OA
ATOM     17  H   UNL     1       4.278   7.755  15.730  0.00  0.00    +0.000 HD
BRANCH  15  18
ATOM     18  C   UNL     1       3.472   5.982  18.411  0.00  0.00    +0.000 C 
ATOM     19  C   UNL     1       3.184   5.933  19.913  0.00  0.00    +0.000 C 
ATOM     20  C   UNL     1       2.450   4.628  19.880  0.00  0.00    +0.000 A 
ATOM     21  C   UNL     1       2.298   3.617  20.805  0.00  0.00    +0.000 A 
ATOM     22  C   UNL     1       1.564   2.480  20.426  0.00  0.00    +0.000 A 
ATOM     23  C   UNL     1       0.957   2.388  19.158  0.00  0.00    +0.000 A 
ATOM     24  C   UNL     1       1.113   3.413  18.234  0.00  0.00    +0.000 A 
ATOM     25  C   UNL     1       1.893   4.482  18.613  0.00  0.00    +0.000 A 
ATOM     26  O   UNL     1       2.282   5.460  17.744  0.00  0.00    +0.000 OA
ENDBRANCH  15  18
ENDBRANCH   6  14
TORSDOF 4
ENDMDL
MODEL 9
REMARK VINA RESULT:      -7.4      7.631     10.265
REMARK  Name = 
REMARK  5 active torsions:
REMARK  status: ('A' for Active; 'I' for Inactive)
REMARK    1  A    between atoms: C_1  and  C_2
REMARK    2  A    between atoms: C_2  and  C_3
REMARK    3  A    between atoms: N_7  and  C_8
REMARK    4  A    between atoms: C_13  and  N_14
REMARK    5  A    between atoms: C_15  and  C_17
REMARK                            x       y       z     vdW  Elec       q    Type
REMARK                         _______ _______ _______ _____ _____    ______ ____
ROOT
ATOM      1  C   UNL     1       0.333  12.705  21.056  0.00  0.00    +0.000 A 
ATOM      2  C   UNL     1       1.654  12.962  20.644  0.00  0.00    +0.000 A 
ATOM      3  C   UNL     1       1.955  14.039  19.804  0.00  0.00    +0.000 A 
ATOM      4  C   UNL     1       0.939  14.855  19.333  0.00  0.00    +0.000 A 
ATOM      5  C   UNL     1      -0.373  14.622  19.734  0.00  0.00    +0.000 A 
ATOM      6  C   UNL     1      -0.689  13.581  20.632  0.00  0.00    +0.000 A 
ENDROOT
BRANCH   1  11
ATOM      7  C   UNL     1       0.237  10.190  21.619  0.00  0.00    +0.000 A 
ATOM      8  N   UNL     1      -0.424   9.532  22.552  0.00  0.00    +0.000 NA
ATOM      9  N   UNL     1      -0.914  10.465  23.418  0.00  0.00    +0.000 NA
ATOM     10  N   UNL     1      -0.565  11.688  23.043  0.00  0.00    +0.000 NA
ATOM     11  N   UNL     1       0.072  11.564  21.858  0.00  0.00    +0.000 N 
BRANCH   7  13
ATOM     12  C   UNL     1       1.364   8.079  20.846  0.00  0.00    +0.000 C 
ATOM     13  C   UNL     1       1.060   9.545  20.549  0.00  0.00    +0.000 C 
ENDBRANCH   7  13
ENDBRANCH   1  11
BRANCH   6  14
ATOM     14  N   UNL     1      -2.034  13.554  21.085  0.00  0.00    +0.000 N 
ATOM     15  C   UNL     1      -3.026  12.719  20.544  0.00  0.00    +0.000 C 
ATOM     16  O   UNL     1      -4.117  12.579  21.092  0.00  0.00    +0.000 OA
ATOM     17  H   UNL     1      -2.395  14.353  21.602  0.00  0.00    +0.000 HD
BRANCH  15  18
ATOM     18  C   UNL     1      -2.686  12.104  19.185  0.00  0.00    +0.000 C 
ATOM     19  C   UNL     1      -2.045  10.724  19.020  0.00  0.00    +0.000 C 
ATOM     20  C   UNL     1      -2.535  10.499  17.623  0.00  0.00    +0.000 A 
ATOM     21  C   UNL     1      -2.028   9.788  16.557  0.00  0.00    +0.000 A 
ATOM     22  C   UNL     1      -2.734   9.824  15.343  0.00  0.00    +0.000 A 
ATOM     23  C   UNL     1      -3.951  10.523  15.223  0.00  0.00    +0.000 A 
ATOM     24  C   UNL     1      -4.456  11.235  16.303  0.00  0.00    +0.000 A 
ATOM     25  C   UNL     1      -3.706  11.234  17.456  0.00  0.00    +0.000 A 
ATOM     26  O   UNL     1      -3.986  12.038  18.523  0.00  0.00    +0.000 OA
ENDBRANCH  15  18
ENDBRANCH   6  14
TORSDOF 4
ENDMDL
