MODEL 1
REMARK VINA RESULT:      -8.6      0.000      0.000
REMARK  Name = 
REMARK  6 active torsions:
REMARK  status: ('A' for Active; 'I' for Inactive)
REMARK    1  A    between atoms: C_2  and  C_3
REMARK    2  A    between atoms: C_3  and  C_4
REMARK    3  A    between atoms: C_7  and  C_8
REMARK    4  A    between atoms: N_16  and  C_17
REMARK    5  A    between atoms: C_17  and  C_18
REMARK    6  A    between atoms: C_18  and  C_19
REMARK                            x       y       z     vdW  Elec       q    Type
REMARK                         _______ _______ _______ _____ _____    ______ ____
ROOT
ATOM      1  O   UNL     1       5.778   7.503  16.788  0.00  0.00    +0.000 OA
ATOM      2  C   UNL     1       4.981   6.725  17.308  0.00  0.00    +0.000 C 
ATOM      3  N   UNL     1       5.351   5.748  18.203  0.00  0.00    +0.000 N 
ATOM      4  H   UNL     1       4.650   5.092  18.540  0.00  0.00    +0.000 HD
ENDROOT
BRANCH   2   5
ATOM      5  C   UNL     1       3.481   6.808  17.057  0.00  0.00    +0.000 C 
BRANCH   5   6
ATOM      6  C   UNL     1       2.702   7.588  18.088  0.00  0.00    +0.000 A 
ATOM      7  C   UNL     1       2.102   8.810  17.764  0.00  0.00    +0.000 A 
ATOM      8  C   UNL     1       1.342   9.510  18.712  0.00  0.00    +0.000 A 
ATOM      9  C   UNL     1       1.138   9.011  20.011  0.00  0.00    +0.000 A 
ATOM     10  C   UNL     1       1.727   7.770  20.308  0.00  0.00    +0.000 A 
ATOM     11  C   UNL     1       2.504   7.074  19.371  0.00  0.00    +0.000 A 
BRANCH   9  12
ATOM     12  C   UNL     1       0.339   9.754  21.020  0.00  0.00    +0.000 A 
ATOM     13  C   UNL     1      -0.300  10.969  20.712  0.00  0.00    +0.000 A 
ATOM     14  C   UNL     1      -1.040  11.675  21.669  0.00  0.00    +0.000 A 
ATOM     15  C   UNL     1      -1.171  11.172  22.958  0.00  0.00    +0.000 A 
ATOM     16  C   UNL     1      -0.556   9.971  23.293  0.00  0.00    +0.000 A 
ATOM     17  C   UNL     1       0.194   9.277  22.337  0.00  0.00    +0.000 A 
ENDBRANCH   9  12
ENDBRANCH   5   6
ENDBRANCH   2   5
BRANCH   3  18
ATOM     18  C   UNL     1       6.691   5.558  18.717  0.00  0.00    +0.000 C 
BRANCH  18  19
ATOM     19  C   UNL     1       7.545   4.668  17.821  0.00  0.00    +0.000 C 
BRANCH  19  20
ATOM     20  C   UNL     1       7.121   4.546  16.387  0.00  0.00    +0.000 A 
ATOM     21  N   UNL     1       6.297   3.692  15.801  0.00  0.00    +0.000 NA
ATOM     22  C   UNL     1       6.425   3.928  14.439  0.00  0.00    +0.000 A 
ATOM     23  C   UNL     1       5.830   3.296  13.331  0.00  0.00    +0.000 A 
ATOM     24  C   UNL     1       6.240   3.672  12.037  0.00  0.00    +0.000 A 
ATOM     25  C   UNL     1       7.202   4.668  11.850  0.00  0.00    +0.000 A 
ATOM     26  C   UNL     1       7.754   5.349  12.935  0.00  0.00    +0.000 A 
ATOM     27  C   UNL     1       7.338   4.948  14.205  0.00  0.00    +0.000 A 
ATOM     28  N   UNL     1       7.677   5.386  15.453  0.00  0.00    +0.000 N 
ATOM     29  H   UNL     1       8.310   6.145  15.655  0.00  0.00    +0.000 HD
ENDBRANCH  19  20
ENDBRANCH  18  19
ENDBRANCH   3  18
TORSDOF 6
ENDMDL
MODEL 2
REMARK VINA RESULT:      -8.4      1.183      1.301
REMARK  Name = 
REMARK  6 active torsions:
REMARK  status: ('A' for Active; 'I' for Inactive)
REMARK    1  A    between atoms: C_2  and  C_3
REMARK    2  A    between atoms: C_3  and  C_4
REMARK    3  A    between atoms: C_7  and  C_8
REMARK    4  A    between atoms: N_16  and  C_17
REMARK    5  A    between atoms: C_17  and  C_18
REMARK    6  A    between atoms: C_18  and  C_19
REMARK                            x       y       z     vdW  Elec       q    Type
REMARK                         _______ _______ _______ _____ _____    ______ ____
ROOT
ATOM      1  O   UNL     1       4.419   5.300  19.666  0.00  0.00    +0.000 OA
ATOM      2  C   UNL     1       4.465   5.949  18.624  0.00  0.00    +0.000 C 
ATOM      3  N   UNL     1       5.641   6.330  18.021  0.00  0.00    +0.000 N 
ATOM      4  H   UNL     1       5.607   6.928  17.198  0.00  0.00    +0.000 HD
ENDROOT
BRANCH   2   5
ATOM      5  C   UNL     1       3.211   6.345  17.855  0.00  0.00    +0.000 C 
BRANCH   5   6
ATOM      6  C   UNL     1       2.415   7.472  18.467  0.00  0.00    +0.000 A 
ATOM      7  C   UNL     1       1.951   8.534  17.683  0.00  0.00    +0.000 A 
ATOM      8  C   UNL     1       1.174   9.556  18.247  0.00  0.00    +0.000 A 
ATOM      9  C   UNL     1       0.818   9.549  19.608  0.00  0.00    +0.000 A 
ATOM     10  C   UNL     1       1.272   8.461  20.372  0.00  0.00    +0.000 A 
ATOM     11  C   UNL     1       2.065   7.445  19.819  0.00  0.00    +0.000 A 
BRANCH   9  12
ATOM     12  C   UNL     1       0.001  10.635  20.209  0.00  0.00    +0.000 A 
ATOM     13  C   UNL     1      -1.146  11.143  19.570  0.00  0.00    +0.000 A 
ATOM     14  C   UNL     1      -1.904  12.177  20.133  0.00  0.00    +0.000 A 
ATOM     15  C   UNL     1      -1.542  12.719  21.361  0.00  0.00    +0.000 A 
ATOM     16  C   UNL     1      -0.418  12.236  22.020  0.00  0.00    +0.000 A 
ATOM     17  C   UNL     1       0.345  11.213  21.447  0.00  0.00    +0.000 A 
ENDBRANCH   9  12
ENDBRANCH   5   6
ENDBRANCH   2   5
BRANCH   3  18
ATOM     18  C   UNL     1       6.964   5.953  18.473  0.00  0.00    +0.000 C 
BRANCH  18  19
ATOM     19  C   UNL     1       7.546   4.786  17.682  0.00  0.00    +0.000 C 
BRANCH  19  20
ATOM     20  C   UNL     1       7.066   4.618  16.272  0.00  0.00    +0.000 A 
ATOM     21  N   UNL     1       6.103   3.858  15.773  0.00  0.00    +0.000 NA
ATOM     22  C   UNL     1       6.224   3.963  14.394  0.00  0.00    +0.000 A 
ATOM     23  C   UNL     1       5.507   3.345  13.353  0.00  0.00    +0.000 A 
ATOM     24  C   UNL     1       5.930   3.549  12.025  0.00  0.00    +0.000 A 
ATOM     25  C   UNL     1       7.027   4.366  11.739  0.00  0.00    +0.000 A 
ATOM     26  C   UNL     1       7.709   5.038  12.754  0.00  0.00    +0.000 A 
ATOM     27  C   UNL     1       7.275   4.808  14.060  0.00  0.00    +0.000 A 
ATOM     28  N   UNL     1       7.715   5.286  15.262  0.00  0.00    +0.000 N 
ATOM     29  H   UNL     1       8.462   5.951  15.388  0.00  0.00    +0.000 HD
ENDBRANCH  19  20
ENDBRANCH  18  19
ENDBRANCH   3  18
TORSDOF 6
ENDMDL
MODEL 3
REMARK VINA RESULT:      -8.4      3.305      9.831
REMARK  Name = 
REMARK  6 active torsions:
REMARK  status: ('A' for Active; 'I' for Inactive)
REMARK    1  A    between atoms: C_2  and  C_3
REMARK    2  A    between atoms: C_3  and  C_4
REMARK    3  A    between atoms: C_7  and  C_8
REMARK    4  A    between atoms: N_16  and  C_17
REMARK    5  A    between atoms: C_17  and  C_18
REMARK    6  A    between atoms: C_18  and  C_19
REMARK                            x       y       z     vdW  Elec       q    Type
REMARK                         _______ _______ _______ _____ _____    ______ ____
ROOT
ATOM      1  O   UNL     1       1.871   7.290  18.319  0.00  0.00    +0.000 OA
ATOM      2  C   UNL     1       2.417   7.022  19.387  0.00  0.00    +0.000 C 
ATOM      3  N   UNL     1       2.047   7.583  20.587  0.00  0.00    +0.000 N 
ATOM      4  H   UNL     1       2.588   7.371  21.422  0.00  0.00    +0.000 HD
ENDROOT
BRANCH   2   5
ATOM      5  C   UNL     1       3.527   5.986  19.496  0.00  0.00    +0.000 C 
BRANCH   5   6
ATOM      6  C   UNL     1       4.186   5.613  18.191  0.00  0.00    +0.000 A 
ATOM      7  C   UNL     1       4.026   4.336  17.643  0.00  0.00    +0.000 A 
ATOM      8  C   UNL     1       4.604   4.008  16.407  0.00  0.00    +0.000 A 
ATOM      9  C   UNL     1       5.346   4.944  15.666  0.00  0.00    +0.000 A 
ATOM     10  C   UNL     1       5.473   6.229  16.221  0.00  0.00    +0.000 A 
ATOM     11  C   UNL     1       4.914   6.558  17.464  0.00  0.00    +0.000 A 
BRANCH   9  12
ATOM     12  C   UNL     1       5.965   4.597  14.360  0.00  0.00    +0.000 A 
ATOM     13  C   UNL     1       7.174   5.177  13.934  0.00  0.00    +0.000 A 
ATOM     14  C   UNL     1       7.746   4.858  12.696  0.00  0.00    +0.000 A 
ATOM     15  C   UNL     1       7.130   3.936  11.859  0.00  0.00    +0.000 A 
ATOM     16  C   UNL     1       5.937   3.341  12.254  0.00  0.00    +0.000 A 
ATOM     17  C   UNL     1       5.361   3.673  13.484  0.00  0.00    +0.000 A 
ENDBRANCH   9  12
ENDBRANCH   5   6
ENDBRANCH   2   5
BRANCH   3  18
ATOM     18  C   UNL     1       0.927   8.483  20.772  0.00  0.00    +0.000 C 
BRANCH  18  19
ATOM     19  C   UNL     1       1.098   9.798  20.020  0.00  0.00    +0.000 C 
BRANCH  19  20
ATOM     20  C   UNL     1      -0.089  10.294  19.248  0.00  0.00    +0.000 A 
ATOM     21  N   UNL     1      -1.089  11.080  19.614  0.00  0.00    +0.000 NA
ATOM     22  C   UNL     1      -1.990  11.051  18.558  0.00  0.00    +0.000 A 
ATOM     23  C   UNL     1      -3.251  11.656  18.401  0.00  0.00    +0.000 A 
ATOM     24  C   UNL     1      -4.008  11.354  17.253  0.00  0.00    +0.000 A 
ATOM     25  C   UNL     1      -3.514  10.487  16.275  0.00  0.00    +0.000 A 
ATOM     26  C   UNL     1      -2.239   9.929  16.384  0.00  0.00    +0.000 A 
ATOM     27  C   UNL     1      -1.517  10.237  17.536  0.00  0.00    +0.000 A 
ATOM     28  N   UNL     1      -0.273   9.862  17.957  0.00  0.00    +0.000 N 
ATOM     29  H   UNL     1       0.369   9.281  17.439  0.00  0.00    +0.000 HD
ENDBRANCH  19  20
ENDBRANCH  18  19
ENDBRANCH   3  18
TORSDOF 6
ENDMDL
MODEL 4
REMARK VINA RESULT:      -8.3      2.076      3.150
REMARK  Name = 
REMARK  6 active torsions:
REMARK  status: ('A' for Active; 'I' for Inactive)
REMARK    1  A    between atoms: C_2  and  C_3
REMARK    2  A    between atoms: C_3  and  C_4
REMARK    3  A    between atoms: C_7  and  C_8
REMARK    4  A    between atoms: N_16  and  C_17
REMARK    5  A    between atoms: C_17  and  C_18
REMARK    6  A    between atoms: C_18  and  C_19
REMARK                            x       y       z     vdW  Elec       q    Type
REMARK                         _______ _______ _______ _____ _____    ______ ____
ROOT
ATOM      1  O   UNL     1       1.774   4.911  18.005  0.00  0.00    +0.000 OA
ATOM      2  C   UNL     1       2.395   5.553  18.849  0.00  0.00    +0.000 C 
ATOM      3  N   UNL     1       2.792   5.028  20.057  0.00  0.00    +0.000 N 
ATOM      4  H   UNL     1       3.240   5.635  20.739  0.00  0.00    +0.000 HD
ENDROOT
BRANCH   2   5
ATOM      5  C   UNL     1       2.843   6.989  18.613  0.00  0.00    +0.000 C 
BRANCH   5   6
ATOM      6  C   UNL     1       1.965   8.044  19.240  0.00  0.00    +0.000 A 
ATOM      7  C   UNL     1       1.454   9.101  18.479  0.00  0.00    +0.000 A 
ATOM      8  C   UNL     1       0.603  10.055  19.055  0.00  0.00    +0.000 A 
ATOM      9  C   UNL     1       0.216   9.982  20.405  0.00  0.00    +0.000 A 
ATOM     10  C   UNL     1       0.719   8.898  21.146  0.00  0.00    +0.000 A 
ATOM     11  C   UNL     1       1.585   7.951  20.581  0.00  0.00    +0.000 A 
BRANCH   9  12
ATOM     12  C   UNL     1      -0.680  10.995  21.020  0.00  0.00    +0.000 A 
ATOM     13  C   UNL     1      -1.413  11.909  20.240  0.00  0.00    +0.000 A 
ATOM     14  C   UNL     1      -2.244  12.873  20.824  0.00  0.00    +0.000 A 
ATOM     15  C   UNL     1      -2.376  12.936  22.206  0.00  0.00    +0.000 A 
ATOM     16  C   UNL     1      -1.670  12.043  23.004  0.00  0.00    +0.000 A 
ATOM     17  C   UNL     1      -0.829  11.092  22.417  0.00  0.00    +0.000 A 
ENDBRANCH   9  12
ENDBRANCH   5   6
ENDBRANCH   2   5
BRANCH   3  18
ATOM     18  C   UNL     1       2.618   3.647  20.459  0.00  0.00    +0.000 C 
BRANCH  18  19
ATOM     19  C   UNL     1       3.749   2.746  19.977  0.00  0.00    +0.000 C 
BRANCH  19  20
ATOM     20  C   UNL     1       4.688   3.324  18.960  0.00  0.00    +0.000 A 
ATOM     21  N   UNL     1       5.740   4.114  19.108  0.00  0.00    +0.000 NA
ATOM     22  C   UNL     1       6.113   4.482  17.823  0.00  0.00    +0.000 A 
ATOM     23  C   UNL     1       7.130   5.340  17.364  0.00  0.00    +0.000 A 
ATOM     24  C   UNL     1       7.205   5.624  15.987  0.00  0.00    +0.000 A 
ATOM     25  C   UNL     1       6.304   5.052  15.086  0.00  0.00    +0.000 A 
ATOM     26  C   UNL     1       5.331   4.148  15.515  0.00  0.00    +0.000 A 
ATOM     27  C   UNL     1       5.272   3.894  16.885  0.00  0.00    +0.000 A 
ATOM     28  N   UNL     1       4.455   3.090  17.627  0.00  0.00    +0.000 N 
ATOM     29  H   UNL     1       3.732   2.491  17.258  0.00  0.00    +0.000 HD
ENDBRANCH  19  20
ENDBRANCH  18  19
ENDBRANCH   3  18
TORSDOF 6
ENDMDL
MODEL 5
REMARK VINA RESULT:      -8.3      4.110      9.348
REMARK  Name = 
REMARK  6 active torsions:
REMARK  status: ('A' for Active; 'I' for Inactive)
REMARK    1  A    between atoms: C_2  and  C_3
REMARK    2  A    between atoms: C_3  and  C_4
REMARK    3  A    between atoms: C_7  and  C_8
REMARK    4  A    between atoms: N_16  and  C_17
REMARK    5  A    between atoms: C_17  and  C_18
REMARK    6  A    between atoms: C_18  and  C_19
REMARK                            x       y       z     vdW  Elec       q    Type
REMARK                         _______ _______ _______ _____ _____    ______ ____
ROOT
ATOM      1  O   UNL     1       1.763  10.071  22.217  0.00  0.00    +0.000 OA
ATOM      2  C   UNL     1       0.624   9.704  21.934  0.00  0.00    +0.000 C 
ATOM      3  N   UNL     1      -0.448  10.561  21.849  0.00  0.00    +0.000 N 
ATOM      4  H   UNL     1      -1.376  10.181  21.680  0.00  0.00    +0.000 HD
ENDROOT
BRANCH   2   5
ATOM      5  C   UNL     1       0.298   8.257  21.586  0.00  0.00    +0.000 C 
BRANCH   5   6
ATOM      6  C   UNL     1       1.178   7.640  20.527  0.00  0.00    +0.000 A 
ATOM      7  C   UNL     1       1.557   8.366  19.393  0.00  0.00    +0.000 A 
ATOM      8  C   UNL     1       2.410   7.804  18.432  0.00  0.00    +0.000 A 
ATOM      9  C   UNL     1       2.931   6.505  18.575  0.00  0.00    +0.000 A 
ATOM     10  C   UNL     1       2.559   5.802  19.734  0.00  0.00    +0.000 A 
ATOM     11  C   UNL     1       1.691   6.351  20.688  0.00  0.00    +0.000 A 
BRANCH   9  12
ATOM     12  C   UNL     1       3.829   5.905  17.555  0.00  0.00    +0.000 A 
ATOM     13  C   UNL     1       3.896   4.514  17.352  0.00  0.00    +0.000 A 
ATOM     14  C   UNL     1       4.755   3.951  16.400  0.00  0.00    +0.000 A 
ATOM     15  C   UNL     1       5.559   4.768  15.615  0.00  0.00    +0.000 A 
ATOM     16  C   UNL     1       5.512   6.147  15.788  0.00  0.00    +0.000 A 
ATOM     17  C   UNL     1       4.663   6.704  16.750  0.00  0.00    +0.000 A 
ENDBRANCH   9  12
ENDBRANCH   5   6
ENDBRANCH   2   5
BRANCH   3  18
ATOM     18  C   UNL     1      -0.372  12.000  21.989  0.00  0.00    +0.000 C 
BRANCH  18  19
ATOM     19  C   UNL     1      -0.715  12.737  20.699  0.00  0.00    +0.000 C 
BRANCH  19  20
ATOM     20  C   UNL     1      -1.364  11.932  19.613  0.00  0.00    +0.000 A 
ATOM     21  N   UNL     1      -0.884  10.953  18.862  0.00  0.00    +0.000 NA
ATOM     22  C   UNL     1      -1.858  10.708  17.903  0.00  0.00    +0.000 A 
ATOM     23  C   UNL     1      -1.884   9.813  16.818  0.00  0.00    +0.000 A 
ATOM     24  C   UNL     1      -2.973   9.862  15.926  0.00  0.00    +0.000 A 
ATOM     25  C   UNL     1      -4.021  10.765  16.122  0.00  0.00    +0.000 A 
ATOM     26  C   UNL     1      -4.043  11.615  17.229  0.00  0.00    +0.000 A 
ATOM     27  C   UNL     1      -2.946  11.552  18.089  0.00  0.00    +0.000 A 
ATOM     28  N   UNL     1      -2.649  12.235  19.234  0.00  0.00    +0.000 N 
ATOM     29  H   UNL     1      -3.241  12.921  19.676  0.00  0.00    +0.000 HD
ENDBRANCH  19  20
ENDBRANCH  18  19
ENDBRANCH   3  18
TORSDOF 6
ENDMDL
MODEL 6
REMARK VINA RESULT:      -8.3      2.105      3.427
REMARK  Name = 
REMARK  6 active torsions:
REMARK  status: ('A' for Active; 'I' for Inactive)
REMARK    1  A    between atoms: C_2  and  C_3
REMARK    2  A    between atoms: C_3  and  C_4
REMARK    3  A    between atoms: C_7  and  C_8
REMARK    4  A    between atoms: N_16  and  C_17
REMARK    5  A    between atoms: C_17  and  C_18
REMARK    6  A    between atoms: C_18  and  C_19
REMARK                            x       y       z     vdW  Elec       q    Type
REMARK                         _______ _______ _______ _____ _____    ______ ____
ROOT
ATOM      1  O   UNL     1       1.805   4.973  17.892  0.00  0.00    +0.000 OA
ATOM      2  C   UNL     1       2.345   5.552  18.833  0.00  0.00    +0.000 C 
ATOM      3  N   UNL     1       2.631   4.943  20.032  0.00  0.00    +0.000 N 
ATOM      4  H   UNL     1       3.013   5.499  20.794  0.00  0.00    +0.000 HD
ENDROOT
BRANCH   2   5
ATOM      5  C   UNL     1       2.810   6.999  18.739  0.00  0.00    +0.000 C 
BRANCH   5   6
ATOM      6  C   UNL     1       1.871   8.013  19.344  0.00  0.00    +0.000 A 
ATOM      7  C   UNL     1       1.458   7.908  20.677  0.00  0.00    +0.000 A 
ATOM      8  C   UNL     1       0.620   8.877  21.248  0.00  0.00    +0.000 A 
ATOM      9  C   UNL     1       0.177   9.994  20.518  0.00  0.00    +0.000 A 
ATOM     10  C   UNL     1       0.623  10.095  19.189  0.00  0.00    +0.000 A 
ATOM     11  C   UNL     1       1.446   9.121  18.606  0.00  0.00    +0.000 A 
BRANCH   9  12
ATOM     12  C   UNL     1      -0.717  11.018  21.119  0.00  0.00    +0.000 A 
ATOM     13  C   UNL     1      -0.867  11.147  22.512  0.00  0.00    +0.000 A 
ATOM     14  C   UNL     1      -1.722  12.103  23.074  0.00  0.00    +0.000 A 
ATOM     15  C   UNL     1      -2.437  12.967  22.254  0.00  0.00    +0.000 A 
ATOM     16  C   UNL     1      -2.306  12.870  20.874  0.00  0.00    +0.000 A 
ATOM     17  C   UNL     1      -1.462  11.903  20.316  0.00  0.00    +0.000 A 
ENDBRANCH   9  12
ENDBRANCH   5   6
ENDBRANCH   2   5
BRANCH   3  18
ATOM     18  C   UNL     1       2.423   3.539  20.320  0.00  0.00    +0.000 C 
BRANCH  18  19
ATOM     19  C   UNL     1       3.625   2.677  19.950  0.00  0.00    +0.000 C 
BRANCH  19  20
ATOM     20  C   UNL     1       4.576   3.242  18.937  0.00  0.00    +0.000 A 
ATOM     21  N   UNL     1       5.622   4.040  19.087  0.00  0.00    +0.000 NA
ATOM     22  C   UNL     1       6.012   4.388  17.800  0.00  0.00    +0.000 A 
ATOM     23  C   UNL     1       7.031   5.243  17.342  0.00  0.00    +0.000 A 
ATOM     24  C   UNL     1       7.125   5.503  15.961  0.00  0.00    +0.000 A 
ATOM     25  C   UNL     1       6.240   4.910  15.057  0.00  0.00    +0.000 A 
ATOM     26  C   UNL     1       5.265   4.010  15.488  0.00  0.00    +0.000 A 
ATOM     27  C   UNL     1       5.188   3.779  16.861  0.00  0.00    +0.000 A 
ATOM     28  N   UNL     1       4.364   2.984  17.605  0.00  0.00    +0.000 N 
ATOM     29  H   UNL     1       3.649   2.375  17.235  0.00  0.00    +0.000 HD
ENDBRANCH  19  20
ENDBRANCH  18  19
ENDBRANCH   3  18
TORSDOF 6
ENDMDL
MODEL 7
REMARK VINA RESULT:      -8.2      1.163      1.619
REMARK  Name = 
REMARK  6 active torsions:
REMARK  status: ('A' for Active; 'I' for Inactive)
REMARK    1  A    between atoms: C_2  and  C_3
REMARK    2  A    between atoms: C_3  and  C_4
REMARK    3  A    between atoms: C_7  and  C_8
REMARK    4  A    between atoms: N_16  and  C_17
REMARK    5  A    between atoms: C_17  and  C_18
REMARK    6  A    between atoms: C_18  and  C_19
REMARK                            x       y       z     vdW  Elec       q    Type
REMARK                         _______ _______ _______ _____ _____    ______ ____
ROOT
ATOM      1  O   UNL     1       2.889   5.413  19.023  0.00  0.00    +0.000 OA
ATOM      2  C   UNL     1       3.569   6.227  18.400  0.00  0.00    +0.000 C 
ATOM      3  N   UNL     1       4.937   6.143  18.290  0.00  0.00    +0.000 N 
ATOM      4  H   UNL     1       5.444   6.890  17.821  0.00  0.00    +0.000 HD
ENDROOT
BRANCH   2   5
ATOM      5  C   UNL     1       2.948   7.385  17.630  0.00  0.00    +0.000 C 
BRANCH   5   6
ATOM      6  C   UNL     1       2.075   8.303  18.449  0.00  0.00    +0.000 A 
ATOM      7  C   UNL     1       1.333   9.322  17.841  0.00  0.00    +0.000 A 
ATOM      8  C   UNL     1       0.488  10.145  18.600  0.00  0.00    +0.000 A 
ATOM      9  C   UNL     1       0.339   9.972  19.988  0.00  0.00    +0.000 A 
ATOM     10  C   UNL     1       1.073   8.927  20.575  0.00  0.00    +0.000 A 
ATOM     11  C   UNL     1       1.933   8.113  19.825  0.00  0.00    +0.000 A 
BRANCH   9  12
ATOM     12  C   UNL     1      -0.550  10.848  20.795  0.00  0.00    +0.000 A 
ATOM     13  C   UNL     1      -0.506  10.856  22.202  0.00  0.00    +0.000 A 
ATOM     14  C   UNL     1      -1.355  11.671  22.960  0.00  0.00    +0.000 A 
ATOM     15  C   UNL     1      -2.262  12.513  22.327  0.00  0.00    +0.000 A 
ATOM     16  C   UNL     1      -2.326  12.533  20.938  0.00  0.00    +0.000 A 
ATOM     17  C   UNL     1      -1.486  11.706  20.186  0.00  0.00    +0.000 A 
ENDBRANCH   9  12
ENDBRANCH   5   6
ENDBRANCH   2   5
BRANCH   3  18
ATOM     18  C   UNL     1       5.746   5.059  18.806  0.00  0.00    +0.000 C 
BRANCH  18  19
ATOM     19  C   UNL     1       6.962   4.765  17.935  0.00  0.00    +0.000 C 
BRANCH  19  20
ATOM     20  C   UNL     1       6.726   4.662  16.457  0.00  0.00    +0.000 A 
ATOM     21  N   UNL     1       5.891   3.900  15.768  0.00  0.00    +0.000 NA
ATOM     22  C   UNL     1       6.231   4.086  14.435  0.00  0.00    +0.000 A 
ATOM     23  C   UNL     1       5.720   3.505  13.260  0.00  0.00    +0.000 A 
ATOM     24  C   UNL     1       6.346   3.798  12.033  0.00  0.00    +0.000 A 
ATOM     25  C   UNL     1       7.440   4.665  11.974  0.00  0.00    +0.000 A 
ATOM     26  C   UNL     1       7.918   5.300  13.121  0.00  0.00    +0.000 A 
ATOM     27  C   UNL     1       7.287   4.983  14.323  0.00  0.00    +0.000 A 
ATOM     28  N   UNL     1       7.504   5.405  15.603  0.00  0.00    +0.000 N 
ATOM     29  H   UNL     1       8.192   6.087  15.885  0.00  0.00    +0.000 HD
ENDBRANCH  19  20
ENDBRANCH  18  19
ENDBRANCH   3  18
TORSDOF 6
ENDMDL
MODEL 8
REMARK VINA RESULT:      -8.2      3.068      4.221
REMARK  Name = 
REMARK  6 active torsions:
REMARK  status: ('A' for Active; 'I' for Inactive)
REMARK    1  A    between atoms: C_2  and  C_3
REMARK    2  A    between atoms: C_3  and  C_4
REMARK    3  A    between atoms: C_7  and  C_8
REMARK    4  A    between atoms: N_16  and  C_17
REMARK    5  A    between atoms: C_17  and  C_18
REMARK    6  A    between atoms: C_18  and  C_19
REMARK                            x       y       z     vdW  Elec       q    Type
REMARK                         _______ _______ _______ _____ _____    ______ ____
ROOT
ATOM      1  O   UNL     1       1.231   4.444  18.911  0.00  0.00    +0.000 OA
ATOM      2  C   UNL     1       2.064   4.374  19.812  0.00  0.00    +0.000 C 
ATOM      3  N   UNL     1       2.928   3.315  19.964  0.00  0.00    +0.000 N 
ATOM      4  H   UNL     1       3.543   3.288  20.774  0.00  0.00    +0.000 HD
ENDROOT
BRANCH   2   5
ATOM      5  C   UNL     1       2.264   5.495  20.824  0.00  0.00    +0.000 C 
BRANCH   5   6
ATOM      6  C   UNL     1       1.806   6.858  20.367  0.00  0.00    +0.000 A 
ATOM      7  C   UNL     1       1.031   7.674  21.200  0.00  0.00    +0.000 A 
ATOM      8  C   UNL     1       0.644   8.957  20.789  0.00  0.00    +0.000 A 
ATOM      9  C   UNL     1       1.029   9.482  19.542  0.00  0.00    +0.000 A 
ATOM     10  C   UNL     1       1.828   8.658  18.731  0.00  0.00    +0.000 A 
ATOM     11  C   UNL     1       2.203   7.366  19.128  0.00  0.00    +0.000 A 
BRANCH   9  12
ATOM     12  C   UNL     1       0.614  10.839  19.101  0.00  0.00    +0.000 A 
ATOM     13  C   UNL     1       1.512  11.922  19.085  0.00  0.00    +0.000 A 
ATOM     14  C   UNL     1       1.114  13.203  18.684  0.00  0.00    +0.000 A 
ATOM     15  C   UNL     1      -0.194  13.429  18.272  0.00  0.00    +0.000 A 
ATOM     16  C   UNL     1      -1.105  12.379  18.270  0.00  0.00    +0.000 A 
ATOM     17  C   UNL     1      -0.706  11.105  18.686  0.00  0.00    +0.000 A 
ENDBRANCH   9  12
ENDBRANCH   5   6
ENDBRANCH   2   5
BRANCH   3  18
ATOM     18  C   UNL     1       3.038   2.196  19.051  0.00  0.00    +0.000 C 
BRANCH  18  19
ATOM     19  C   UNL     1       4.020   2.458  17.914  0.00  0.00    +0.000 C 
BRANCH  19  20
ATOM     20  C   UNL     1       4.732   3.778  17.926  0.00  0.00    +0.000 A 
ATOM     21  N   UNL     1       4.526   4.875  17.214  0.00  0.00    +0.000 NA
ATOM     22  C   UNL     1       5.592   5.714  17.507  0.00  0.00    +0.000 A 
ATOM     23  C   UNL     1       5.929   6.989  17.016  0.00  0.00    +0.000 A 
ATOM     24  C   UNL     1       7.152   7.565  17.411  0.00  0.00    +0.000 A 
ATOM     25  C   UNL     1       8.009   6.898  18.290  0.00  0.00    +0.000 A 
ATOM     26  C   UNL     1       7.661   5.662  18.837  0.00  0.00    +0.000 A 
ATOM     27  C   UNL     1       6.450   5.111  18.420  0.00  0.00    +0.000 A 
ATOM     28  N   UNL     1       5.824   3.940  18.742  0.00  0.00    +0.000 N 
ATOM     29  H   UNL     1       6.163   3.260  19.406  0.00  0.00    +0.000 HD
ENDBRANCH  19  20
ENDBRANCH  18  19
ENDBRANCH   3  18
TORSDOF 6
ENDMDL
MODEL 9
REMARK VINA RESULT:      -8.2      0.832      1.905
REMARK  Name = 
REMARK  6 active torsions:
REMARK  status: ('A' for Active; 'I' for Inactive)
REMARK    1  A    between atoms: C_2  and  C_3
REMARK    2  A    between atoms: C_3  and  C_4
REMARK    3  A    between atoms: C_7  and  C_8
REMARK    4  A    between atoms: N_16  and  C_17
REMARK    5  A    between atoms: C_17  and  C_18
REMARK    6  A    between atoms: C_18  and  C_19
REMARK                            x       y       z     vdW  Elec       q    Type
REMARK                         _______ _______ _______ _____ _____    ______ ____
ROOT
ATOM      1  O   UNL     1       3.580   4.851  17.208  0.00  0.00    +0.000 OA
ATOM      2  C   UNL     1       4.027   5.941  17.558  0.00  0.00    +0.000 C 
ATOM      3  N   UNL     1       5.144   6.081  18.349  0.00  0.00    +0.000 N 
ATOM      4  H   UNL     1       5.418   7.010  18.661  0.00  0.00    +0.000 HD
ENDROOT
BRANCH   2   5
ATOM      5  C   UNL     1       3.418   7.257  17.096  0.00  0.00    +0.000 C 
BRANCH   5   6
ATOM      6  C   UNL     1       2.535   7.945  18.108  0.00  0.00    +0.000 A 
ATOM      7  C   UNL     1       2.365   7.416  19.392  0.00  0.00    +0.000 A 
ATOM      8  C   UNL     1       1.579   8.081  20.344  0.00  0.00    +0.000 A 
ATOM      9  C   UNL     1       0.947   9.304  20.057  0.00  0.00    +0.000 A 
ATOM     10  C   UNL     1       1.151   9.831  18.770  0.00  0.00    +0.000 A 
ATOM     11  C   UNL     1       1.920   9.163  17.808  0.00  0.00    +0.000 A 
BRANCH   9  12
ATOM     12  C   UNL     1       0.107  10.007  21.062  0.00  0.00    +0.000 A 
ATOM     13  C   UNL     1      -0.042   9.522  22.374  0.00  0.00    +0.000 A 
ATOM     14  C   UNL     1      -0.846  10.179  23.314  0.00  0.00    +0.000 A 
ATOM     15  C   UNL     1      -1.511  11.349  22.967  0.00  0.00    +0.000 A 
ATOM     16  C   UNL     1      -1.380  11.857  21.679  0.00  0.00    +0.000 A 
ATOM     17  C   UNL     1      -0.587  11.190  20.740  0.00  0.00    +0.000 A 
ENDBRANCH   9  12
ENDBRANCH   5   6
ENDBRANCH   2   5
BRANCH   3  18
ATOM     18  C   UNL     1       5.985   4.991  18.798  0.00  0.00    +0.000 C 
BRANCH  18  19
ATOM     19  C   UNL     1       7.305   4.914  18.038  0.00  0.00    +0.000 C 
BRANCH  19  20
ATOM     20  C   UNL     1       7.221   4.666  16.561  0.00  0.00    +0.000 A 
ATOM     21  N   UNL     1       7.843   5.254  15.550  0.00  0.00    +0.000 NA
ATOM     22  C   UNL     1       7.246   4.750  14.403  0.00  0.00    +0.000 A 
ATOM     23  C   UNL     1       7.462   5.041  13.044  0.00  0.00    +0.000 A 
ATOM     24  C   UNL     1       6.616   4.454  12.083  0.00  0.00    +0.000 A 
ATOM     25  C   UNL     1       5.594   3.581  12.464  0.00  0.00    +0.000 A 
ATOM     26  C   UNL     1       5.408   3.230  13.802  0.00  0.00    +0.000 A 
ATOM     27  C   UNL     1       6.252   3.836  14.733  0.00  0.00    +0.000 A 
ATOM     28  N   UNL     1       6.335   3.727  16.091  0.00  0.00    +0.000 N 
ATOM     29  H   UNL     1       5.768   3.122  16.665  0.00  0.00    +0.000 HD
ENDBRANCH  19  20
ENDBRANCH  18  19
ENDBRANCH   3  18
TORSDOF 6
ENDMDL
