MODEL 1
REMARK VINA RESULT:      -8.0      0.000      0.000
REMARK  Name = 
REMARK  8 active torsions:
REMARK  status: ('A' for Active; 'I' for Inactive)
REMARK    1  A    between atoms: C_1  and  N_2
REMARK    2  A    between atoms: C_6  and  C_7
REMARK    3  A    between atoms: C_7  and  C_8
REMARK    4  A    between atoms: C_8  and  C_9
REMARK    5  A    between atoms: C_13  and  N_14
REMARK    6  A    between atoms: C_17  and  C_18
REMARK    7  A    between atoms: C_18  and  C_19
REMARK    8  A    between atoms: C_22  and  N_23
REMARK                            x       y       z     vdW  Elec       q    Type
REMARK                         _______ _______ _______ _____ _____    ______ ____
ROOT
ATOM      1  C   UNL     1       2.440   7.423  18.653  0.00  0.00    +0.000 A 
ATOM      2  C   UNL     1       2.441   8.363  17.602  0.00  0.00    +0.000 A 
ATOM      3  C   UNL     1       2.063   9.685  17.802  0.00  0.00    +0.000 A 
ATOM      4  C   UNL     1       1.569  10.079  19.037  0.00  0.00    +0.000 A 
ATOM      5  C   UNL     1       1.305   9.108  20.015  0.00  0.00    +0.000 A 
ATOM      6  C   UNL     1       1.868   7.838  19.871  0.00  0.00    +0.000 A 
ENDROOT
BRANCH   5   7
ATOM      7  N   UNL     1       0.125   9.224  20.858  0.00  0.00    +0.000 N 
ATOM      8  C   UNL     1      -1.093   9.030  20.039  0.00  0.00    +0.000 C 
ATOM      9  C   UNL     1      -1.336  10.423  19.531  0.00  0.00    +0.000 A 
ATOM     10  C   UNL     1      -1.568  10.889  18.241  0.00  0.00    +0.000 A 
ATOM     11  C   UNL     1      -1.362  12.271  18.030  0.00  0.00    +0.000 A 
ATOM     12  C   UNL     1      -0.868  13.128  19.039  0.00  0.00    +0.000 A 
ATOM     13  C   UNL     1      -0.708  12.652  20.333  0.00  0.00    +0.000 A 
ATOM     14  C   UNL     1      -0.899  11.299  20.533  0.00  0.00    +0.000 A 
ATOM     15  C   UNL     1      -0.064  10.494  21.475  0.00  0.00    +0.000 C 
ATOM     16  O   UNL     1       0.506  10.943  22.452  0.00  0.00    +0.000 OA
BRANCH  12  17
ATOM     17  N   UNL     1      -0.637  14.481  18.758  0.00  0.00    +0.000 N 
ATOM     18  H   UNL     1       0.269  14.810  19.076  0.00  0.00    +0.000 HD
ATOM     19  H   UNL     1      -1.391  15.094  19.061  0.00  0.00    +0.000 HD
ENDBRANCH  12  17
BRANCH  10  20
ATOM     20  C   UNL     1      -1.750   9.978  17.045  0.00  0.00    +0.000 C 
BRANCH  20  21
ATOM     21  C   UNL     1      -2.742  10.472  16.002  0.00  0.00    +0.000 C 
ATOM     22  F   UNL     1      -2.554   9.821  14.825  0.00  0.00    +0.000 F 
ENDBRANCH  20  21
ENDBRANCH  10  20
ENDBRANCH   5   7
BRANCH   1  23
ATOM     23  C   UNL     1       3.041   5.957  18.453  0.00  0.00    +0.000 C 
ATOM     24  C   UNL     1       4.169   5.785  17.396  0.00  0.00    +0.000 C 
ATOM     25  O   UNL     1       5.095   5.274  18.371  0.00  0.00    +0.000 OA
ATOM     26  C   UNL     1       4.149   5.500  19.441  0.00  0.00    +0.000 C 
BRANCH  23  27
ATOM     27  C   UNL     1       1.884   4.970  18.195  0.00  0.00    +0.000 C 
BRANCH  27  33
ATOM     28  C   UNL     1       3.014   2.007  18.341  0.00  0.00    +0.000 C 
ATOM     29  N   UNL     1       2.228   2.696  19.328  0.00  0.00    +0.000 N 
ATOM     30  C   UNL     1       1.884   2.186  20.544  0.00  0.00    +0.000 A 
ATOM     31  N   UNL     1       1.110   3.039  21.175  0.00  0.00    +0.000 NA
ATOM     32  N   UNL     1       0.984   4.150  20.378  0.00  0.00    +0.000 NA
ATOM     33  C   UNL     1       1.684   3.957  19.276  0.00  0.00    +0.000 A 
ENDBRANCH  27  33
ENDBRANCH  23  27
ENDBRANCH   1  23
TORSDOF 7
ENDMDL
MODEL 2
REMARK VINA RESULT:      -7.9      2.240      3.069
REMARK  Name = 
REMARK  8 active torsions:
REMARK  status: ('A' for Active; 'I' for Inactive)
REMARK    1  A    between atoms: C_1  and  N_2
REMARK    2  A    between atoms: C_6  and  C_7
REMARK    3  A    between atoms: C_7  and  C_8
REMARK    4  A    between atoms: C_8  and  C_9
REMARK    5  A    between atoms: C_13  and  N_14
REMARK    6  A    between atoms: C_17  and  C_18
REMARK    7  A    between atoms: C_18  and  C_19
REMARK    8  A    between atoms: C_22  and  N_23
REMARK                            x       y       z     vdW  Elec       q    Type
REMARK                         _______ _______ _______ _____ _____    ______ ____
ROOT
ATOM      1  C   UNL     1       2.353   5.848  18.851  0.00  0.00    +0.000 A 
ATOM      2  C   UNL     1       2.317   6.698  17.727  0.00  0.00    +0.000 A 
ATOM      3  C   UNL     1       2.222   8.079  17.856  0.00  0.00    +0.000 A 
ATOM      4  C   UNL     1       2.052   8.640  19.113  0.00  0.00    +0.000 A 
ATOM      5  C   UNL     1       1.816   7.805  20.215  0.00  0.00    +0.000 A 
ATOM      6  C   UNL     1       2.109   6.445  20.103  0.00  0.00    +0.000 A 
ENDROOT
BRANCH   5   7
ATOM      7  N   UNL     1       0.859   8.200  21.237  0.00  0.00    +0.000 N 
ATOM      8  C   UNL     1      -0.454   8.478  20.611  0.00  0.00    +0.000 C 
ATOM      9  C   UNL     1      -0.298   9.920  20.218  0.00  0.00    +0.000 A 
ATOM     10  C   UNL     1      -0.535  10.560  19.006  0.00  0.00    +0.000 A 
ATOM     11  C   UNL     1       0.077  11.821  18.836  0.00  0.00    +0.000 A 
ATOM     12  C   UNL     1       0.950  12.379  19.796  0.00  0.00    +0.000 A 
ATOM     13  C   UNL     1       1.117  11.752  21.024  0.00  0.00    +0.000 A 
ATOM     14  C   UNL     1       0.528  10.513  21.183  0.00  0.00    +0.000 A 
ATOM     15  C   UNL     1       1.174   9.400  21.940  0.00  0.00    +0.000 C 
ATOM     16  O   UNL     1       1.983   9.551  22.837  0.00  0.00    +0.000 OA
BRANCH  12  17
ATOM     17  N   UNL     1       1.566  13.613  19.552  0.00  0.00    +0.000 N 
ATOM     18  H   UNL     1       1.967  13.686  18.621  0.00  0.00    +0.000 HD
ATOM     19  H   UNL     1       2.230  13.887  20.273  0.00  0.00    +0.000 HD
ENDBRANCH  12  17
BRANCH  10  20
ATOM     20  C   UNL     1      -1.159   9.873  17.809  0.00  0.00    +0.000 C 
BRANCH  20  21
ATOM     21  C   UNL     1      -2.636  10.170  17.592  0.00  0.00    +0.000 C 
ATOM     22  F   UNL     1      -3.391   9.096  17.939  0.00  0.00    +0.000 F 
ENDBRANCH  20  21
ENDBRANCH  10  20
ENDBRANCH   5   7
BRANCH   1  23
ATOM     23  C   UNL     1       2.637   4.284  18.697  0.00  0.00    +0.000 C 
ATOM     24  C   UNL     1       2.780   3.452  20.002  0.00  0.00    +0.000 C 
ATOM     25  O   UNL     1       1.694   2.579  19.643  0.00  0.00    +0.000 OA
ATOM     26  C   UNL     1       1.414   3.356  18.458  0.00  0.00    +0.000 C 
BRANCH  23  27
ATOM     27  C   UNL     1       3.857   4.083  17.774  0.00  0.00    +0.000 C 
BRANCH  27  33
ATOM     28  C   UNL     1       5.638   6.374  16.487  0.00  0.00    +0.000 C 
ATOM     29  N   UNL     1       5.851   5.695  17.736  0.00  0.00    +0.000 N 
ATOM     30  C   UNL     1       6.853   5.978  18.616  0.00  0.00    +0.000 A 
ATOM     31  N   UNL     1       6.807   5.133  19.621  0.00  0.00    +0.000 NA
ATOM     32  N   UNL     1       5.726   4.311  19.420  0.00  0.00    +0.000 NA
ATOM     33  C   UNL     1       5.129   4.668  18.298  0.00  0.00    +0.000 A 
ENDBRANCH  27  33
ENDBRANCH  23  27
ENDBRANCH   1  23
TORSDOF 7
ENDMDL
MODEL 3
REMARK VINA RESULT:      -7.7      5.369      8.551
REMARK  Name = 
REMARK  8 active torsions:
REMARK  status: ('A' for Active; 'I' for Inactive)
REMARK    1  A    between atoms: C_1  and  N_2
REMARK    2  A    between atoms: C_6  and  C_7
REMARK    3  A    between atoms: C_7  and  C_8
REMARK    4  A    between atoms: C_8  and  C_9
REMARK    5  A    between atoms: C_13  and  N_14
REMARK    6  A    between atoms: C_17  and  C_18
REMARK    7  A    between atoms: C_18  and  C_19
REMARK    8  A    between atoms: C_22  and  N_23
REMARK                            x       y       z     vdW  Elec       q    Type
REMARK                         _______ _______ _______ _____ _____    ______ ____
ROOT
ATOM      1  C   UNL     1      -3.728  11.336  18.177  0.00  0.00    +0.000 A 
ATOM      2  C   UNL     1      -3.608  10.612  16.974  0.00  0.00    +0.000 A 
ATOM      3  C   UNL     1      -2.453   9.906  16.657  0.00  0.00    +0.000 A 
ATOM      4  C   UNL     1      -1.345   9.993  17.487  0.00  0.00    +0.000 A 
ATOM      5  C   UNL     1      -1.347  10.916  18.544  0.00  0.00    +0.000 A 
ATOM      6  C   UNL     1      -2.564  11.459  18.960  0.00  0.00    +0.000 A 
ENDROOT
BRANCH   5   7
ATOM      7  N   UNL     1      -0.138  11.660  18.864  0.00  0.00    +0.000 N 
ATOM      8  C   UNL     1       0.517  11.061  20.049  0.00  0.00    +0.000 C 
ATOM      9  C   UNL     1      -0.197  11.763  21.170  0.00  0.00    +0.000 A 
ATOM     10  C   UNL     1      -0.815  11.256  22.309  0.00  0.00    +0.000 A 
ATOM     11  C   UNL     1      -1.731  12.114  22.956  0.00  0.00    +0.000 A 
ATOM     12  C   UNL     1      -2.075  13.385  22.443  0.00  0.00    +0.000 A 
ATOM     13  C   UNL     1      -1.395  13.894  21.345  0.00  0.00    +0.000 A 
ATOM     14  C   UNL     1      -0.509  13.048  20.707  0.00  0.00    +0.000 A 
ATOM     15  C   UNL     1      -0.337  13.025  19.223  0.00  0.00    +0.000 C 
ATOM     16  O   UNL     1      -0.555  13.968  18.486  0.00  0.00    +0.000 OA
BRANCH  12  17
ATOM     17  N   UNL     1      -3.026  14.174  23.103  0.00  0.00    +0.000 N 
ATOM     18  H   UNL     1      -3.373  14.944  22.539  0.00  0.00    +0.000 HD
ATOM     19  H   UNL     1      -2.730  14.482  24.026  0.00  0.00    +0.000 HD
ENDBRANCH  12  17
BRANCH  10  20
ATOM     20  C   UNL     1      -0.764   9.795  22.704  0.00  0.00    +0.000 C 
BRANCH  20  21
ATOM     21  C   UNL     1       0.482   9.378  23.473  0.00  0.00    +0.000 C 
ATOM     22  F   UNL     1       1.505   9.124  22.615  0.00  0.00    +0.000 F 
ENDBRANCH  20  21
ENDBRANCH  10  20
ENDBRANCH   5   7
BRANCH   1  23
ATOM     23  C   UNL     1      -5.116  11.996  18.611  0.00  0.00    +0.000 C 
ATOM     24  C   UNL     1      -6.015  12.575  17.481  0.00  0.00    +0.000 C 
ATOM     25  O   UNL     1      -7.116  11.715  17.828  0.00  0.00    +0.000 OA
ATOM     26  C   UNL     1      -6.322  11.042  18.830  0.00  0.00    +0.000 C 
BRANCH  23  27
ATOM     27  C   UNL     1      -4.852  13.051  19.705  0.00  0.00    +0.000 C 
BRANCH  27  33
ATOM     28  C   UNL     1      -7.713  14.325  20.223  0.00  0.00    +0.000 C 
ATOM     29  N   UNL     1      -6.975  13.444  21.087  0.00  0.00    +0.000 N 
ATOM     30  C   UNL     1      -7.430  12.959  22.277  0.00  0.00    +0.000 A 
ATOM     31  N   UNL     1      -6.489  12.240  22.847  0.00  0.00    +0.000 NA
ATOM     32  N   UNL     1      -5.415  12.215  21.993  0.00  0.00    +0.000 NA
ATOM     33  C   UNL     1      -5.718  12.915  20.915  0.00  0.00    +0.000 A 
ENDBRANCH  27  33
ENDBRANCH  23  27
ENDBRANCH   1  23
TORSDOF 7
ENDMDL
MODEL 4
REMARK VINA RESULT:      -7.7      4.692      8.544
REMARK  Name = 
REMARK  8 active torsions:
REMARK  status: ('A' for Active; 'I' for Inactive)
REMARK    1  A    between atoms: C_1  and  N_2
REMARK    2  A    between atoms: C_6  and  C_7
REMARK    3  A    between atoms: C_7  and  C_8
REMARK    4  A    between atoms: C_8  and  C_9
REMARK    5  A    between atoms: C_13  and  N_14
REMARK    6  A    between atoms: C_17  and  C_18
REMARK    7  A    between atoms: C_18  and  C_19
REMARK    8  A    between atoms: C_22  and  N_23
REMARK                            x       y       z     vdW  Elec       q    Type
REMARK                         _______ _______ _______ _____ _____    ______ ____
ROOT
ATOM      1  C   UNL     1      -4.097  11.554  18.252  0.00  0.00    +0.000 A 
ATOM      2  C   UNL     1      -4.237  10.910  17.006  0.00  0.00    +0.000 A 
ATOM      3  C   UNL     1      -3.211  10.151  16.455  0.00  0.00    +0.000 A 
ATOM      4  C   UNL     1      -1.977  10.104  17.086  0.00  0.00    +0.000 A 
ATOM      5  C   UNL     1      -1.729  10.947  18.179  0.00  0.00    +0.000 A 
ATOM      6  C   UNL     1      -2.813  11.542  18.829  0.00  0.00    +0.000 A 
ENDROOT
BRANCH   5   7
ATOM      7  N   UNL     1      -0.429  11.583  18.330  0.00  0.00    +0.000 N 
ATOM      8  C   UNL     1       0.481  10.685  19.078  0.00  0.00    +0.000 C 
ATOM      9  C   UNL     1       0.154  11.046  20.499  0.00  0.00    +0.000 A 
ATOM     10  C   UNL     1      -0.163  10.241  21.589  0.00  0.00    +0.000 A 
ATOM     11  C   UNL     1      -0.803  10.881  22.673  0.00  0.00    +0.000 A 
ATOM     12  C   UNL     1      -1.182  12.242  22.636  0.00  0.00    +0.000 A 
ATOM     13  C   UNL     1      -0.795  13.038  21.567  0.00  0.00    +0.000 A 
ATOM     14  C   UNL     1      -0.180  12.407  20.503  0.00  0.00    +0.000 A 
ATOM     15  C   UNL     1      -0.423  12.794  19.081  0.00  0.00    +0.000 C 
ATOM     16  O   UNL     1      -0.767  13.903  18.714  0.00  0.00    +0.000 OA
BRANCH  12  17
ATOM     17  N   UNL     1      -1.857  12.812  23.723  0.00  0.00    +0.000 N 
ATOM     18  H   UNL     1      -2.005  13.812  23.627  0.00  0.00    +0.000 HD
ATOM     19  H   UNL     1      -1.452  12.573  24.625  0.00  0.00    +0.000 HD
ENDBRANCH  12  17
BRANCH  10  20
ATOM     20  C   UNL     1      -0.111   8.728  21.550  0.00  0.00    +0.000 C 
BRANCH  20  21
ATOM     21  C   UNL     1       1.277   8.136  21.350  0.00  0.00    +0.000 C 
ATOM     22  F   UNL     1       1.186   6.830  20.985  0.00  0.00    +0.000 F 
ENDBRANCH  20  21
ENDBRANCH  10  20
ENDBRANCH   5   7
BRANCH   1  23
ATOM     23  C   UNL     1      -5.337  12.275  18.955  0.00  0.00    +0.000 C 
ATOM     24  C   UNL     1      -6.449  12.847  18.030  0.00  0.00    +0.000 C 
ATOM     25  O   UNL     1      -7.467  12.038  18.644  0.00  0.00    +0.000 OA
ATOM     26  C   UNL     1      -6.489  11.370  19.472  0.00  0.00    +0.000 C 
BRANCH  23  27
ATOM     27  C   UNL     1      -4.809  13.355  19.922  0.00  0.00    +0.000 C 
BRANCH  27  33
ATOM     28  C   UNL     1      -7.350  14.463  21.470  0.00  0.00    +0.000 C 
ATOM     29  N   UNL     1      -6.320  13.598  21.978  0.00  0.00    +0.000 N 
ATOM     30  C   UNL     1      -6.306  13.056  23.229  0.00  0.00    +0.000 A 
ATOM     31  N   UNL     1      -5.198  12.371  23.399  0.00  0.00    +0.000 NA
ATOM     32  N   UNL     1      -4.495  12.426  22.221  0.00  0.00    +0.000 NA
ATOM     33  C   UNL     1      -5.185  13.140  21.352  0.00  0.00    +0.000 A 
ENDBRANCH  27  33
ENDBRANCH  23  27
ENDBRANCH   1  23
TORSDOF 7
ENDMDL
MODEL 5
REMARK VINA RESULT:      -7.7      3.158      8.234
REMARK  Name = 
REMARK  8 active torsions:
REMARK  status: ('A' for Active; 'I' for Inactive)
REMARK    1  A    between atoms: C_1  and  N_2
REMARK    2  A    between atoms: C_6  and  C_7
REMARK    3  A    between atoms: C_7  and  C_8
REMARK    4  A    between atoms: C_8  and  C_9
REMARK    5  A    between atoms: C_13  and  N_14
REMARK    6  A    between atoms: C_17  and  C_18
REMARK    7  A    between atoms: C_18  and  C_19
REMARK    8  A    between atoms: C_22  and  N_23
REMARK                            x       y       z     vdW  Elec       q    Type
REMARK                         _______ _______ _______ _____ _____    ______ ____
ROOT
ATOM      1  C   UNL     1       1.741   8.252  19.669  0.00  0.00    +0.000 A 
ATOM      2  C   UNL     1       2.105   8.723  18.391  0.00  0.00    +0.000 A 
ATOM      3  C   UNL     1       2.564   7.865  17.398  0.00  0.00    +0.000 A 
ATOM      4  C   UNL     1       2.773   6.526  17.691  0.00  0.00    +0.000 A 
ATOM      5  C   UNL     1       2.676   6.087  19.020  0.00  0.00    +0.000 A 
ATOM      6  C   UNL     1       2.032   6.903  19.952  0.00  0.00    +0.000 A 
ENDROOT
BRANCH   5   7
ATOM      7  N   UNL     1       3.614   5.100  19.532  0.00  0.00    +0.000 N 
ATOM      8  C   UNL     1       4.978   5.674  19.558  0.00  0.00    +0.000 C 
ATOM      9  C   UNL     1       5.452   5.380  18.162  0.00  0.00    +0.000 A 
ATOM     10  C   UNL     1       6.036   6.209  17.210  0.00  0.00    +0.000 A 
ATOM     11  C   UNL     1       6.001   5.748  15.876  0.00  0.00    +0.000 A 
ATOM     12  C   UNL     1       5.341   4.556  15.500  0.00  0.00    +0.000 A 
ATOM     13  C   UNL     1       4.826   3.715  16.477  0.00  0.00    +0.000 A 
ATOM     14  C   UNL     1       4.850   4.174  17.779  0.00  0.00    +0.000 A 
ATOM     15  C   UNL     1       3.745   3.916  18.750  0.00  0.00    +0.000 C 
ATOM     16  O   UNL     1       2.987   2.965  18.699  0.00  0.00    +0.000 OA
BRANCH  12  17
ATOM     17  N   UNL     1       5.298   4.172  14.153  0.00  0.00    +0.000 N 
ATOM     18  H   UNL     1       4.447   3.679  13.901  0.00  0.00    +0.000 HD
ATOM     19  H   UNL     1       6.130   3.675  13.845  0.00  0.00    +0.000 HD
ENDBRANCH  12  17
BRANCH  10  20
ATOM     20  C   UNL     1       6.436   7.643  17.487  0.00  0.00    +0.000 C 
BRANCH  20  21
ATOM     21  C   UNL     1       7.915   7.855  17.779  0.00  0.00    +0.000 C 
ATOM     22  F   UNL     1       8.341   6.977  18.724  0.00  0.00    +0.000 F 
ENDBRANCH  20  21
ENDBRANCH  10  20
ENDBRANCH   5   7
BRANCH   1  23
ATOM     23  C   UNL     1       1.052   9.215  20.741  0.00  0.00    +0.000 C 
ATOM     24  C   UNL     1      -0.322   8.774  21.318  0.00  0.00    +0.000 C 
ATOM     25  O   UNL     1       0.171   8.777  22.670  0.00  0.00    +0.000 OA
ATOM     26  C   UNL     1       1.510   9.080  22.219  0.00  0.00    +0.000 C 
BRANCH  23  27
ATOM     27  C   UNL     1       0.978  10.643  20.160  0.00  0.00    +0.000 C 
BRANCH  27  33
ATOM     28  C   UNL     1      -0.746  12.432  22.135  0.00  0.00    +0.000 C 
ATOM     29  N   UNL     1      -1.112  11.971  20.823  0.00  0.00    +0.000 N 
ATOM     30  C   UNL     1      -2.272  12.288  20.182  0.00  0.00    +0.000 A 
ATOM     31  N   UNL     1      -2.327  11.652  19.034  0.00  0.00    +0.000 NA
ATOM     32  N   UNL     1      -1.160  10.942  18.899  0.00  0.00    +0.000 NA
ATOM     33  C   UNL     1      -0.411  11.158  19.964  0.00  0.00    +0.000 A 
ENDBRANCH  27  33
ENDBRANCH  23  27
ENDBRANCH   1  23
TORSDOF 7
ENDMDL
MODEL 6
REMARK VINA RESULT:      -7.6      3.252      8.295
REMARK  Name = 
REMARK  8 active torsions:
REMARK  status: ('A' for Active; 'I' for Inactive)
REMARK    1  A    between atoms: C_1  and  N_2
REMARK    2  A    between atoms: C_6  and  C_7
REMARK    3  A    between atoms: C_7  and  C_8
REMARK    4  A    between atoms: C_8  and  C_9
REMARK    5  A    between atoms: C_13  and  N_14
REMARK    6  A    between atoms: C_17  and  C_18
REMARK    7  A    between atoms: C_18  and  C_19
REMARK    8  A    between atoms: C_22  and  N_23
REMARK                            x       y       z     vdW  Elec       q    Type
REMARK                         _______ _______ _______ _____ _____    ______ ____
ROOT
ATOM      1  C   UNL     1       1.705   8.257  19.589  0.00  0.00    +0.000 A 
ATOM      2  C   UNL     1       2.151   8.781  18.359  0.00  0.00    +0.000 A 
ATOM      3  C   UNL     1       2.701   7.970  17.374  0.00  0.00    +0.000 A 
ATOM      4  C   UNL     1       2.919   6.625  17.635  0.00  0.00    +0.000 A 
ATOM      5  C   UNL     1       2.735   6.137  18.937  0.00  0.00    +0.000 A 
ATOM      6  C   UNL     1       2.005   6.905  19.846  0.00  0.00    +0.000 A 
ENDROOT
BRANCH   5   7
ATOM      7  N   UNL     1       3.655   5.151  19.483  0.00  0.00    +0.000 N 
ATOM      8  C   UNL     1       5.025   5.712  19.516  0.00  0.00    +0.000 C 
ATOM      9  C   UNL     1       5.515   5.384  18.133  0.00  0.00    +0.000 A 
ATOM     10  C   UNL     1       6.121   6.188  17.172  0.00  0.00    +0.000 A 
ATOM     11  C   UNL     1       6.099   5.699  15.847  0.00  0.00    +0.000 A 
ATOM     12  C   UNL     1       5.433   4.506  15.487  0.00  0.00    +0.000 A 
ATOM     13  C   UNL     1       4.895   3.691  16.474  0.00  0.00    +0.000 A 
ATOM     14  C   UNL     1       4.906   4.177  17.767  0.00  0.00    +0.000 A 
ATOM     15  C   UNL     1       3.785   3.950  18.727  0.00  0.00    +0.000 C 
ATOM     16  O   UNL     1       3.018   3.006  18.685  0.00  0.00    +0.000 OA
BRANCH  12  17
ATOM     17  N   UNL     1       5.405   4.096  14.148  0.00  0.00    +0.000 N 
ATOM     18  H   UNL     1       4.470   4.077  13.752  0.00  0.00    +0.000 HD
ATOM     19  H   UNL     1       5.906   3.227  13.978  0.00  0.00    +0.000 HD
ENDBRANCH  12  17
BRANCH  10  20
ATOM     20  C   UNL     1       6.532   7.623  17.425  0.00  0.00    +0.000 C 
BRANCH  20  21
ATOM     21  C   UNL     1       7.966   7.809  17.901  0.00  0.00    +0.000 C 
ATOM     22  F   UNL     1       8.323   6.797  18.735  0.00  0.00    +0.000 F 
ENDBRANCH  20  21
ENDBRANCH  10  20
ENDBRANCH   5   7
BRANCH   1  23
ATOM     23  C   UNL     1       0.917   9.167  20.640  0.00  0.00    +0.000 C 
ATOM     24  C   UNL     1      -0.174   8.476  21.506  0.00  0.00    +0.000 C 
ATOM     25  O   UNL     1       0.477   8.841  22.735  0.00  0.00    +0.000 OA
ATOM     26  C   UNL     1       1.593   9.413  22.017  0.00  0.00    +0.000 C 
BRANCH  23  27
ATOM     27  C   UNL     1       0.348  10.400  19.909  0.00  0.00    +0.000 C 
BRANCH  27  33
ATOM     28  C   UNL     1       2.329  12.382  18.419  0.00  0.00    +0.000 C 
ATOM     29  N   UNL     1       1.707  12.564  19.702  0.00  0.00    +0.000 N 
ATOM     30  C   UNL     1       1.832  13.678  20.477  0.00  0.00    +0.000 A 
ATOM     31  N   UNL     1       1.197  13.497  21.613  0.00  0.00    +0.000 NA
ATOM     32  N   UNL     1       0.604  12.260  21.561  0.00  0.00    +0.000 NA
ATOM     33  C   UNL     1       0.885  11.708  20.396  0.00  0.00    +0.000 A 
ENDBRANCH  27  33
ENDBRANCH  23  27
ENDBRANCH   1  23
TORSDOF 7
ENDMDL
MODEL 7
REMARK VINA RESULT:      -7.6      1.054      1.169
REMARK  Name = 
REMARK  8 active torsions:
REMARK  status: ('A' for Active; 'I' for Inactive)
REMARK    1  A    between atoms: C_1  and  N_2
REMARK    2  A    between atoms: C_6  and  C_7
REMARK    3  A    between atoms: C_7  and  C_8
REMARK    4  A    between atoms: C_8  and  C_9
REMARK    5  A    between atoms: C_13  and  N_14
REMARK    6  A    between atoms: C_17  and  C_18
REMARK    7  A    between atoms: C_18  and  C_19
REMARK    8  A    between atoms: C_22  and  N_23
REMARK                            x       y       z     vdW  Elec       q    Type
REMARK                         _______ _______ _______ _____ _____    ______ ____
ROOT
ATOM      1  C   UNL     1       2.517   7.223  18.789  0.00  0.00    +0.000 A 
ATOM      2  C   UNL     1       2.360   8.150  17.738  0.00  0.00    +0.000 A 
ATOM      3  C   UNL     1       1.887   9.437  17.963  0.00  0.00    +0.000 A 
ATOM      4  C   UNL     1       1.456   9.799  19.230  0.00  0.00    +0.000 A 
ATOM      5  C   UNL     1       1.350   8.818  20.228  0.00  0.00    +0.000 A 
ATOM      6  C   UNL     1       2.006   7.600  20.046  0.00  0.00    +0.000 A 
ENDROOT
BRANCH   5   7
ATOM      7  N   UNL     1       0.231   8.842  21.157  0.00  0.00    +0.000 N 
ATOM      8  C   UNL     1      -1.028   9.081  20.416  0.00  0.00    +0.000 C 
ATOM      9  C   UNL     1      -1.060  10.583  20.360  0.00  0.00    +0.000 A 
ATOM     10  C   UNL     1      -1.256  11.445  19.286  0.00  0.00    +0.000 A 
ATOM     11  C   UNL     1      -0.838  12.781  19.475  0.00  0.00    +0.000 A 
ATOM     12  C   UNL     1      -0.181  13.214  20.649  0.00  0.00    +0.000 A 
ATOM     13  C   UNL     1      -0.059  12.351  21.729  0.00  0.00    +0.000 A 
ATOM     14  C   UNL     1      -0.457  11.042  21.538  0.00  0.00    +0.000 A 
ATOM     15  C   UNL     1       0.267   9.880  22.134  0.00  0.00    +0.000 C 
ATOM     16  O   UNL     1       0.932   9.926  23.151  0.00  0.00    +0.000 OA
BRANCH  12  17
ATOM     17  N   UNL     1       0.254  14.540  20.760  0.00  0.00    +0.000 N 
ATOM     18  H   UNL     1      -0.405  15.142  21.246  0.00  0.00    +0.000 HD
ATOM     19  H   UNL     1       0.557  14.945  19.878  0.00  0.00    +0.000 HD
ENDBRANCH  12  17
BRANCH  10  20
ATOM     20  C   UNL     1      -1.619  10.974  17.894  0.00  0.00    +0.000 C 
BRANCH  20  21
ATOM     21  C   UNL     1      -3.097  10.685  17.675  0.00  0.00    +0.000 C 
ATOM     22  F   UNL     1      -3.346   9.356  17.813  0.00  0.00    +0.000 F 
ENDBRANCH  20  21
ENDBRANCH  10  20
ENDBRANCH   5   7
BRANCH   1  23
ATOM     23  C   UNL     1       3.224   5.811  18.548  0.00  0.00    +0.000 C 
ATOM     24  C   UNL     1       4.089   5.655  17.265  0.00  0.00    +0.000 C 
ATOM     25  O   UNL     1       5.269   5.330  18.020  0.00  0.00    +0.000 OA
ATOM     26  C   UNL     1       4.577   5.558  19.268  0.00  0.00    +0.000 C 
BRANCH  23  27
ATOM     27  C   UNL     1       2.163   4.695  18.641  0.00  0.00    +0.000 C 
BRANCH  27  33
ATOM     28  C   UNL     1       3.705   1.957  19.092  0.00  0.00    +0.000 C 
ATOM     29  N   UNL     1       2.958   2.713  20.061  0.00  0.00    +0.000 N 
ATOM     30  C   UNL     1       2.841   2.389  21.379  0.00  0.00    +0.000 A 
ATOM     31  N   UNL     1       2.038   3.244  21.972  0.00  0.00    +0.000 NA
ATOM     32  N   UNL     1       1.662   4.174  21.035  0.00  0.00    +0.000 NA
ATOM     33  C   UNL     1       2.241   3.873  19.888  0.00  0.00    +0.000 A 
ENDBRANCH  27  33
ENDBRANCH  23  27
ENDBRANCH   1  23
TORSDOF 7
ENDMDL
MODEL 8
REMARK VINA RESULT:      -7.6      0.642      1.177
REMARK  Name = 
REMARK  8 active torsions:
REMARK  status: ('A' for Active; 'I' for Inactive)
REMARK    1  A    between atoms: C_1  and  N_2
REMARK    2  A    between atoms: C_6  and  C_7
REMARK    3  A    between atoms: C_7  and  C_8
REMARK    4  A    between atoms: C_8  and  C_9
REMARK    5  A    between atoms: C_13  and  N_14
REMARK    6  A    between atoms: C_17  and  C_18
REMARK    7  A    between atoms: C_18  and  C_19
REMARK    8  A    between atoms: C_22  and  N_23
REMARK                            x       y       z     vdW  Elec       q    Type
REMARK                         _______ _______ _______ _____ _____    ______ ____
ROOT
ATOM      1  C   UNL     1       2.460   7.493  18.620  0.00  0.00    +0.000 A 
ATOM      2  C   UNL     1       2.432   8.461  17.596  0.00  0.00    +0.000 A 
ATOM      3  C   UNL     1       2.005   9.763  17.831  0.00  0.00    +0.000 A 
ATOM      4  C   UNL     1       1.493  10.103  19.074  0.00  0.00    +0.000 A 
ATOM      5  C   UNL     1       1.260   9.097  20.023  0.00  0.00    +0.000 A 
ATOM      6  C   UNL     1       1.869   7.853  19.847  0.00  0.00    +0.000 A 
ENDROOT
BRANCH   5   7
ATOM      7  N   UNL     1       0.073   9.146  20.863  0.00  0.00    +0.000 N 
ATOM      8  C   UNL     1      -1.135   8.953  20.029  0.00  0.00    +0.000 C 
ATOM      9  C   UNL     1      -1.413  10.359  19.577  0.00  0.00    +0.000 A 
ATOM     10  C   UNL     1      -1.651  10.872  18.305  0.00  0.00    +0.000 A 
ATOM     11  C   UNL     1      -1.482  12.265  18.153  0.00  0.00    +0.000 A 
ATOM     12  C   UNL     1      -1.016  13.094  19.198  0.00  0.00    +0.000 A 
ATOM     13  C   UNL     1      -0.850  12.570  20.473  0.00  0.00    +0.000 A 
ATOM     14  C   UNL     1      -1.005  11.205  20.617  0.00  0.00    +0.000 A 
ATOM     15  C   UNL     1      -0.154  10.385  21.530  0.00  0.00    +0.000 C 
ATOM     16  O   UNL     1       0.399  10.809  22.528  0.00  0.00    +0.000 OA
BRANCH  12  17
ATOM     17  N   UNL     1      -0.821  14.463  18.974  0.00  0.00    +0.000 N 
ATOM     18  H   UNL     1      -1.681  14.967  18.781  0.00  0.00    +0.000 HD
ATOM     19  H   UNL     1      -0.101  14.664  18.284  0.00  0.00    +0.000 HD
ENDBRANCH  12  17
BRANCH  10  20
ATOM     20  C   UNL     1      -1.803  10.005  17.073  0.00  0.00    +0.000 C 
BRANCH  20  21
ATOM     21  C   UNL     1      -2.661  10.602  15.966  0.00  0.00    +0.000 C 
ATOM     22  F   UNL     1      -2.948   9.659  15.031  0.00  0.00    +0.000 F 
ENDBRANCH  20  21
ENDBRANCH  10  20
ENDBRANCH   5   7
BRANCH   1  23
ATOM     23  C   UNL     1       3.115   6.055  18.382  0.00  0.00    +0.000 C 
ATOM     24  C   UNL     1       4.413   5.994  17.528  0.00  0.00    +0.000 C 
ATOM     25  O   UNL     1       5.164   5.387  18.595  0.00  0.00    +0.000 OA
ATOM     26  C   UNL     1       4.042   5.501  19.499  0.00  0.00    +0.000 C 
BRANCH  23  27
ATOM     27  C   UNL     1       2.039   5.099  17.827  0.00  0.00    +0.000 C 
BRANCH  27  33
ATOM     28  C   UNL     1       0.910   3.711  20.450  0.00  0.00    +0.000 C 
ATOM     29  N   UNL     1       1.653   3.097  19.382  0.00  0.00    +0.000 N 
ATOM     30  C   UNL     1       1.948   1.769  19.303  0.00  0.00    +0.000 A 
ATOM     31  N   UNL     1       2.693   1.547  18.244  0.00  0.00    +0.000 NA
ATOM     32  N   UNL     1       2.850   2.745  17.591  0.00  0.00    +0.000 NA
ATOM     33  C   UNL     1       2.196   3.676  18.260  0.00  0.00    +0.000 A 
ENDBRANCH  27  33
ENDBRANCH  23  27
ENDBRANCH   1  23
TORSDOF 7
ENDMDL
MODEL 9
REMARK VINA RESULT:      -7.5      2.245      3.153
REMARK  Name = 
REMARK  8 active torsions:
REMARK  status: ('A' for Active; 'I' for Inactive)
REMARK    1  A    between atoms: C_1  and  N_2
REMARK    2  A    between atoms: C_6  and  C_7
REMARK    3  A    between atoms: C_7  and  C_8
REMARK    4  A    between atoms: C_8  and  C_9
REMARK    5  A    between atoms: C_13  and  N_14
REMARK    6  A    between atoms: C_17  and  C_18
REMARK    7  A    between atoms: C_18  and  C_19
REMARK    8  A    between atoms: C_22  and  N_23
REMARK                            x       y       z     vdW  Elec       q    Type
REMARK                         _______ _______ _______ _____ _____    ______ ____
ROOT
ATOM      1  C   UNL     1       2.276   5.811  18.906  0.00  0.00    +0.000 A 
ATOM      2  C   UNL     1       2.285   6.668  17.787  0.00  0.00    +0.000 A 
ATOM      3  C   UNL     1       2.240   8.051  17.924  0.00  0.00    +0.000 A 
ATOM      4  C   UNL     1       2.078   8.611  19.182  0.00  0.00    +0.000 A 
ATOM      5  C   UNL     1       1.798   7.780  20.276  0.00  0.00    +0.000 A 
ATOM      6  C   UNL     1       2.041   6.410  20.159  0.00  0.00    +0.000 A 
ENDROOT
BRANCH   5   7
ATOM      7  N   UNL     1       0.845   8.205  21.290  0.00  0.00    +0.000 N 
ATOM      8  C   UNL     1      -0.460   8.499  20.656  0.00  0.00    +0.000 C 
ATOM      9  C   UNL     1      -0.276   9.933  20.247  0.00  0.00    +0.000 A 
ATOM     10  C   UNL     1      -0.498  10.562  19.026  0.00  0.00    +0.000 A 
ATOM     11  C   UNL     1       0.138  11.810  18.843  0.00  0.00    +0.000 A 
ATOM     12  C   UNL     1       1.018  12.363  19.800  0.00  0.00    +0.000 A 
ATOM     13  C   UNL     1       1.169  11.748  21.035  0.00  0.00    +0.000 A 
ATOM     14  C   UNL     1       0.557  10.522  21.207  0.00  0.00    +0.000 A 
ATOM     15  C   UNL     1       1.180   9.406  21.980  0.00  0.00    +0.000 C 
ATOM     16  O   UNL     1       1.989   9.553  22.878  0.00  0.00    +0.000 OA
BRANCH  12  17
ATOM     17  N   UNL     1       1.658  13.582  19.543  0.00  0.00    +0.000 N 
ATOM     18  H   UNL     1       2.336  13.840  20.254  0.00  0.00    +0.000 HD
ATOM     19  H   UNL     1       1.016  14.344  19.338  0.00  0.00    +0.000 HD
ENDBRANCH  12  17
BRANCH  10  20
ATOM     20  C   UNL     1      -1.130   9.873  17.836  0.00  0.00    +0.000 C 
BRANCH  20  21
ATOM     21  C   UNL     1      -2.594  10.214  17.594  0.00  0.00    +0.000 C 
ATOM     22  F   UNL     1      -3.359   9.093  17.668  0.00  0.00    +0.000 F 
ENDBRANCH  20  21
ENDBRANCH  10  20
ENDBRANCH   5   7
BRANCH   1  23
ATOM     23  C   UNL     1       2.504   4.238  18.746  0.00  0.00    +0.000 C 
ATOM     24  C   UNL     1       1.498   3.294  19.464  0.00  0.00    +0.000 C 
ATOM     25  O   UNL     1       1.115   2.658  18.232  0.00  0.00    +0.000 OA
ATOM     26  C   UNL     1       1.941   3.563  17.465  0.00  0.00    +0.000 C 
BRANCH  23  27
ATOM     27  C   UNL     1       3.958   3.898  19.134  0.00  0.00    +0.000 C 
BRANCH  27  33
ATOM     28  C   UNL     1       6.700   5.487  19.321  0.00  0.00    +0.000 C 
ATOM     29  N   UNL     1       6.161   4.798  18.180  0.00  0.00    +0.000 N 
ATOM     30  C   UNL     1       6.792   4.670  16.978  0.00  0.00    +0.000 A 
ATOM     31  N   UNL     1       6.003   4.047  16.133  0.00  0.00    +0.000 NA
ATOM     32  N   UNL     1       4.852   3.719  16.806  0.00  0.00    +0.000 NA
ATOM     33  C   UNL     1       4.959   4.144  18.051  0.00  0.00    +0.000 A 
ENDBRANCH  27  33
ENDBRANCH  23  27
ENDBRANCH   1  23
TORSDOF 7
ENDMDL
