MODEL 1
REMARK VINA RESULT:      -8.9      0.000      0.000
REMARK  Name = 
REMARK  5 active torsions:
REMARK  status: ('A' for Active; 'I' for Inactive)
REMARK    1  A    between atoms: C_1  and  C_2
REMARK    2  A    between atoms: C_6  and  C_7
REMARK    3  A    between atoms: C_7  and  C_8
REMARK    4  A    between atoms: N_10  and  C_11
REMARK    5  A    between atoms: C_24  and  C_25
REMARK                            x       y       z     vdW  Elec       q    Type
REMARK                         _______ _______ _______ _____ _____    ______ ____
ROOT
ATOM      1  C   UNL     1       2.060   8.153  18.620  0.00  0.00    +0.000 C 
ATOM      2  O   UNL     1       1.834   8.036  19.824  0.00  0.00    +0.000 OA
ATOM      3  N   UNL     1       2.592   7.157  17.804  0.00  0.00    +0.000 N 
ATOM      4  H   UNL     1       3.144   7.494  17.021  0.00  0.00    +0.000 HD
ENDROOT
BRANCH   3   5
ATOM      5  C   UNL     1       2.943   5.896  18.328  0.00  0.00    +0.000 A 
ATOM      6  C   UNL     1       4.296   5.548  18.550  0.00  0.00    +0.000 A 
ATOM      7  C   UNL     1       4.668   4.230  18.824  0.00  0.00    +0.000 A 
ATOM      8  C   UNL     1       3.670   3.280  18.846  0.00  0.00    +0.000 A 
ATOM      9  C   UNL     1       2.332   3.663  18.748  0.00  0.00    +0.000 A 
ATOM     10  C   UNL     1       1.927   4.965  18.528  0.00  0.00    +0.000 A 
ATOM     11  C   UNL     1       1.530   2.448  18.600  0.00  0.00    +0.000 C 
ATOM     12  O   UNL     1       0.333   2.409  18.407  0.00  0.00    +0.000 OA
ATOM     13  N   UNL     1       2.413   1.386  18.577  0.00  0.00    +0.000 N 
ATOM     14  C   UNL     1       3.780   1.796  18.821  0.00  0.00    +0.000 C 
ATOM     15  H   UNL     1       2.180   0.653  17.917  0.00  0.00    +0.000 HD
ENDBRANCH   3   5
BRANCH   1  16
ATOM     16  C   UNL     1       1.753   9.449  17.898  0.00  0.00    +0.000 C 
BRANCH  16  22
ATOM     17  C   UNL     1      -4.930  11.347  18.042  0.00  0.00    +0.000 C 
ATOM     18  C   UNL     1      -3.452  11.047  18.094  0.00  0.00    +0.000 A 
ATOM     19  C   UNL     1      -2.896  10.160  17.155  0.00  0.00    +0.000 A 
ATOM     20  C   UNL     1      -1.535   9.804  17.174  0.00  0.00    +0.000 A 
ATOM     21  C   UNL     1      -0.712  10.367  18.164  0.00  0.00    +0.000 A 
ATOM     22  C   UNL     1       0.671  10.255  18.531  0.00  0.00    +0.000 A 
ATOM     23  C   UNL     1       0.834  11.116  19.600  0.00  0.00    +0.000 A 
ATOM     24  O   UNL     1      -0.331  11.720  19.925  0.00  0.00    +0.000 OA
ATOM     25  C   UNL     1      -1.281  11.265  19.061  0.00  0.00    +0.000 A 
ATOM     26  C   UNL     1      -2.632  11.647  19.079  0.00  0.00    +0.000 A 
ATOM     27  C   UNL     1      -3.174  12.629  20.076  0.00  0.00    +0.000 C 
ENDBRANCH  16  22
ENDBRANCH   1  16
TORSDOF 3
ENDMDL
MODEL 2
REMARK VINA RESULT:      -8.7      6.511     10.002
REMARK  Name = 
REMARK  5 active torsions:
REMARK  status: ('A' for Active; 'I' for Inactive)
REMARK    1  A    between atoms: C_1  and  C_2
REMARK    2  A    between atoms: C_6  and  C_7
REMARK    3  A    between atoms: C_7  and  C_8
REMARK    4  A    between atoms: N_10  and  C_11
REMARK    5  A    between atoms: C_24  and  C_25
REMARK                            x       y       z     vdW  Elec       q    Type
REMARK                         _______ _______ _______ _____ _____    ______ ____
ROOT
ATOM      1  C   UNL     1       8.019   8.163  18.043  0.00  0.00    +0.000 C 
ATOM      2  O   UNL     1       8.655   7.519  18.877  0.00  0.00    +0.000 OA
ATOM      3  N   UNL     1       8.192   9.519  17.776  0.00  0.00    +0.000 N 
ATOM      4  H   UNL     1       7.357  10.004  17.459  0.00  0.00    +0.000 HD
ENDROOT
BRANCH   3   5
ATOM      5  C   UNL     1       9.136  10.288  18.487  0.00  0.00    +0.000 A 
ATOM      6  C   UNL     1       9.050  10.435  19.891  0.00  0.00    +0.000 A 
ATOM      7  C   UNL     1       9.817  11.386  20.567  0.00  0.00    +0.000 A 
ATOM      8  C   UNL     1      10.642  12.190  19.811  0.00  0.00    +0.000 A 
ATOM      9  C   UNL     1      10.806  11.946  18.446  0.00  0.00    +0.000 A 
ATOM     10  C   UNL     1      10.100  10.979  17.758  0.00  0.00    +0.000 A 
ATOM     11  C   UNL     1      11.567  13.060  17.881  0.00  0.00    +0.000 C 
ATOM     12  O   UNL     1      11.822  13.219  16.706  0.00  0.00    +0.000 OA
ATOM     13  N   UNL     1      11.801  13.949  18.913  0.00  0.00    +0.000 N 
ATOM     14  C   UNL     1      11.342  13.448  20.191  0.00  0.00    +0.000 C 
ATOM     15  H   UNL     1      11.723  14.926  18.658  0.00  0.00    +0.000 HD
ENDBRANCH   3   5
BRANCH   1  16
ATOM     16  C   UNL     1       6.954   7.495  17.198  0.00  0.00    +0.000 C 
BRANCH  16  22
ATOM     17  C   UNL     1       1.360   3.873  19.161  0.00  0.00    +0.000 C 
ATOM     18  C   UNL     1       2.652   4.570  18.816  0.00  0.00    +0.000 A 
ATOM     19  C   UNL     1       2.609   5.854  18.241  0.00  0.00    +0.000 A 
ATOM     20  C   UNL     1       3.774   6.542  17.855  0.00  0.00    +0.000 A 
ATOM     21  C   UNL     1       5.016   5.920  18.064  0.00  0.00    +0.000 A 
ATOM     22  C   UNL     1       6.386   6.258  17.804  0.00  0.00    +0.000 A 
ATOM     23  C   UNL     1       7.122   5.194  18.293  0.00  0.00    +0.000 A 
ATOM     24  O   UNL     1       6.317   4.235  18.804  0.00  0.00    +0.000 OA
ATOM     25  C   UNL     1       5.031   4.665  18.662  0.00  0.00    +0.000 A 
ATOM     26  C   UNL     1       3.895   3.941  19.062  0.00  0.00    +0.000 A 
ATOM     27  C   UNL     1       3.991   2.591  19.708  0.00  0.00    +0.000 C 
ENDBRANCH  16  22
ENDBRANCH   1  16
TORSDOF 3
ENDMDL
MODEL 3
REMARK VINA RESULT:      -8.3      1.453      1.944
REMARK  Name = 
REMARK  5 active torsions:
REMARK  status: ('A' for Active; 'I' for Inactive)
REMARK    1  A    between atoms: C_1  and  C_2
REMARK    2  A    between atoms: C_6  and  C_7
REMARK    3  A    between atoms: C_7  and  C_8
REMARK    4  A    between atoms: N_10  and  C_11
REMARK    5  A    between atoms: C_24  and  C_25
REMARK                            x       y       z     vdW  Elec       q    Type
REMARK                         _______ _______ _______ _____ _____    ______ ____
ROOT
ATOM      1  C   UNL     1       2.045   8.273  18.433  0.00  0.00    +0.000 C 
ATOM      2  O   UNL     1       1.954   8.045  19.638  0.00  0.00    +0.000 OA
ATOM      3  N   UNL     1       2.317   7.319  17.455  0.00  0.00    +0.000 N 
ATOM      4  H   UNL     1       2.812   7.669  16.640  0.00  0.00    +0.000 HD
ENDROOT
BRANCH   3   5
ATOM      5  C   UNL     1       2.538   5.969  17.795  0.00  0.00    +0.000 A 
ATOM      6  C   UNL     1       1.466   5.126  18.172  0.00  0.00    +0.000 A 
ATOM      7  C   UNL     1       1.697   3.876  18.749  0.00  0.00    +0.000 A 
ATOM      8  C   UNL     1       3.008   3.506  18.959  0.00  0.00    +0.000 A 
ATOM      9  C   UNL     1       4.049   4.295  18.468  0.00  0.00    +0.000 A 
ATOM     10  C   UNL     1       3.853   5.512  17.847  0.00  0.00    +0.000 A 
ATOM     11  C   UNL     1       5.302   3.767  19.008  0.00  0.00    +0.000 C 
ATOM     12  O   UNL     1       6.401   4.257  18.855  0.00  0.00    +0.000 OA
ATOM     13  N   UNL     1       4.969   2.707  19.829  0.00  0.00    +0.000 N 
ATOM     14  C   UNL     1       3.555   2.400  19.792  0.00  0.00    +0.000 C 
ATOM     15  H   UNL     1       5.512   2.643  20.682  0.00  0.00    +0.000 HD
ENDBRANCH   3   5
BRANCH   1  16
ATOM     16  C   UNL     1       1.848   9.675  17.894  0.00  0.00    +0.000 C 
BRANCH  16  22
ATOM     17  C   UNL     1      -4.928  11.190  18.159  0.00  0.00    +0.000 C 
ATOM     18  C   UNL     1      -3.435  10.976  18.184  0.00  0.00    +0.000 A 
ATOM     19  C   UNL     1      -2.848  10.114  17.240  0.00  0.00    +0.000 A 
ATOM     20  C   UNL     1      -1.469   9.836  17.234  0.00  0.00    +0.000 A 
ATOM     21  C   UNL     1      -0.659  10.454  18.203  0.00  0.00    +0.000 A 
ATOM     22  C   UNL     1       0.734  10.424  18.543  0.00  0.00    +0.000 A 
ATOM     23  C   UNL     1       0.869  11.302  19.601  0.00  0.00    +0.000 A 
ATOM     24  O   UNL     1      -0.322  11.842  19.946  0.00  0.00    +0.000 OA
ATOM     25  C   UNL     1      -1.261  11.325  19.104  0.00  0.00    +0.000 A 
ATOM     26  C   UNL     1      -2.632  11.631  19.147  0.00  0.00    +0.000 A 
ATOM     27  C   UNL     1      -3.209  12.589  20.147  0.00  0.00    +0.000 C 
ENDBRANCH  16  22
ENDBRANCH   1  16
TORSDOF 3
ENDMDL
MODEL 4
REMARK VINA RESULT:      -8.2      2.884      4.051
REMARK  Name = 
REMARK  5 active torsions:
REMARK  status: ('A' for Active; 'I' for Inactive)
REMARK    1  A    between atoms: C_1  and  C_2
REMARK    2  A    between atoms: C_6  and  C_7
REMARK    3  A    between atoms: C_7  and  C_8
REMARK    4  A    between atoms: N_10  and  C_11
REMARK    5  A    between atoms: C_24  and  C_25
REMARK                            x       y       z     vdW  Elec       q    Type
REMARK                         _______ _______ _______ _____ _____    ______ ____
ROOT
ATOM      1  C   UNL     1       2.226   7.493  19.133  0.00  0.00    +0.000 C 
ATOM      2  O   UNL     1       1.868   7.984  18.064  0.00  0.00    +0.000 OA
ATOM      3  N   UNL     1       3.133   6.445  19.271  0.00  0.00    +0.000 N 
ATOM      4  H   UNL     1       2.986   5.854  20.084  0.00  0.00    +0.000 HD
ENDROOT
BRANCH   3   5
ATOM      5  C   UNL     1       3.715   5.832  18.142  0.00  0.00    +0.000 A 
ATOM      6  C   UNL     1       3.232   4.598  17.650  0.00  0.00    +0.000 A 
ATOM      7  C   UNL     1       3.951   3.866  16.703  0.00  0.00    +0.000 A 
ATOM      8  C   UNL     1       5.159   4.380  16.286  0.00  0.00    +0.000 A 
ATOM      9  C   UNL     1       5.558   5.655  16.689  0.00  0.00    +0.000 A 
ATOM     10  C   UNL     1       4.844   6.427  17.584  0.00  0.00    +0.000 A 
ATOM     11  C   UNL     1       6.944   5.845  16.262  0.00  0.00    +0.000 C 
ATOM     12  O   UNL     1       7.638   6.808  16.516  0.00  0.00    +0.000 OA
ATOM     13  N   UNL     1       7.340   4.669  15.653  0.00  0.00    +0.000 N 
ATOM     14  C   UNL     1       6.257   3.716  15.531  0.00  0.00    +0.000 C 
ATOM     15  H   UNL     1       8.289   4.383  15.858  0.00  0.00    +0.000 HD
ENDBRANCH   3   5
BRANCH   1  16
ATOM     16  C   UNL     1       1.688   8.024  20.446  0.00  0.00    +0.000 C 
BRANCH  16  22
ATOM     17  C   UNL     1      -2.544  12.714  23.340  0.00  0.00    +0.000 C 
ATOM     18  C   UNL     1      -1.661  11.751  22.585  0.00  0.00    +0.000 A 
ATOM     19  C   UNL     1      -1.182  10.601  23.237  0.00  0.00    +0.000 A 
ATOM     20  C   UNL     1      -0.321   9.685  22.606  0.00  0.00    +0.000 A 
ATOM     21  C   UNL     1       0.059   9.933  21.276  0.00  0.00    +0.000 A 
ATOM     22  C   UNL     1       0.905   9.285  20.315  0.00  0.00    +0.000 A 
ATOM     23  C   UNL     1       0.811  10.055  19.171  0.00  0.00    +0.000 A 
ATOM     24  O   UNL     1       0.003  11.123  19.363  0.00  0.00    +0.000 OA
ATOM     25  C   UNL     1      -0.454  11.061  20.645  0.00  0.00    +0.000 A 
ATOM     26  C   UNL     1      -1.314  12.002  21.236  0.00  0.00    +0.000 A 
ATOM     27  C   UNL     1      -1.833  13.195  20.488  0.00  0.00    +0.000 C 
ENDBRANCH  16  22
ENDBRANCH   1  16
TORSDOF 3
ENDMDL
MODEL 5
REMARK VINA RESULT:      -8.1      2.567      8.184
REMARK  Name = 
REMARK  5 active torsions:
REMARK  status: ('A' for Active; 'I' for Inactive)
REMARK    1  A    between atoms: C_1  and  C_2
REMARK    2  A    between atoms: C_6  and  C_7
REMARK    3  A    between atoms: C_7  and  C_8
REMARK    4  A    between atoms: N_10  and  C_11
REMARK    5  A    between atoms: C_24  and  C_25
REMARK                            x       y       z     vdW  Elec       q    Type
REMARK                         _______ _______ _______ _____ _____    ______ ____
ROOT
ATOM      1  C   UNL     1       0.437   9.162  20.414  0.00  0.00    +0.000 C 
ATOM      2  O   UNL     1      -0.528   9.043  21.167  0.00  0.00    +0.000 OA
ATOM      3  N   UNL     1       0.456   9.927  19.249  0.00  0.00    +0.000 N 
ATOM      4  H   UNL     1       1.076   9.586  18.521  0.00  0.00    +0.000 HD
ENDROOT
BRANCH   3   5
ATOM      5  C   UNL     1      -0.688  10.635  18.824  0.00  0.00    +0.000 A 
ATOM      6  C   UNL     1      -1.345  11.544  19.684  0.00  0.00    +0.000 A 
ATOM      7  C   UNL     1      -2.608  12.053  19.370  0.00  0.00    +0.000 A 
ATOM      8  C   UNL     1      -3.196  11.616  18.204  0.00  0.00    +0.000 A 
ATOM      9  C   UNL     1      -2.480  10.818  17.310  0.00  0.00    +0.000 A 
ATOM     10  C   UNL     1      -1.210  10.340  17.567  0.00  0.00    +0.000 A 
ATOM     11  C   UNL     1      -3.411  10.353  16.281  0.00  0.00    +0.000 C 
ATOM     12  O   UNL     1      -3.149   9.573  15.390  0.00  0.00    +0.000 OA
ATOM     13  N   UNL     1      -4.655  10.856  16.611  0.00  0.00    +0.000 N 
ATOM     14  C   UNL     1      -4.609  11.744  17.754  0.00  0.00    +0.000 C 
ATOM     15  H   UNL     1      -5.426  10.218  16.456  0.00  0.00    +0.000 HD
ENDBRANCH   3   5
BRANCH   1  16
ATOM     16  C   UNL     1       1.745   8.459  20.714  0.00  0.00    +0.000 C 
BRANCH  16  22
ATOM     17  C   UNL     1       1.761   1.733  18.973  0.00  0.00    +0.000 C 
ATOM     18  C   UNL     1       1.855   3.213  19.248  0.00  0.00    +0.000 A 
ATOM     19  C   UNL     1       1.340   3.722  20.455  0.00  0.00    +0.000 A 
ATOM     20  C   UNL     1       1.356   5.097  20.755  0.00  0.00    +0.000 A 
ATOM     21  C   UNL     1       1.917   5.979  19.816  0.00  0.00    +0.000 A 
ATOM     22  C   UNL     1       2.103   7.399  19.730  0.00  0.00    +0.000 A 
ATOM     23  C   UNL     1       2.758   7.607  18.531  0.00  0.00    +0.000 A 
ATOM     24  O   UNL     1       2.963   6.442  17.874  0.00  0.00    +0.000 OA
ATOM     25  C   UNL     1       2.447   5.445  18.646  0.00  0.00    +0.000 A 
ATOM     26  C   UNL     1       2.451   4.082  18.304  0.00  0.00    +0.000 A 
ATOM     27  C   UNL     1       3.049   3.579  17.024  0.00  0.00    +0.000 C 
ENDBRANCH  16  22
ENDBRANCH   1  16
TORSDOF 3
ENDMDL
MODEL 6
REMARK VINA RESULT:      -8.0      1.090      2.252
REMARK  Name = 
REMARK  5 active torsions:
REMARK  status: ('A' for Active; 'I' for Inactive)
REMARK    1  A    between atoms: C_1  and  C_2
REMARK    2  A    between atoms: C_6  and  C_7
REMARK    3  A    between atoms: C_7  and  C_8
REMARK    4  A    between atoms: N_10  and  C_11
REMARK    5  A    between atoms: C_24  and  C_25
REMARK                            x       y       z     vdW  Elec       q    Type
REMARK                         _______ _______ _______ _____ _____    ______ ____
ROOT
ATOM      1  C   UNL     1       2.125   8.156  18.665  0.00  0.00    +0.000 C 
ATOM      2  O   UNL     1       1.879   8.034  19.864  0.00  0.00    +0.000 OA
ATOM      3  N   UNL     1       2.651   7.157  17.848  0.00  0.00    +0.000 N 
ATOM      4  H   UNL     1       3.221   7.490  17.076  0.00  0.00    +0.000 HD
ENDROOT
BRANCH   3   5
ATOM      5  C   UNL     1       2.970   5.885  18.367  0.00  0.00    +0.000 A 
ATOM      6  C   UNL     1       4.313   5.505  18.594  0.00  0.00    +0.000 A 
ATOM      7  C   UNL     1       4.653   4.178  18.863  0.00  0.00    +0.000 A 
ATOM      8  C   UNL     1       3.634   3.251  18.873  0.00  0.00    +0.000 A 
ATOM      9  C   UNL     1       2.305   3.664  18.771  0.00  0.00    +0.000 A 
ATOM     10  C   UNL     1       1.932   4.976  18.557  0.00  0.00    +0.000 A 
ATOM     11  C   UNL     1       1.477   2.469  18.611  0.00  0.00    +0.000 C 
ATOM     12  O   UNL     1       0.280   2.459  18.412  0.00  0.00    +0.000 OA
ATOM     13  N   UNL     1       2.336   1.387  18.587  0.00  0.00    +0.000 N 
ATOM     14  C   UNL     1       3.710   1.764  18.841  0.00  0.00    +0.000 C 
ATOM     15  H   UNL     1       2.090   0.664  17.922  0.00  0.00    +0.000 HD
ENDBRANCH   3   5
BRANCH   1  16
ATOM     16  C   UNL     1       1.853   9.464  17.949  0.00  0.00    +0.000 C 
BRANCH  16  22
ATOM     17  C   UNL     1      -1.481  14.042  21.973  0.00  0.00    +0.000 C 
ATOM     18  C   UNL     1      -0.885  12.991  21.069  0.00  0.00    +0.000 A 
ATOM     19  C   UNL     1       0.496  12.729  21.136  0.00  0.00    +0.000 A 
ATOM     20  C   UNL     1       1.122  11.795  20.292  0.00  0.00    +0.000 A 
ATOM     21  C   UNL     1       0.331  11.099  19.362  0.00  0.00    +0.000 A 
ATOM     22  C   UNL     1       0.574  10.117  18.344  0.00  0.00    +0.000 A 
ATOM     23  C   UNL     1      -0.669   9.835  17.809  0.00  0.00    +0.000 A 
ATOM     24  O   UNL     1      -1.636  10.576  18.396  0.00  0.00    +0.000 OA
ATOM     25  C   UNL     1      -1.035  11.355  19.339  0.00  0.00    +0.000 A 
ATOM     26  C   UNL     1      -1.702  12.279  20.160  0.00  0.00    +0.000 A 
ATOM     27  C   UNL     1      -3.185  12.497  20.082  0.00  0.00    +0.000 C 
ENDBRANCH  16  22
ENDBRANCH   1  16
TORSDOF 3
ENDMDL
MODEL 7
REMARK VINA RESULT:      -8.0      2.537      8.318
REMARK  Name = 
REMARK  5 active torsions:
REMARK  status: ('A' for Active; 'I' for Inactive)
REMARK    1  A    between atoms: C_1  and  C_2
REMARK    2  A    between atoms: C_6  and  C_7
REMARK    3  A    between atoms: C_7  and  C_8
REMARK    4  A    between atoms: N_10  and  C_11
REMARK    5  A    between atoms: C_24  and  C_25
REMARK                            x       y       z     vdW  Elec       q    Type
REMARK                         _______ _______ _______ _____ _____    ______ ____
ROOT
ATOM      1  C   UNL     1       1.663   9.760  18.075  0.00  0.00    +0.000 C 
ATOM      2  O   UNL     1       2.140  10.894  18.083  0.00  0.00    +0.000 OA
ATOM      3  N   UNL     1       0.322   9.453  18.293  0.00  0.00    +0.000 N 
ATOM      4  H   UNL     1       0.153   8.545  18.715  0.00  0.00    +0.000 HD
ENDROOT
BRANCH   3   5
ATOM      5  C   UNL     1      -0.621  10.464  18.571  0.00  0.00    +0.000 A 
ATOM      6  C   UNL     1      -0.619  11.144  19.811  0.00  0.00    +0.000 A 
ATOM      7  C   UNL     1      -1.689  11.957  20.192  0.00  0.00    +0.000 A 
ATOM      8  C   UNL     1      -2.755  12.050  19.325  0.00  0.00    +0.000 A 
ATOM      9  C   UNL     1      -2.684  11.473  18.057  0.00  0.00    +0.000 A 
ATOM     10  C   UNL     1      -1.618  10.706  17.630  0.00  0.00    +0.000 A 
ATOM     11  C   UNL     1      -4.013  11.559  17.451  0.00  0.00    +0.000 C 
ATOM     12  O   UNL     1      -4.337  11.084  16.383  0.00  0.00    +0.000 OA
ATOM     13  N   UNL     1      -4.841  12.150  18.387  0.00  0.00    +0.000 N 
ATOM     14  C   UNL     1      -4.124  12.584  19.567  0.00  0.00    +0.000 C 
ATOM     15  H   UNL     1      -5.774  11.757  18.438  0.00  0.00    +0.000 HD
ENDBRANCH   3   5
BRANCH   1  16
ATOM     16  C   UNL     1       2.539   8.554  17.804  0.00  0.00    +0.000 C 
BRANCH  16  22
ATOM     17  C   UNL     1       2.771   1.743  19.156  0.00  0.00    +0.000 C 
ATOM     18  C   UNL     1       2.644   3.236  18.982  0.00  0.00    +0.000 A 
ATOM     19  C   UNL     1       2.930   3.810  17.729  0.00  0.00    +0.000 A 
ATOM     20  C   UNL     1       2.873   5.199  17.511  0.00  0.00    +0.000 A 
ATOM     21  C   UNL     1       2.510   6.029  18.585  0.00  0.00    +0.000 A 
ATOM     22  C   UNL     1       2.360   7.443  18.780  0.00  0.00    +0.000 A 
ATOM     23  C   UNL     1       1.945   7.586  20.090  0.00  0.00    +0.000 A 
ATOM     24  O   UNL     1       1.854   6.388  20.710  0.00  0.00    +0.000 OA
ATOM     25  C   UNL     1       2.203   5.433  19.803  0.00  0.00    +0.000 A 
ATOM     26  C   UNL     1       2.247   4.054  20.067  0.00  0.00    +0.000 A 
ATOM     27  C   UNL     1       1.895   3.482  21.408  0.00  0.00    +0.000 C 
ENDBRANCH  16  22
ENDBRANCH   1  16
TORSDOF 3
ENDMDL
MODEL 8
REMARK VINA RESULT:      -8.0      2.578      8.454
REMARK  Name = 
REMARK  5 active torsions:
REMARK  status: ('A' for Active; 'I' for Inactive)
REMARK    1  A    between atoms: C_1  and  C_2
REMARK    2  A    between atoms: C_6  and  C_7
REMARK    3  A    between atoms: C_7  and  C_8
REMARK    4  A    between atoms: N_10  and  C_11
REMARK    5  A    between atoms: C_24  and  C_25
REMARK                            x       y       z     vdW  Elec       q    Type
REMARK                         _______ _______ _______ _____ _____    ______ ____
ROOT
ATOM      1  C   UNL     1       0.368  10.563  18.152  0.00  0.00    +0.000 C 
ATOM      2  O   UNL     1       0.125  11.689  18.584  0.00  0.00    +0.000 OA
ATOM      3  N   UNL     1      -0.556   9.725  17.533  0.00  0.00    +0.000 N 
ATOM      4  H   UNL     1      -0.385   8.731  17.657  0.00  0.00    +0.000 HD
ENDROOT
BRANCH   3   5
ATOM      5  C   UNL     1      -1.901  10.118  17.369  0.00  0.00    +0.000 A 
ATOM      6  C   UNL     1      -2.520  10.087  16.098  0.00  0.00    +0.000 A 
ATOM      7  C   UNL     1      -3.753  10.706  15.879  0.00  0.00    +0.000 A 
ATOM      8  C   UNL     1      -4.329  11.366  16.942  0.00  0.00    +0.000 A 
ATOM      9  C   UNL     1      -3.764  11.279  18.215  0.00  0.00    +0.000 A 
ATOM     10  C   UNL     1      -2.573  10.632  18.475  0.00  0.00    +0.000 A 
ATOM     11  C   UNL     1      -4.466  12.227  19.081  0.00  0.00    +0.000 C 
ATOM     12  O   UNL     1      -4.183  12.476  20.234  0.00  0.00    +0.000 OA
ATOM     13  N   UNL     1      -5.399  12.874  18.293  0.00  0.00    +0.000 N 
ATOM     14  C   UNL     1      -5.458  12.337  16.950  0.00  0.00    +0.000 C 
ATOM     15  H   UNL     1      -5.502  13.864  18.482  0.00  0.00    +0.000 HD
ENDBRANCH   3   5
BRANCH   1  16
ATOM     16  C   UNL     1       1.762   9.978  18.258  0.00  0.00    +0.000 C 
BRANCH  16  22
ATOM     17  C   UNL     1       3.912   3.400  18.867  0.00  0.00    +0.000 C 
ATOM     18  C   UNL     1       3.358   4.802  18.844  0.00  0.00    +0.000 A 
ATOM     19  C   UNL     1       3.571   5.609  17.711  0.00  0.00    +0.000 A 
ATOM     20  C   UNL     1       3.118   6.939  17.642  0.00  0.00    +0.000 A 
ATOM     21  C   UNL     1       2.424   7.466  18.744  0.00  0.00    +0.000 A 
ATOM     22  C   UNL     1       1.837   8.733  19.073  0.00  0.00    +0.000 A 
ATOM     23  C   UNL     1       1.279   8.561  20.325  0.00  0.00    +0.000 A 
ATOM     24  O   UNL     1       1.497   7.310  20.792  0.00  0.00    +0.000 OA
ATOM     25  C   UNL     1       2.200   6.637  19.838  0.00  0.00    +0.000 A 
ATOM     26  C   UNL     1       2.634   5.306  19.951  0.00  0.00    +0.000 A 
ATOM     27  C   UNL     1       2.348   4.470  21.164  0.00  0.00    +0.000 C 
ENDBRANCH  16  22
ENDBRANCH   1  16
TORSDOF 3
ENDMDL
MODEL 9
REMARK VINA RESULT:      -8.0      1.715      2.039
REMARK  Name = 
REMARK  5 active torsions:
REMARK  status: ('A' for Active; 'I' for Inactive)
REMARK    1  A    between atoms: C_1  and  C_2
REMARK    2  A    between atoms: C_6  and  C_7
REMARK    3  A    between atoms: C_7  and  C_8
REMARK    4  A    between atoms: N_10  and  C_11
REMARK    5  A    between atoms: C_24  and  C_25
REMARK                            x       y       z     vdW  Elec       q    Type
REMARK                         _______ _______ _______ _____ _____    ______ ____
ROOT
ATOM      1  C   UNL     1       1.828   8.663  18.325  0.00  0.00    +0.000 C 
ATOM      2  O   UNL     1       1.353   8.067  17.359  0.00  0.00    +0.000 OA
ATOM      3  N   UNL     1       2.394   8.054  19.443  0.00  0.00    +0.000 N 
ATOM      4  H   UNL     1       2.307   8.579  20.308  0.00  0.00    +0.000 HD
ENDROOT
BRANCH   3   5
ATOM      5  C   UNL     1       2.448   6.650  19.559  0.00  0.00    +0.000 A 
ATOM      6  C   UNL     1       1.634   5.962  20.489  0.00  0.00    +0.000 A 
ATOM      7  C   UNL     1       1.856   4.617  20.789  0.00  0.00    +0.000 A 
ATOM      8  C   UNL     1       2.914   3.993  20.164  0.00  0.00    +0.000 A 
ATOM      9  C   UNL     1       3.626   4.652  19.160  0.00  0.00    +0.000 A 
ATOM     10  C   UNL     1       3.396   5.966  18.803  0.00  0.00    +0.000 A 
ATOM     11  C   UNL     1       4.793   3.834  18.830  0.00  0.00    +0.000 C 
ATOM     12  O   UNL     1       5.676   4.140  18.056  0.00  0.00    +0.000 OA
ATOM     13  N   UNL     1       4.762   2.735  19.668  0.00  0.00    +0.000 N 
ATOM     14  C   UNL     1       3.565   2.693  20.482  0.00  0.00    +0.000 C 
ATOM     15  H   UNL     1       5.665   2.446  20.023  0.00  0.00    +0.000 HD
ENDBRANCH   3   5
BRANCH   1  16
ATOM     16  C   UNL     1       1.841  10.177  18.370  0.00  0.00    +0.000 C 
BRANCH  16  22
ATOM     17  C   UNL     1      -5.028  11.002  17.738  0.00  0.00    +0.000 C 
ATOM     18  C   UNL     1      -3.538  10.935  17.963  0.00  0.00    +0.000 A 
ATOM     19  C   UNL     1      -2.742  10.182  17.081  0.00  0.00    +0.000 A 
ATOM     20  C   UNL     1      -1.353  10.042  17.259  0.00  0.00    +0.000 A 
ATOM     21  C   UNL     1      -0.752  10.689  18.353  0.00  0.00    +0.000 A 
ATOM     22  C   UNL     1       0.578  10.779  18.882  0.00  0.00    +0.000 A 
ATOM     23  C   UNL     1       0.476  11.614  19.979  0.00  0.00    +0.000 A 
ATOM     24  O   UNL     1      -0.800  12.017  20.172  0.00  0.00    +0.000 OA
ATOM     25  C   UNL     1      -1.558  11.452  19.190  0.00  0.00    +0.000 A 
ATOM     26  C   UNL     1      -2.946  11.618  19.052  0.00  0.00    +0.000 A 
ATOM     27  C   UNL     1      -3.750  12.465  19.994  0.00  0.00    +0.000 C 
ENDBRANCH  16  22
ENDBRANCH   1  16
TORSDOF 3
ENDMDL
