MODEL 1
REMARK VINA RESULT:      -8.8      0.000      0.000
REMARK  Name = 
REMARK  7 active torsions:
REMARK  status: ('A' for Active; 'I' for Inactive)
REMARK    1  A    between atoms: C_1  and  C_2
REMARK    2  A    between atoms: C_2  and  S_3
REMARK    3  A    between atoms: C_2  and  C_10
REMARK    4  A    between atoms: S_3  and  C_4
REMARK    5  A    between atoms: N_8  and  C_9
REMARK    6  A    between atoms: C_14  and  N_15
REMARK    7  A    between atoms: C_16  and  C_18
REMARK                            x       y       z     vdW  Elec       q    Type
REMARK                         _______ _______ _______ _____ _____    ______ ____
ROOT
ATOM      1  C   UNL     1       4.702   5.239  17.440  0.00  0.00    +0.000 A 
ATOM      2  C   UNL     1       4.008   4.070  17.804  0.00  0.00    +0.000 A 
ATOM      3  C   UNL     1       2.734   4.140  18.345  0.00  0.00    +0.000 A 
ATOM      4  C   UNL     1       2.141   5.379  18.582  0.00  0.00    +0.000 A 
ATOM      5  C   UNL     1       2.810   6.584  18.327  0.00  0.00    +0.000 A 
ATOM      6  C   UNL     1       4.078   6.502  17.701  0.00  0.00    +0.000 A 
ENDROOT
BRANCH   5   7
ATOM      7  N   UNL     1       2.189   7.834  18.696  0.00  0.00    +0.000 N 
ATOM      8  C   UNL     1       1.632   8.068  19.948  0.00  0.00    +0.000 C 
ATOM      9  O   UNL     1       1.761   7.286  20.906  0.00  0.00    +0.000 OA
ATOM     10  H   UNL     1       2.285   8.641  18.085  0.00  0.00    +0.000 HD
BRANCH   8  11
ATOM     11  C   UNL     1       0.844   9.355  20.195  0.00  0.00    +0.000 C 
ATOM     12  C   UNL     1       0.492   9.568  21.486  0.00  0.00    +0.000 C 
ATOM     13  C   UNL     1      -0.454  10.636  21.840  0.00  0.00    +0.000 A 
ATOM     14  C   UNL     1      -1.099  10.647  23.084  0.00  0.00    +0.000 A 
ATOM     15  C   UNL     1      -2.059  11.618  23.366  0.00  0.00    +0.000 A 
ATOM     16  C   UNL     1      -2.355  12.600  22.422  0.00  0.00    +0.000 A 
ATOM     17  C   UNL     1      -1.694  12.609  21.188  0.00  0.00    +0.000 A 
ATOM     18  C   UNL     1      -0.751  11.618  20.880  0.00  0.00    +0.000 A 
ATOM     19  C   UNL     1       0.015  11.595  19.575  0.00  0.00    +0.000 C 
ATOM     20  N   UNL     1       0.394  10.212  19.175  0.00  0.00    +0.000 N 
ATOM     21  H   UNL     1      -0.427   9.773  18.748  0.00  0.00    +0.000 HD
ENDBRANCH   8  11
ENDBRANCH   5   7
BRANCH   1  23
ATOM     22  C   UNL     1       7.177   4.725  17.846  0.00  0.00    +0.000 C 
ATOM     23  C   UNL     1       6.099   5.035  16.811  0.00  0.00    +0.000 C 
BRANCH  23  24
ATOM     24  S   UNL     1       6.030   3.784  15.461  0.00  0.00    +0.000 S 
BRANCH  24  25
ATOM     25  C   UNL     1       6.842   4.535  14.124  0.00  0.00    +0.000 A 
ATOM     26  N   UNL     1       7.747   5.489  14.164  0.00  0.00    +0.000 NA
ATOM     27  N   UNL     1       8.208   5.690  12.876  0.00  0.00    +0.000 NA
ATOM     28  C   UNL     1       7.551   4.872  12.086  0.00  0.00    +0.000 A 
ATOM     29  N   UNL     1       6.647   4.160  12.819  0.00  0.00    +0.000 N 
ATOM     30  C   UNL     1       5.685   3.238  12.281  0.00  0.00    +0.000 C 
ENDBRANCH  24  25
ENDBRANCH  23  24
ENDBRANCH   1  23
TORSDOF 5
ENDMDL
MODEL 2
REMARK VINA RESULT:      -8.6      0.965      1.615
REMARK  Name = 
REMARK  7 active torsions:
REMARK  status: ('A' for Active; 'I' for Inactive)
REMARK    1  A    between atoms: C_1  and  C_2
REMARK    2  A    between atoms: C_2  and  S_3
REMARK    3  A    between atoms: C_2  and  C_10
REMARK    4  A    between atoms: S_3  and  C_4
REMARK    5  A    between atoms: N_8  and  C_9
REMARK    6  A    between atoms: C_14  and  N_15
REMARK    7  A    between atoms: C_16  and  C_18
REMARK                            x       y       z     vdW  Elec       q    Type
REMARK                         _______ _______ _______ _____ _____    ______ ____
ROOT
ATOM      1  C   UNL     1       4.578   5.184  17.314  0.00  0.00    +0.000 A 
ATOM      2  C   UNL     1       3.736   4.059  17.242  0.00  0.00    +0.000 A 
ATOM      3  C   UNL     1       2.422   4.127  17.679  0.00  0.00    +0.000 A 
ATOM      4  C   UNL     1       1.932   5.304  18.242  0.00  0.00    +0.000 A 
ATOM      5  C   UNL     1       2.740   6.434  18.426  0.00  0.00    +0.000 A 
ATOM      6  C   UNL     1       4.057   6.380  17.905  0.00  0.00    +0.000 A 
ENDROOT
BRANCH   5   7
ATOM      7  N   UNL     1       2.209   7.585  19.116  0.00  0.00    +0.000 N 
ATOM      8  C   UNL     1       1.645   7.520  20.385  0.00  0.00    +0.000 C 
ATOM      9  O   UNL     1       1.695   6.504  21.099  0.00  0.00    +0.000 OA
ATOM     10  H   UNL     1       2.378   8.515  18.742  0.00  0.00    +0.000 HD
BRANCH   8  11
ATOM     11  C   UNL     1       0.952   8.753  20.967  0.00  0.00    +0.000 C 
ATOM     12  C   UNL     1       0.508   9.643  20.047  0.00  0.00    +0.000 C 
ATOM     13  C   UNL     1       0.030  10.972  20.458  0.00  0.00    +0.000 A 
ATOM     14  C   UNL     1      -0.089  12.015  19.531  0.00  0.00    +0.000 A 
ATOM     15  C   UNL     1      -0.459  13.290  19.956  0.00  0.00    +0.000 A 
ATOM     16  C   UNL     1      -0.742  13.521  21.301  0.00  0.00    +0.000 A 
ATOM     17  C   UNL     1      -0.651  12.475  22.227  0.00  0.00    +0.000 A 
ATOM     18  C   UNL     1      -0.248  11.196  21.817  0.00  0.00    +0.000 A 
ATOM     19  C   UNL     1      -0.160  10.022  22.767  0.00  0.00    +0.000 C 
ATOM     20  N   UNL     1       0.872   9.037  22.341  0.00  0.00    +0.000 N 
ATOM     21  H   UNL     1       1.786   9.394  22.632  0.00  0.00    +0.000 HD
ENDBRANCH   8  11
ENDBRANCH   5   7
BRANCH   1  23
ATOM     22  C   UNL     1       7.037   4.716  17.856  0.00  0.00    +0.000 C 
ATOM     23  C   UNL     1       6.011   4.999  16.762  0.00  0.00    +0.000 C 
BRANCH  23  24
ATOM     24  S   UNL     1       6.035   3.737  15.421  0.00  0.00    +0.000 S 
BRANCH  24  25
ATOM     25  C   UNL     1       6.844   4.517  14.099  0.00  0.00    +0.000 A 
ATOM     26  N   UNL     1       7.717   5.499  14.155  0.00  0.00    +0.000 NA
ATOM     27  N   UNL     1       8.192   5.717  12.874  0.00  0.00    +0.000 NA
ATOM     28  C   UNL     1       7.574   4.880  12.073  0.00  0.00    +0.000 A 
ATOM     29  N   UNL     1       6.681   4.138  12.790  0.00  0.00    +0.000 N 
ATOM     30  C   UNL     1       5.757   3.187  12.235  0.00  0.00    +0.000 C 
ENDBRANCH  24  25
ENDBRANCH  23  24
ENDBRANCH   1  23
TORSDOF 5
ENDMDL
MODEL 3
REMARK VINA RESULT:      -8.4      2.750      4.520
REMARK  Name = 
REMARK  7 active torsions:
REMARK  status: ('A' for Active; 'I' for Inactive)
REMARK    1  A    between atoms: C_1  and  C_2
REMARK    2  A    between atoms: C_2  and  S_3
REMARK    3  A    between atoms: C_2  and  C_10
REMARK    4  A    between atoms: S_3  and  C_4
REMARK    5  A    between atoms: N_8  and  C_9
REMARK    6  A    between atoms: C_14  and  N_15
REMARK    7  A    between atoms: C_16  and  C_18
REMARK                            x       y       z     vdW  Elec       q    Type
REMARK                         _______ _______ _______ _____ _____    ______ ____
ROOT
ATOM      1  C   UNL     1       2.270   7.373  19.406  0.00  0.00    +0.000 A 
ATOM      2  C   UNL     1       2.600   7.841  18.120  0.00  0.00    +0.000 A 
ATOM      3  C   UNL     1       2.159   9.080  17.681  0.00  0.00    +0.000 A 
ATOM      4  C   UNL     1       1.340   9.860  18.494  0.00  0.00    +0.000 A 
ATOM      5  C   UNL     1       0.900   9.418  19.749  0.00  0.00    +0.000 A 
ATOM      6  C   UNL     1       1.419   8.187  20.222  0.00  0.00    +0.000 A 
ENDROOT
BRANCH   5   7
ATOM      7  N   UNL     1      -0.037  10.221  20.498  0.00  0.00    +0.000 N 
ATOM      8  C   UNL     1       0.337  11.332  21.245  0.00  0.00    +0.000 C 
ATOM      9  O   UNL     1       1.477  11.824  21.205  0.00  0.00    +0.000 OA
ATOM     10  H   UNL     1      -1.036  10.079  20.367  0.00  0.00    +0.000 HD
BRANCH   8  11
ATOM     11  C   UNL     1      -0.693  12.019  22.144  0.00  0.00    +0.000 C 
ATOM     12  C   UNL     1      -0.516  13.354  22.294  0.00  0.00    +0.000 C 
ATOM     13  C   UNL     1      -1.283  14.104  23.299  0.00  0.00    +0.000 A 
ATOM     14  C   UNL     1      -0.874  15.378  23.717  0.00  0.00    +0.000 A 
ATOM     15  C   UNL     1      -1.563  16.035  24.734  0.00  0.00    +0.000 A 
ATOM     16  C   UNL     1      -2.681  15.440  25.317  0.00  0.00    +0.000 A 
ATOM     17  C   UNL     1      -3.109  14.179  24.884  0.00  0.00    +0.000 A 
ATOM     18  C   UNL     1      -2.405  13.493  23.884  0.00  0.00    +0.000 A 
ATOM     19  C   UNL     1      -2.838  12.143  23.357  0.00  0.00    +0.000 C 
ATOM     20  N   UNL     1      -1.683  11.337  22.872  0.00  0.00    +0.000 N 
ATOM     21  H   UNL     1      -1.228  10.918  23.688  0.00  0.00    +0.000 HD
ENDBRANCH   8  11
ENDBRANCH   5   7
BRANCH   1  23
ATOM     22  C   UNL     1       1.935   5.213  20.739  0.00  0.00    +0.000 C 
ATOM     23  C   UNL     1       2.849   5.995  19.800  0.00  0.00    +0.000 C 
BRANCH  23  24
ATOM     24  S   UNL     1       3.319   5.033  18.301  0.00  0.00    +0.000 S 
BRANCH  24  25
ATOM     25  C   UNL     1       5.054   5.040  18.301  0.00  0.00    +0.000 A 
ATOM     26  N   UNL     1       5.862   4.595  19.239  0.00  0.00    +0.000 NA
ATOM     27  N   UNL     1       7.157   4.687  18.762  0.00  0.00    +0.000 NA
ATOM     28  C   UNL     1       7.101   5.210  17.559  0.00  0.00    +0.000 A 
ATOM     29  N   UNL     1       5.804   5.494  17.245  0.00  0.00    +0.000 N 
ATOM     30  C   UNL     1       5.366   6.162  16.051  0.00  0.00    +0.000 C 
ENDBRANCH  24  25
ENDBRANCH  23  24
ENDBRANCH   1  23
TORSDOF 5
ENDMDL
MODEL 4
REMARK VINA RESULT:      -8.4      5.686      8.043
REMARK  Name = 
REMARK  7 active torsions:
REMARK  status: ('A' for Active; 'I' for Inactive)
REMARK    1  A    between atoms: C_1  and  C_2
REMARK    2  A    between atoms: C_2  and  S_3
REMARK    3  A    between atoms: C_2  and  C_10
REMARK    4  A    between atoms: S_3  and  C_4
REMARK    5  A    between atoms: N_8  and  C_9
REMARK    6  A    between atoms: C_14  and  N_15
REMARK    7  A    between atoms: C_16  and  C_18
REMARK                            x       y       z     vdW  Elec       q    Type
REMARK                         _______ _______ _______ _____ _____    ______ ____
ROOT
ATOM      1  C   UNL     1       4.449   5.499  17.213  0.00  0.00    +0.000 A 
ATOM      2  C   UNL     1       4.993   4.558  16.319  0.00  0.00    +0.000 A 
ATOM      3  C   UNL     1       6.272   4.721  15.810  0.00  0.00    +0.000 A 
ATOM      4  C   UNL     1       7.020   5.849  16.143  0.00  0.00    +0.000 A 
ATOM      5  C   UNL     1       6.507   6.868  16.956  0.00  0.00    +0.000 A 
ATOM      6  C   UNL     1       5.230   6.656  17.534  0.00  0.00    +0.000 A 
ENDROOT
BRANCH   5   7
ATOM      7  N   UNL     1       7.285   8.063  17.174  0.00  0.00    +0.000 N 
ATOM      8  C   UNL     1       8.185   8.206  18.224  0.00  0.00    +0.000 C 
ATOM      9  O   UNL     1       8.518   7.267  18.966  0.00  0.00    +0.000 OA
ATOM     10  H   UNL     1       7.305   8.786  16.459  0.00  0.00    +0.000 HD
BRANCH   8  11
ATOM     11  C   UNL     1       8.837   9.566  18.480  0.00  0.00    +0.000 C 
ATOM     12  C   UNL     1       9.028   9.869  19.787  0.00  0.00    +0.000 C 
ATOM     13  C   UNL     1       9.430  11.224  20.193  0.00  0.00    +0.000 A 
ATOM     14  C   UNL     1       9.286  11.653  21.518  0.00  0.00    +0.000 A 
ATOM     15  C   UNL     1       9.590  12.969  21.865  0.00  0.00    +0.000 A 
ATOM     16  C   UNL     1      10.069  13.851  20.898  0.00  0.00    +0.000 A 
ATOM     17  C   UNL     1      10.241  13.418  19.577  0.00  0.00    +0.000 A 
ATOM     18  C   UNL     1       9.907  12.107  19.210  0.00  0.00    +0.000 A 
ATOM     19  C   UNL     1      10.099  11.577  17.806  0.00  0.00    +0.000 C 
ATOM     20  N   UNL     1       9.116  10.508  17.474  0.00  0.00    +0.000 N 
ATOM     21  H   UNL     1       8.232  10.961  17.226  0.00  0.00    +0.000 HD
ENDBRANCH   8  11
ENDBRANCH   5   7
BRANCH   1  23
ATOM     22  C   UNL     1       2.437   3.915  17.156  0.00  0.00    +0.000 C 
ATOM     23  C   UNL     1       3.029   5.193  17.744  0.00  0.00    +0.000 C 
BRANCH  23  24
ATOM     24  S   UNL     1       3.005   5.206  19.586  0.00  0.00    +0.000 S 
BRANCH  24  25
ATOM     25  C   UNL     1       3.659   3.665  20.044  0.00  0.00    +0.000 A 
ATOM     26  N   UNL     1       4.816   3.146  19.698  0.00  0.00    +0.000 NA
ATOM     27  N   UNL     1       4.974   1.962  20.394  0.00  0.00    +0.000 NA
ATOM     28  C   UNL     1       3.897   1.781  21.123  0.00  0.00    +0.000 A 
ATOM     29  N   UNL     1       3.020   2.803  20.899  0.00  0.00    +0.000 N 
ATOM     30  C   UNL     1       1.696   2.894  21.449  0.00  0.00    +0.000 C 
ENDBRANCH  24  25
ENDBRANCH  23  24
ENDBRANCH   1  23
TORSDOF 5
ENDMDL
MODEL 5
REMARK VINA RESULT:      -8.4      2.630      4.196
REMARK  Name = 
REMARK  7 active torsions:
REMARK  status: ('A' for Active; 'I' for Inactive)
REMARK    1  A    between atoms: C_1  and  C_2
REMARK    2  A    between atoms: C_2  and  S_3
REMARK    3  A    between atoms: C_2  and  C_10
REMARK    4  A    between atoms: S_3  and  C_4
REMARK    5  A    between atoms: N_8  and  C_9
REMARK    6  A    between atoms: C_14  and  N_15
REMARK    7  A    between atoms: C_16  and  C_18
REMARK                            x       y       z     vdW  Elec       q    Type
REMARK                         _______ _______ _______ _____ _____    ______ ____
ROOT
ATOM      1  C   UNL     1       2.370   7.095  19.426  0.00  0.00    +0.000 A 
ATOM      2  C   UNL     1       2.530   7.379  18.058  0.00  0.00    +0.000 A 
ATOM      3  C   UNL     1       2.102   8.587  17.529  0.00  0.00    +0.000 A 
ATOM      4  C   UNL     1       1.461   9.519  18.342  0.00  0.00    +0.000 A 
ATOM      5  C   UNL     1       1.189   9.266  19.693  0.00  0.00    +0.000 A 
ATOM      6  C   UNL     1       1.699   8.063  20.242  0.00  0.00    +0.000 A 
ENDROOT
BRANCH   5   7
ATOM      7  N   UNL     1       0.423  10.221  20.457  0.00  0.00    +0.000 N 
ATOM      8  C   UNL     1       0.777  11.560  20.577  0.00  0.00    +0.000 C 
ATOM      9  O   UNL     1       1.687  12.085  19.911  0.00  0.00    +0.000 OA
ATOM     10  H   UNL     1      -0.497   9.963  20.805  0.00  0.00    +0.000 HD
BRANCH   8  11
ATOM     11  C   UNL     1       0.007  12.461  21.544  0.00  0.00    +0.000 C 
ATOM     12  C   UNL     1      -0.915  11.822  22.304  0.00  0.00    +0.000 C 
ATOM     13  C   UNL     1      -1.883  12.584  23.108  0.00  0.00    +0.000 A 
ATOM     14  C   UNL     1      -3.045  11.979  23.603  0.00  0.00    +0.000 A 
ATOM     15  C   UNL     1      -3.992  12.739  24.288  0.00  0.00    +0.000 A 
ATOM     16  C   UNL     1      -3.769  14.097  24.508  0.00  0.00    +0.000 A 
ATOM     17  C   UNL     1      -2.595  14.700  24.039  0.00  0.00    +0.000 A 
ATOM     18  C   UNL     1      -1.651  13.953  23.320  0.00  0.00    +0.000 A 
ATOM     19  C   UNL     1      -0.353  14.545  22.815  0.00  0.00    +0.000 C 
ATOM     20  N   UNL     1       0.129  13.861  21.583  0.00  0.00    +0.000 N 
ATOM     21  H   UNL     1      -0.398  14.235  20.790  0.00  0.00    +0.000 HD
ENDBRANCH   8  11
ENDBRANCH   5   7
BRANCH   1  23
ATOM     22  C   UNL     1       1.923   4.962  20.772  0.00  0.00    +0.000 C 
ATOM     23  C   UNL     1       2.919   5.733  19.909  0.00  0.00    +0.000 C 
BRANCH  23  24
ATOM     24  S   UNL     1       3.544   4.742  18.488  0.00  0.00    +0.000 S 
BRANCH  24  25
ATOM     25  C   UNL     1       5.268   4.929  18.546  0.00  0.00    +0.000 A 
ATOM     26  N   UNL     1       5.997   5.369  19.549  0.00  0.00    +0.000 NA
ATOM     27  N   UNL     1       7.328   5.230  19.197  0.00  0.00    +0.000 NA
ATOM     28  C   UNL     1       7.369   4.736  17.982  0.00  0.00    +0.000 A 
ATOM     29  N   UNL     1       6.098   4.574  17.512  0.00  0.00    +0.000 N 
ATOM     30  C   UNL     1       5.751   4.146  16.185  0.00  0.00    +0.000 C 
ENDBRANCH  24  25
ENDBRANCH  23  24
ENDBRANCH   1  23
TORSDOF 5
ENDMDL
MODEL 6
REMARK VINA RESULT:      -8.4      3.709      5.163
REMARK  Name = 
REMARK  7 active torsions:
REMARK  status: ('A' for Active; 'I' for Inactive)
REMARK    1  A    between atoms: C_1  and  C_2
REMARK    2  A    between atoms: C_2  and  S_3
REMARK    3  A    between atoms: C_2  and  C_10
REMARK    4  A    between atoms: S_3  and  C_4
REMARK    5  A    between atoms: N_8  and  C_9
REMARK    6  A    between atoms: C_14  and  N_15
REMARK    7  A    between atoms: C_16  and  C_18
REMARK                            x       y       z     vdW  Elec       q    Type
REMARK                         _______ _______ _______ _____ _____    ______ ____
ROOT
ATOM      1  C   UNL     1       2.175   7.395  19.729  0.00  0.00    +0.000 A 
ATOM      2  C   UNL     1       2.438   7.739  18.390  0.00  0.00    +0.000 A 
ATOM      3  C   UNL     1       1.949   8.919  17.851  0.00  0.00    +0.000 A 
ATOM      4  C   UNL     1       1.146   9.759  18.620  0.00  0.00    +0.000 A 
ATOM      5  C   UNL     1       0.771   9.436  19.931  0.00  0.00    +0.000 A 
ATOM      6  C   UNL     1       1.340   8.268  20.498  0.00  0.00    +0.000 A 
ENDROOT
BRANCH   5   7
ATOM      7  N   UNL     1      -0.152  10.289  20.639  0.00  0.00    +0.000 N 
ATOM      8  C   UNL     1       0.245  11.407  21.364  0.00  0.00    +0.000 C 
ATOM      9  O   UNL     1       1.402  11.860  21.334  0.00  0.00    +0.000 OA
ATOM     10  H   UNL     1      -1.152  10.177  20.492  0.00  0.00    +0.000 HD
BRANCH   8  11
ATOM     11  C   UNL     1      -0.778  12.153  22.222  0.00  0.00    +0.000 C 
ATOM     12  C   UNL     1      -0.529  13.475  22.385  0.00  0.00    +0.000 C 
ATOM     13  C   UNL     1      -1.290  14.268  23.362  0.00  0.00    +0.000 A 
ATOM     14  C   UNL     1      -0.824  15.514  23.800  0.00  0.00    +0.000 A 
ATOM     15  C   UNL     1      -1.514  16.210  24.791  0.00  0.00    +0.000 A 
ATOM     16  C   UNL     1      -2.688  15.680  25.326  0.00  0.00    +0.000 A 
ATOM     17  C   UNL     1      -3.172  14.447  24.871  0.00  0.00    +0.000 A 
ATOM     18  C   UNL     1      -2.469  13.723  23.898  0.00  0.00    +0.000 A 
ATOM     19  C   UNL     1      -2.960  12.401  23.349  0.00  0.00    +0.000 C 
ATOM     20  N   UNL     1      -1.836  11.530  22.908  0.00  0.00    +0.000 N 
ATOM     21  H   UNL     1      -1.439  11.083  23.739  0.00  0.00    +0.000 HD
ENDBRANCH   8  11
ENDBRANCH   5   7
BRANCH   1  23
ATOM     22  C   UNL     1       1.762   5.027  20.610  0.00  0.00    +0.000 C 
ATOM     23  C   UNL     1       2.804   6.074  20.229  0.00  0.00    +0.000 C 
BRANCH  23  24
ATOM     24  S   UNL     1       4.040   5.441  19.019  0.00  0.00    +0.000 S 
BRANCH  24  25
ATOM     25  C   UNL     1       3.342   3.975  18.406  0.00  0.00    +0.000 A 
ATOM     26  N   UNL     1       2.491   3.841  17.413  0.00  0.00    +0.000 NA
ATOM     27  N   UNL     1       2.306   2.488  17.193  0.00  0.00    +0.000 NA
ATOM     28  C   UNL     1       3.028   1.839  18.076  0.00  0.00    +0.000 A 
ATOM     29  N   UNL     1       3.660   2.731  18.892  0.00  0.00    +0.000 N 
ATOM     30  C   UNL     1       4.460   2.388  20.036  0.00  0.00    +0.000 C 
ENDBRANCH  24  25
ENDBRANCH  23  24
ENDBRANCH   1  23
TORSDOF 5
ENDMDL
MODEL 7
REMARK VINA RESULT:      -8.3      1.247      1.728
REMARK  Name = 
REMARK  7 active torsions:
REMARK  status: ('A' for Active; 'I' for Inactive)
REMARK    1  A    between atoms: C_1  and  C_2
REMARK    2  A    between atoms: C_2  and  S_3
REMARK    3  A    between atoms: C_2  and  C_10
REMARK    4  A    between atoms: S_3  and  C_4
REMARK    5  A    between atoms: N_8  and  C_9
REMARK    6  A    between atoms: C_14  and  N_15
REMARK    7  A    between atoms: C_16  and  C_18
REMARK                            x       y       z     vdW  Elec       q    Type
REMARK                         _______ _______ _______ _____ _____    ______ ____
ROOT
ATOM      1  C   UNL     1       4.538   5.319  17.927  0.00  0.00    +0.000 A 
ATOM      2  C   UNL     1       4.657   4.012  18.435  0.00  0.00    +0.000 A 
ATOM      3  C   UNL     1       3.857   3.582  19.482  0.00  0.00    +0.000 A 
ATOM      4  C   UNL     1       2.955   4.460  20.081  0.00  0.00    +0.000 A 
ATOM      5  C   UNL     1       2.848   5.801  19.685  0.00  0.00    +0.000 A 
ATOM      6  C   UNL     1       3.612   6.208  18.563  0.00  0.00    +0.000 A 
ENDROOT
BRANCH   5   7
ATOM      7  N   UNL     1       1.978   6.690  20.415  0.00  0.00    +0.000 N 
ATOM      8  C   UNL     1       1.650   7.967  19.975  0.00  0.00    +0.000 C 
ATOM      9  O   UNL     1       1.944   8.392  18.845  0.00  0.00    +0.000 OA
ATOM     10  H   UNL     1       1.451   6.336  21.210  0.00  0.00    +0.000 HD
BRANCH   8  11
ATOM     11  C   UNL     1       0.862   8.903  20.894  0.00  0.00    +0.000 C 
ATOM     12  C   UNL     1      -0.015   9.718  20.259  0.00  0.00    +0.000 C 
ATOM     13  C   UNL     1      -0.671  10.820  20.977  0.00  0.00    +0.000 A 
ATOM     14  C   UNL     1      -1.284  11.872  20.283  0.00  0.00    +0.000 A 
ATOM     15  C   UNL     1      -1.823  12.951  20.981  0.00  0.00    +0.000 A 
ATOM     16  C   UNL     1      -1.780  12.971  22.374  0.00  0.00    +0.000 A 
ATOM     17  C   UNL     1      -1.192  11.910  23.073  0.00  0.00    +0.000 A 
ATOM     18  C   UNL     1      -0.618  10.834  22.381  0.00  0.00    +0.000 A 
ATOM     19  C   UNL     1       0.004   9.648  23.084  0.00  0.00    +0.000 C 
ATOM     20  N   UNL     1       1.090   9.027  22.275  0.00  0.00    +0.000 N 
ATOM     21  H   UNL     1       1.934   9.593  22.396  0.00  0.00    +0.000 HD
ENDBRANCH   8  11
ENDBRANCH   5   7
BRANCH   1  23
ATOM     22  C   UNL     1       6.536   6.688  17.096  0.00  0.00    +0.000 C 
ATOM     23  C   UNL     1       5.455   5.673  16.734  0.00  0.00    +0.000 C 
BRANCH  23  24
ATOM     24  S   UNL     1       6.142   4.147  15.965  0.00  0.00    +0.000 S 
BRANCH  24  25
ATOM     25  C   UNL     1       6.912   4.697  14.510  0.00  0.00    +0.000 A 
ATOM     26  N   UNL     1       7.917   5.538  14.399  0.00  0.00    +0.000 NA
ATOM     27  N   UNL     1       8.283   5.587  13.066  0.00  0.00    +0.000 NA
ATOM     28  C   UNL     1       7.473   4.796  12.402  0.00  0.00    +0.000 A 
ATOM     29  N   UNL     1       6.563   4.251  13.260  0.00  0.00    +0.000 N 
ATOM     30  C   UNL     1       5.462   3.411  12.879  0.00  0.00    +0.000 C 
ENDBRANCH  24  25
ENDBRANCH  23  24
ENDBRANCH   1  23
TORSDOF 5
ENDMDL
MODEL 8
REMARK VINA RESULT:      -8.3      5.401      8.791
REMARK  Name = 
REMARK  7 active torsions:
REMARK  status: ('A' for Active; 'I' for Inactive)
REMARK    1  A    between atoms: C_1  and  C_2
REMARK    2  A    between atoms: C_2  and  S_3
REMARK    3  A    between atoms: C_2  and  C_10
REMARK    4  A    between atoms: S_3  and  C_4
REMARK    5  A    between atoms: N_8  and  C_9
REMARK    6  A    between atoms: C_14  and  N_15
REMARK    7  A    between atoms: C_16  and  C_18
REMARK                            x       y       z     vdW  Elec       q    Type
REMARK                         _______ _______ _______ _____ _____    ______ ____
ROOT
ATOM      1  C   UNL     1       4.601   5.783  17.152  0.00  0.00    +0.000 A 
ATOM      2  C   UNL     1       5.172   4.938  16.182  0.00  0.00    +0.000 A 
ATOM      3  C   UNL     1       6.462   5.154  15.724  0.00  0.00    +0.000 A 
ATOM      4  C   UNL     1       7.195   6.246  16.185  0.00  0.00    +0.000 A 
ATOM      5  C   UNL     1       6.657   7.178  17.083  0.00  0.00    +0.000 A 
ATOM      6  C   UNL     1       5.368   6.904  17.605  0.00  0.00    +0.000 A 
ENDROOT
BRANCH   5   7
ATOM      7  N   UNL     1       7.423   8.348  17.438  0.00  0.00    +0.000 N 
ATOM      8  C   UNL     1       8.329   8.375  18.492  0.00  0.00    +0.000 C 
ATOM      9  O   UNL     1       8.678   7.357  19.114  0.00  0.00    +0.000 OA
ATOM     10  H   UNL     1       7.429   9.151  16.815  0.00  0.00    +0.000 HD
BRANCH   8  11
ATOM     11  C   UNL     1       8.967   9.703  18.905  0.00  0.00    +0.000 C 
ATOM     12  C   UNL     1       9.299  10.519  17.875  0.00  0.00    +0.000 C 
ATOM     13  C   UNL     1      10.121  11.717  18.102  0.00  0.00    +0.000 A 
ATOM     14  C   UNL     1      10.767  12.362  17.039  0.00  0.00    +0.000 A 
ATOM     15  C   UNL     1      11.612  13.443  17.286  0.00  0.00    +0.000 A 
ATOM     16  C   UNL     1      11.789  13.905  18.590  0.00  0.00    +0.000 A 
ATOM     17  C   UNL     1      11.124  13.281  19.652  0.00  0.00    +0.000 A 
ATOM     18  C   UNL     1      10.298  12.172  19.420  0.00  0.00    +0.000 A 
ATOM     19  C   UNL     1       9.532  11.477  20.524  0.00  0.00    +0.000 C 
ATOM     20  N   UNL     1       9.312  10.034  20.226  0.00  0.00    +0.000 N 
ATOM     21  H   UNL     1      10.174   9.531  20.452  0.00  0.00    +0.000 HD
ENDBRANCH   8  11
ENDBRANCH   5   7
BRANCH   1  23
ATOM     22  C   UNL     1       2.895   3.921  17.575  0.00  0.00    +0.000 C 
ATOM     23  C   UNL     1       3.171   5.421  17.615  0.00  0.00    +0.000 C 
BRANCH  23  24
ATOM     24  S   UNL     1       2.810   6.167  19.260  0.00  0.00    +0.000 S 
BRANCH  24  25
ATOM     25  C   UNL     1       2.169   7.738  18.900  0.00  0.00    +0.000 A 
ATOM     26  N   UNL     1       2.169   8.362  17.742  0.00  0.00    +0.000 NA
ATOM     27  N   UNL     1       1.444   9.530  17.890  0.00  0.00    +0.000 NA
ATOM     28  C   UNL     1       1.047   9.597  19.140  0.00  0.00    +0.000 A 
ATOM     29  N   UNL     1       1.521   8.516  19.826  0.00  0.00    +0.000 N 
ATOM     30  C   UNL     1       1.370   8.298  21.238  0.00  0.00    +0.000 C 
ENDBRANCH  24  25
ENDBRANCH  23  24
ENDBRANCH   1  23
TORSDOF 5
ENDMDL
MODEL 9
REMARK VINA RESULT:      -8.3      3.656      5.097
REMARK  Name = 
REMARK  7 active torsions:
REMARK  status: ('A' for Active; 'I' for Inactive)
REMARK    1  A    between atoms: C_1  and  C_2
REMARK    2  A    between atoms: C_2  and  S_3
REMARK    3  A    between atoms: C_2  and  C_10
REMARK    4  A    between atoms: S_3  and  C_4
REMARK    5  A    between atoms: N_8  and  C_9
REMARK    6  A    between atoms: C_14  and  N_15
REMARK    7  A    between atoms: C_16  and  C_18
REMARK                            x       y       z     vdW  Elec       q    Type
REMARK                         _______ _______ _______ _____ _____    ______ ____
ROOT
ATOM      1  C   UNL     1       2.243   7.417  19.618  0.00  0.00    +0.000 A 
ATOM      2  C   UNL     1       2.518   7.808  18.295  0.00  0.00    +0.000 A 
ATOM      3  C   UNL     1       2.027   9.003  17.791  0.00  0.00    +0.000 A 
ATOM      4  C   UNL     1       1.210   9.811  18.580  0.00  0.00    +0.000 A 
ATOM      5  C   UNL     1       0.823   9.440  19.875  0.00  0.00    +0.000 A 
ATOM      6  C   UNL     1       1.394   8.258  20.408  0.00  0.00    +0.000 A 
ENDROOT
BRANCH   5   7
ATOM      7  N   UNL     1      -0.114  10.264  20.601  0.00  0.00    +0.000 N 
ATOM      8  C   UNL     1       0.263  11.385  21.330  0.00  0.00    +0.000 C 
ATOM      9  O   UNL     1       1.407  11.869  21.291  0.00  0.00    +0.000 OA
ATOM     10  H   UNL     1      -1.112  10.126  20.465  0.00  0.00    +0.000 HD
BRANCH   8  11
ATOM     11  C   UNL     1      -0.769  12.096  22.208  0.00  0.00    +0.000 C 
ATOM     12  C   UNL     1      -0.562  13.426  22.365  0.00  0.00    +0.000 C 
ATOM     13  C   UNL     1      -1.332  14.194  23.355  0.00  0.00    +0.000 A 
ATOM     14  C   UNL     1      -0.901  15.456  23.784  0.00  0.00    +0.000 A 
ATOM     15  C   UNL     1      -1.596  16.129  24.788  0.00  0.00    +0.000 A 
ATOM     16  C   UNL     1      -2.740  15.560  25.345  0.00  0.00    +0.000 A 
ATOM     17  C   UNL     1      -3.190  14.311  24.900  0.00  0.00    +0.000 A 
ATOM     18  C   UNL     1      -2.481  13.609  23.914  0.00  0.00    +0.000 A 
ATOM     19  C   UNL     1      -2.936  12.271  23.375  0.00  0.00    +0.000 C 
ATOM     20  N   UNL     1      -1.791  11.438  22.913  0.00  0.00    +0.000 N 
ATOM     21  H   UNL     1      -1.364  11.007  23.737  0.00  0.00    +0.000 HD
ENDBRANCH   8  11
ENDBRANCH   5   7
BRANCH   1  23
ATOM     22  C   UNL     1       1.838   5.012  20.397  0.00  0.00    +0.000 C 
ATOM     23  C   UNL     1       2.876   6.084  20.080  0.00  0.00    +0.000 C 
BRANCH  23  24
ATOM     24  S   UNL     1       4.144   5.511  18.873  0.00  0.00    +0.000 S 
BRANCH  24  25
ATOM     25  C   UNL     1       4.162   3.784  19.042  0.00  0.00    +0.000 A 
ATOM     26  N   UNL     1       4.854   3.066  19.899  0.00  0.00    +0.000 NA
ATOM     27  N   UNL     1       4.464   1.747  19.757  0.00  0.00    +0.000 NA
ATOM     28  C   UNL     1       3.567   1.697  18.800  0.00  0.00    +0.000 A 
ATOM     29  N   UNL     1       3.380   2.948  18.287  0.00  0.00    +0.000 N 
ATOM     30  C   UNL     1       2.544   3.266  17.162  0.00  0.00    +0.000 C 
ENDBRANCH  24  25
ENDBRANCH  23  24
ENDBRANCH   1  23
TORSDOF 5
ENDMDL
