MODEL 1
REMARK VINA RESULT:      -7.9      0.000      0.000
REMARK  Name = 
REMARK  9 active torsions:
REMARK  status: ('A' for Active; 'I' for Inactive)
REMARK    1  A    between atoms: C_1  and  C_2
REMARK    2  A    between atoms: C_4  and  C_5
REMARK    3  A    between atoms: C_7  and  N_8
REMARK    4  A    between atoms: N_14  and  C_15
REMARK    5  A    between atoms: C_15  and  C_16
REMARK    6  A    between atoms: N_20  and  C_21
REMARK    7  A    between atoms: C_21  and  C_22
REMARK    8  A    between atoms: C_21  and  C_23
REMARK    9  A    between atoms: C_21  and  C_24
REMARK                            x       y       z     vdW  Elec       q    Type
REMARK                         _______ _______ _______ _____ _____    ______ ____
ROOT
ATOM      1  N   UNL     1       6.265   4.281  13.893  0.00  0.00    +0.000 N 
ATOM      2  N   UNL     1       7.367   5.084  13.721  0.00  0.00    +0.000 NA
ATOM      3  C   UNL     1       7.617   5.594  14.926  0.00  0.00    +0.000 A 
ATOM      4  C   UNL     1       6.718   5.139  15.886  0.00  0.00    +0.000 A 
ATOM      5  C   UNL     1       6.570   5.351  17.297  0.00  0.00    +0.000 A 
ATOM      6  O   UNL     1       7.308   6.104  17.934  0.00  0.00    +0.000 OA
ATOM      7  N   UNL     1       5.510   4.641  17.855  0.00  0.00    +0.000 N 
ATOM      8  C   UNL     1       4.702   3.818  17.077  0.00  0.00    +0.000 A 
ATOM      9  N   UNL     1       4.808   3.637  15.796  0.00  0.00    +0.000 NA
ATOM     10  C   UNL     1       5.841   4.313  15.225  0.00  0.00    +0.000 A 
ENDROOT
BRANCH   1  17
ATOM     11  C   UNL     1       3.056   3.972  10.114  0.00  0.00    +0.000 C 
ATOM     12  C   UNL     1       4.155   3.363  10.934  0.00  0.00    +0.000 A 
ATOM     13  C   UNL     1       4.676   2.101  10.631  0.00  0.00    +0.000 A 
ATOM     14  C   UNL     1       5.721   1.560  11.390  0.00  0.00    +0.000 A 
ATOM     15  C   UNL     1       6.265   0.195  11.090  0.00  0.00    +0.000 C 
ATOM     16  C   UNL     1       6.255   2.304  12.454  0.00  0.00    +0.000 A 
ATOM     17  C   UNL     1       5.726   3.563  12.784  0.00  0.00    +0.000 A 
ATOM     18  C   UNL     1       4.676   4.081  12.019  0.00  0.00    +0.000 A 
ENDBRANCH   1  17
BRANCH   7  19
ATOM     19  C   UNL     1       5.289   4.739  19.293  0.00  0.00    +0.000 C 
BRANCH  19  20
ATOM     20  C   UNL     1       3.883   5.170  19.571  0.00  0.00    +0.000 A 
ATOM     21  N   UNL     1       3.451   6.413  19.437  0.00  0.00    +0.000 NA
ATOM     22  C   UNL     1       2.156   6.358  19.834  0.00  0.00    +0.000 A 
ATOM     23  N   UNL     1       1.750   5.161  20.243  0.00  0.00    +0.000 NA
ATOM     24  N   UNL     1       2.845   4.387  20.051  0.00  0.00    +0.000 N 
BRANCH  24  25
ATOM     25  C   UNL     1       2.744   2.943  20.341  0.00  0.00    +0.000 C 
ATOM     26  C   UNL     1       2.025   2.192  19.181  0.00  0.00    +0.000 C 
ATOM     27  C   UNL     1       4.140   2.311  20.483  0.00  0.00    +0.000 C 
ATOM     28  C   UNL     1       1.920   2.666  21.612  0.00  0.00    +0.000 C 
ENDBRANCH  24  25
ENDBRANCH  19  20
ENDBRANCH   7  19
TORSDOF 4
ENDMDL
MODEL 2
REMARK VINA RESULT:      -7.8      0.050      1.823
REMARK  Name = 
REMARK  9 active torsions:
REMARK  status: ('A' for Active; 'I' for Inactive)
REMARK    1  A    between atoms: C_1  and  C_2
REMARK    2  A    between atoms: C_4  and  C_5
REMARK    3  A    between atoms: C_7  and  N_8
REMARK    4  A    between atoms: N_14  and  C_15
REMARK    5  A    between atoms: C_15  and  C_16
REMARK    6  A    between atoms: N_20  and  C_21
REMARK    7  A    between atoms: C_21  and  C_22
REMARK    8  A    between atoms: C_21  and  C_23
REMARK    9  A    between atoms: C_21  and  C_24
REMARK                            x       y       z     vdW  Elec       q    Type
REMARK                         _______ _______ _______ _____ _____    ______ ____
ROOT
ATOM      1  N   UNL     1       6.247   4.282  13.930  0.00  0.00    +0.000 N 
ATOM      2  N   UNL     1       7.330   5.109  13.750  0.00  0.00    +0.000 NA
ATOM      3  C   UNL     1       7.568   5.637  14.950  0.00  0.00    +0.000 A 
ATOM      4  C   UNL     1       6.679   5.170  15.914  0.00  0.00    +0.000 A 
ATOM      5  C   UNL     1       6.525   5.394  17.323  0.00  0.00    +0.000 A 
ATOM      6  O   UNL     1       7.244   6.170  17.952  0.00  0.00    +0.000 OA
ATOM      7  N   UNL     1       5.481   4.665  17.888  0.00  0.00    +0.000 N 
ATOM      8  C   UNL     1       4.694   3.814  17.118  0.00  0.00    +0.000 A 
ATOM      9  N   UNL     1       4.805   3.623  15.838  0.00  0.00    +0.000 NA
ATOM     10  C   UNL     1       5.822   4.317  15.261  0.00  0.00    +0.000 A 
ENDROOT
BRANCH   1  17
ATOM     11  C   UNL     1       6.278   0.211  11.082  0.00  0.00    +0.000 C 
ATOM     12  C   UNL     1       5.723   1.569  11.396  0.00  0.00    +0.000 A 
ATOM     13  C   UNL     1       4.692   2.129  10.635  0.00  0.00    +0.000 A 
ATOM     14  C   UNL     1       4.166   3.385  10.959  0.00  0.00    +0.000 A 
ATOM     15  C   UNL     1       3.081   4.004  10.128  0.00  0.00    +0.000 C 
ATOM     16  C   UNL     1       4.675   4.078  12.068  0.00  0.00    +0.000 A 
ATOM     17  C   UNL     1       5.726   3.540  12.828  0.00  0.00    +0.000 A 
ATOM     18  C   UNL     1       6.243   2.287  12.482  0.00  0.00    +0.000 A 
ENDBRANCH   1  17
BRANCH   7  19
ATOM     19  C   UNL     1       5.257   4.772  19.325  0.00  0.00    +0.000 C 
BRANCH  19  20
ATOM     20  C   UNL     1       3.845   5.185  19.597  0.00  0.00    +0.000 A 
ATOM     21  N   UNL     1       3.402   6.426  19.476  0.00  0.00    +0.000 NA
ATOM     22  C   UNL     1       2.105   6.353  19.863  0.00  0.00    +0.000 A 
ATOM     23  N   UNL     1       1.707   5.147  20.252  0.00  0.00    +0.000 NA
ATOM     24  N   UNL     1       2.811   4.387  20.059  0.00  0.00    +0.000 N 
BRANCH  24  25
ATOM     25  C   UNL     1       2.722   2.938  20.328  0.00  0.00    +0.000 C 
ATOM     26  C   UNL     1       1.900   2.662  21.621  0.00  0.00    +0.000 C 
ATOM     27  C   UNL     1       2.003   2.208  19.179  0.00  0.00    +0.000 C 
ATOM     28  C   UNL     1       4.108   2.306  20.553  0.00  0.00    +0.000 C 
ENDBRANCH  24  25
ENDBRANCH  19  20
ENDBRANCH   7  19
TORSDOF 4
ENDMDL
MODEL 3
REMARK VINA RESULT:      -7.8      3.779      8.666
REMARK  Name = 
REMARK  9 active torsions:
REMARK  status: ('A' for Active; 'I' for Inactive)
REMARK    1  A    between atoms: C_1  and  C_2
REMARK    2  A    between atoms: C_4  and  C_5
REMARK    3  A    between atoms: C_7  and  N_8
REMARK    4  A    between atoms: N_14  and  C_15
REMARK    5  A    between atoms: C_15  and  C_16
REMARK    6  A    between atoms: N_20  and  C_21
REMARK    7  A    between atoms: C_21  and  C_22
REMARK    8  A    between atoms: C_21  and  C_23
REMARK    9  A    between atoms: C_21  and  C_24
REMARK                            x       y       z     vdW  Elec       q    Type
REMARK                         _______ _______ _______ _____ _____    ______ ____
ROOT
ATOM      1  N   UNL     1       1.076   8.936  19.914  0.00  0.00    +0.000 N 
ATOM      2  N   UNL     1       0.632   8.585  21.166  0.00  0.00    +0.000 NA
ATOM      3  C   UNL     1       1.137   7.372  21.387  0.00  0.00    +0.000 A 
ATOM      4  C   UNL     1       1.909   6.923  20.320  0.00  0.00    +0.000 A 
ATOM      5  C   UNL     1       2.677   5.736  20.071  0.00  0.00    +0.000 A 
ATOM      6  O   UNL     1       2.734   4.805  20.874  0.00  0.00    +0.000 OA
ATOM      7  N   UNL     1       3.324   5.744  18.838  0.00  0.00    +0.000 N 
ATOM      8  C   UNL     1       3.206   6.823  17.967  0.00  0.00    +0.000 A 
ATOM      9  N   UNL     1       2.494   7.890  18.167  0.00  0.00    +0.000 NA
ATOM     10  C   UNL     1       1.857   7.914  19.369  0.00  0.00    +0.000 A 
ENDROOT
BRANCH   1  17
ATOM     11  C   UNL     1       2.347  13.522  18.490  0.00  0.00    +0.000 C 
ATOM     12  C   UNL     1       1.298  12.465  18.669  0.00  0.00    +0.000 A 
ATOM     13  C   UNL     1      -0.031  12.687  18.296  0.00  0.00    +0.000 A 
ATOM     14  C   UNL     1      -0.992  11.680  18.444  0.00  0.00    +0.000 A 
ATOM     15  C   UNL     1      -2.426  11.921  18.074  0.00  0.00    +0.000 C 
ATOM     16  C   UNL     1      -0.606  10.433  18.960  0.00  0.00    +0.000 A 
ATOM     17  C   UNL     1       0.720  10.202  19.361  0.00  0.00    +0.000 A 
ATOM     18  C   UNL     1       1.662  11.225  19.213  0.00  0.00    +0.000 A 
ENDBRANCH   1  17
BRANCH   7  19
ATOM     19  C   UNL     1       4.175   4.612  18.492  0.00  0.00    +0.000 C 
BRANCH  19  20
ATOM     20  C   UNL     1       5.611   5.032  18.476  0.00  0.00    +0.000 A 
ATOM     21  N   UNL     1       6.300   5.348  19.561  0.00  0.00    +0.000 NA
ATOM     22  C   UNL     1       7.518   5.708  19.085  0.00  0.00    +0.000 A 
ATOM     23  N   UNL     1       7.632   5.670  17.763  0.00  0.00    +0.000 NA
ATOM     24  N   UNL     1       6.421   5.210  17.367  0.00  0.00    +0.000 N 
BRANCH  24  25
ATOM     25  C   UNL     1       6.197   4.971  15.927  0.00  0.00    +0.000 C 
ATOM     26  C   UNL     1       5.284   6.074  15.315  0.00  0.00    +0.000 C 
ATOM     27  C   UNL     1       7.525   5.010  15.149  0.00  0.00    +0.000 C 
ATOM     28  C   UNL     1       5.487   3.628  15.669  0.00  0.00    +0.000 C 
ENDBRANCH  24  25
ENDBRANCH  19  20
ENDBRANCH   7  19
TORSDOF 4
ENDMDL
MODEL 4
REMARK VINA RESULT:      -7.8      1.020      1.810
REMARK  Name = 
REMARK  9 active torsions:
REMARK  status: ('A' for Active; 'I' for Inactive)
REMARK    1  A    between atoms: C_1  and  C_2
REMARK    2  A    between atoms: C_4  and  C_5
REMARK    3  A    between atoms: C_7  and  N_8
REMARK    4  A    between atoms: N_14  and  C_15
REMARK    5  A    between atoms: C_15  and  C_16
REMARK    6  A    between atoms: N_20  and  C_21
REMARK    7  A    between atoms: C_21  and  C_22
REMARK    8  A    between atoms: C_21  and  C_23
REMARK    9  A    between atoms: C_21  and  C_24
REMARK                            x       y       z     vdW  Elec       q    Type
REMARK                         _______ _______ _______ _____ _____    ______ ____
ROOT
ATOM      1  N   UNL     1       6.297   4.315  13.737  0.00  0.00    +0.000 N 
ATOM      2  N   UNL     1       7.452   5.035  13.548  0.00  0.00    +0.000 NA
ATOM      3  C   UNL     1       7.704   5.605  14.725  0.00  0.00    +0.000 A 
ATOM      4  C   UNL     1       6.753   5.270  15.685  0.00  0.00    +0.000 A 
ATOM      5  C   UNL     1       6.582   5.583  17.075  0.00  0.00    +0.000 A 
ATOM      6  O   UNL     1       7.350   6.328  17.684  0.00  0.00    +0.000 OA
ATOM      7  N   UNL     1       5.465   4.979  17.645  0.00  0.00    +0.000 N 
ATOM      8  C   UNL     1       4.626   4.158  16.896  0.00  0.00    +0.000 A 
ATOM      9  N   UNL     1       4.753   3.889  15.633  0.00  0.00    +0.000 NA
ATOM     10  C   UNL     1       5.842   4.460  15.051  0.00  0.00    +0.000 A 
ENDROOT
BRANCH   1  17
ATOM     11  C   UNL     1       3.034   3.885  10.017  0.00  0.00    +0.000 C 
ATOM     12  C   UNL     1       4.144   3.302  10.841  0.00  0.00    +0.000 A 
ATOM     13  C   UNL     1       4.660   2.031  10.573  0.00  0.00    +0.000 A 
ATOM     14  C   UNL     1       5.715   1.514  11.333  0.00  0.00    +0.000 A 
ATOM     15  C   UNL     1       6.254   0.139  11.071  0.00  0.00    +0.000 C 
ATOM     16  C   UNL     1       6.264   2.292  12.365  0.00  0.00    +0.000 A 
ATOM     17  C   UNL     1       5.742   3.561  12.661  0.00  0.00    +0.000 A 
ATOM     18  C   UNL     1       4.681   4.055  11.894  0.00  0.00    +0.000 A 
ENDBRANCH   1  17
BRANCH   7  19
ATOM     19  C   UNL     1       5.214   5.183  19.066  0.00  0.00    +0.000 C 
BRANCH  19  20
ATOM     20  C   UNL     1       4.535   3.983  19.648  0.00  0.00    +0.000 A 
ATOM     21  N   UNL     1       5.172   2.889  20.034  0.00  0.00    +0.000 NA
ATOM     22  C   UNL     1       4.181   2.057  20.443  0.00  0.00    +0.000 A 
ATOM     23  N   UNL     1       2.954   2.546  20.309  0.00  0.00    +0.000 NA
ATOM     24  N   UNL     1       3.174   3.792  19.826  0.00  0.00    +0.000 N 
BRANCH  24  25
ATOM     25  C   UNL     1       2.013   4.678  19.611  0.00  0.00    +0.000 C 
ATOM     26  C   UNL     1       1.636   4.746  18.102  0.00  0.00    +0.000 C 
ATOM     27  C   UNL     1       0.773   4.151  20.357  0.00  0.00    +0.000 C 
ATOM     28  C   UNL     1       2.302   6.126  20.050  0.00  0.00    +0.000 C 
ENDBRANCH  24  25
ENDBRANCH  19  20
ENDBRANCH   7  19
TORSDOF 4
ENDMDL
MODEL 5
REMARK VINA RESULT:      -7.7      3.826      8.669
REMARK  Name = 
REMARK  9 active torsions:
REMARK  status: ('A' for Active; 'I' for Inactive)
REMARK    1  A    between atoms: C_1  and  C_2
REMARK    2  A    between atoms: C_4  and  C_5
REMARK    3  A    between atoms: C_7  and  N_8
REMARK    4  A    between atoms: N_14  and  C_15
REMARK    5  A    between atoms: C_15  and  C_16
REMARK    6  A    between atoms: N_20  and  C_21
REMARK    7  A    between atoms: C_21  and  C_22
REMARK    8  A    between atoms: C_21  and  C_23
REMARK    9  A    between atoms: C_21  and  C_24
REMARK                            x       y       z     vdW  Elec       q    Type
REMARK                         _______ _______ _______ _____ _____    ______ ____
ROOT
ATOM      1  N   UNL     1       0.963   8.997  19.964  0.00  0.00    +0.000 N 
ATOM      2  N   UNL     1       0.586   8.677  21.246  0.00  0.00    +0.000 NA
ATOM      3  C   UNL     1       1.113   7.475  21.474  0.00  0.00    +0.000 A 
ATOM      4  C   UNL     1       1.834   7.002  20.381  0.00  0.00    +0.000 A 
ATOM      5  C   UNL     1       2.599   5.815  20.126  0.00  0.00    +0.000 A 
ATOM      6  O   UNL     1       2.705   4.907  20.950  0.00  0.00    +0.000 OA
ATOM      7  N   UNL     1       3.182   5.794  18.862  0.00  0.00    +0.000 N 
ATOM      8  C   UNL     1       3.011   6.848  17.969  0.00  0.00    +0.000 A 
ATOM      9  N   UNL     1       2.301   7.914  18.176  0.00  0.00    +0.000 NA
ATOM     10  C   UNL     1       1.725   7.966  19.408  0.00  0.00    +0.000 A 
ENDROOT
BRANCH   1  17
ATOM     11  C   UNL     1      -2.514  11.873  17.887  0.00  0.00    +0.000 C 
ATOM     12  C   UNL     1      -1.102  11.680  18.355  0.00  0.00    +0.000 A 
ATOM     13  C   UNL     1      -0.156  12.704  18.255  0.00  0.00    +0.000 A 
ATOM     14  C   UNL     1       1.150  12.517  18.723  0.00  0.00    +0.000 A 
ATOM     15  C   UNL     1       2.179  13.601  18.593  0.00  0.00    +0.000 C 
ATOM     16  C   UNL     1       1.501  11.291  19.309  0.00  0.00    +0.000 A 
ATOM     17  C   UNL     1       0.568  10.244  19.395  0.00  0.00    +0.000 A 
ATOM     18  C   UNL     1      -0.729  10.450  18.913  0.00  0.00    +0.000 A 
ENDBRANCH   1  17
BRANCH   7  19
ATOM     19  C   UNL     1       4.025   4.659  18.505  0.00  0.00    +0.000 C 
BRANCH  19  20
ATOM     20  C   UNL     1       5.466   5.062  18.516  0.00  0.00    +0.000 A 
ATOM     21  N   UNL     1       6.157   5.303  19.619  0.00  0.00    +0.000 NA
ATOM     22  C   UNL     1       7.380   5.677  19.167  0.00  0.00    +0.000 A 
ATOM     23  N   UNL     1       7.495   5.720  17.845  0.00  0.00    +0.000 NA
ATOM     24  N   UNL     1       6.280   5.300  17.420  0.00  0.00    +0.000 N 
BRANCH  24  25
ATOM     25  C   UNL     1       6.055   5.153  15.968  0.00  0.00    +0.000 C 
ATOM     26  C   UNL     1       5.224   3.873  15.660  0.00  0.00    +0.000 C 
ATOM     27  C   UNL     1       5.259   6.347  15.410  0.00  0.00    +0.000 C 
ATOM     28  C   UNL     1       7.378   5.007  15.192  0.00  0.00    +0.000 C 
ENDBRANCH  24  25
ENDBRANCH  19  20
ENDBRANCH   7  19
TORSDOF 4
ENDMDL
MODEL 6
REMARK VINA RESULT:      -7.7      1.024      2.452
REMARK  Name = 
REMARK  9 active torsions:
REMARK  status: ('A' for Active; 'I' for Inactive)
REMARK    1  A    between atoms: C_1  and  C_2
REMARK    2  A    between atoms: C_4  and  C_5
REMARK    3  A    between atoms: C_7  and  N_8
REMARK    4  A    between atoms: N_14  and  C_15
REMARK    5  A    between atoms: C_15  and  C_16
REMARK    6  A    between atoms: N_20  and  C_21
REMARK    7  A    between atoms: C_21  and  C_22
REMARK    8  A    between atoms: C_21  and  C_23
REMARK    9  A    between atoms: C_21  and  C_24
REMARK                            x       y       z     vdW  Elec       q    Type
REMARK                         _______ _______ _______ _____ _____    ______ ____
ROOT
ATOM      1  N   UNL     1       6.250   4.302  13.777  0.00  0.00    +0.000 N 
ATOM      2  N   UNL     1       7.394   5.041  13.595  0.00  0.00    +0.000 NA
ATOM      3  C   UNL     1       7.618   5.631  14.768  0.00  0.00    +0.000 A 
ATOM      4  C   UNL     1       6.659   5.290  15.718  0.00  0.00    +0.000 A 
ATOM      5  C   UNL     1       6.463   5.617  17.101  0.00  0.00    +0.000 A 
ATOM      6  O   UNL     1       7.207   6.384  17.712  0.00  0.00    +0.000 OA
ATOM      7  N   UNL     1       5.348   4.999  17.663  0.00  0.00    +0.000 N 
ATOM      8  C   UNL     1       4.536   4.153  16.913  0.00  0.00    +0.000 A 
ATOM      9  N   UNL     1       4.687   3.870  15.655  0.00  0.00    +0.000 NA
ATOM     10  C   UNL     1       5.773   4.455  15.082  0.00  0.00    +0.000 A 
ENDROOT
BRANCH   1  17
ATOM     11  C   UNL     1       6.280   0.147  11.054  0.00  0.00    +0.000 C 
ATOM     12  C   UNL     1       5.721   1.511  11.330  0.00  0.00    +0.000 A 
ATOM     13  C   UNL     1       4.683   2.043  10.560  0.00  0.00    +0.000 A 
ATOM     14  C   UNL     1       4.153   3.306  10.849  0.00  0.00    +0.000 A 
ATOM     15  C   UNL     1       3.059   3.894  10.008  0.00  0.00    +0.000 C 
ATOM     16  C   UNL     1       4.666   4.034  11.933  0.00  0.00    +0.000 A 
ATOM     17  C   UNL     1       5.725   3.524  12.702  0.00  0.00    +0.000 A 
ATOM     18  C   UNL     1       6.246   2.264  12.390  0.00  0.00    +0.000 A 
ENDBRANCH   1  17
BRANCH   7  19
ATOM     19  C   UNL     1       5.073   5.216  19.078  0.00  0.00    +0.000 C 
BRANCH  19  20
ATOM     20  C   UNL     1       4.476   3.984  19.682  0.00  0.00    +0.000 A 
ATOM     21  N   UNL     1       5.181   2.927  20.053  0.00  0.00    +0.000 NA
ATOM     22  C   UNL     1       4.248   2.046  20.492  0.00  0.00    +0.000 A 
ATOM     23  N   UNL     1       2.994   2.468  20.393  0.00  0.00    +0.000 NA
ATOM     24  N   UNL     1       3.133   3.722  19.900  0.00  0.00    +0.000 N 
BRANCH  24  25
ATOM     25  C   UNL     1       1.920   4.544  19.717  0.00  0.00    +0.000 C 
ATOM     26  C   UNL     1       0.655   3.787  20.219  0.00  0.00    +0.000 C 
ATOM     27  C   UNL     1       2.011   5.848  20.528  0.00  0.00    +0.000 C 
ATOM     28  C   UNL     1       1.666   4.875  18.234  0.00  0.00    +0.000 C 
ENDBRANCH  24  25
ENDBRANCH  19  20
ENDBRANCH   7  19
TORSDOF 4
ENDMDL
MODEL 7
REMARK VINA RESULT:      -7.5      5.143      8.178
REMARK  Name = 
REMARK  9 active torsions:
REMARK  status: ('A' for Active; 'I' for Inactive)
REMARK    1  A    between atoms: C_1  and  C_2
REMARK    2  A    between atoms: C_4  and  C_5
REMARK    3  A    between atoms: C_7  and  N_8
REMARK    4  A    between atoms: N_14  and  C_15
REMARK    5  A    between atoms: C_15  and  C_16
REMARK    6  A    between atoms: N_20  and  C_21
REMARK    7  A    between atoms: C_21  and  C_22
REMARK    8  A    between atoms: C_21  and  C_23
REMARK    9  A    between atoms: C_21  and  C_24
REMARK                            x       y       z     vdW  Elec       q    Type
REMARK                         _______ _______ _______ _____ _____    ______ ____
ROOT
ATOM      1  N   UNL     1       2.527   6.468  19.268  0.00  0.00    +0.000 N 
ATOM      2  N   UNL     1       2.145   6.071  20.527  0.00  0.00    +0.000 NA
ATOM      3  C   UNL     1       1.518   7.124  21.049  0.00  0.00    +0.000 A 
ATOM      4  C   UNL     1       1.467   8.196  20.164  0.00  0.00    +0.000 A 
ATOM      5  C   UNL     1       0.896   9.512  20.220  0.00  0.00    +0.000 A 
ATOM      6  O   UNL     1       0.322   9.942  21.220  0.00  0.00    +0.000 OA
ATOM      7  N   UNL     1       1.076  10.243  19.049  0.00  0.00    +0.000 N 
ATOM      8  C   UNL     1       1.751   9.705  17.957  0.00  0.00    +0.000 A 
ATOM      9  N   UNL     1       2.294   8.527  17.902  0.00  0.00    +0.000 NA
ATOM     10  C   UNL     1       2.127   7.787  19.031  0.00  0.00    +0.000 A 
ENDROOT
BRANCH   1  17
ATOM     11  C   UNL     1       5.680   5.653  15.517  0.00  0.00    +0.000 C 
ATOM     12  C   UNL     1       4.752   5.121  16.569  0.00  0.00    +0.000 A 
ATOM     13  C   UNL     1       4.560   3.747  16.743  0.00  0.00    +0.000 A 
ATOM     14  C   UNL     1       3.712   3.267  17.748  0.00  0.00    +0.000 A 
ATOM     15  C   UNL     1       3.478   1.795  17.922  0.00  0.00    +0.000 C 
ATOM     16  C   UNL     1       3.062   4.180  18.593  0.00  0.00    +0.000 A 
ATOM     17  C   UNL     1       3.227   5.563  18.416  0.00  0.00    +0.000 A 
ATOM     18  C   UNL     1       4.071   6.022  17.400  0.00  0.00    +0.000 A 
ENDBRANCH   1  17
BRANCH   7  19
ATOM     19  C   UNL     1       0.497  11.579  18.968  0.00  0.00    +0.000 C 
BRANCH  19  20
ATOM     20  C   UNL     1      -0.977  11.488  18.729  0.00  0.00    +0.000 A 
ATOM     21  N   UNL     1      -1.533  10.690  17.831  0.00  0.00    +0.000 NA
ATOM     22  C   UNL     1      -2.858  10.964  17.921  0.00  0.00    +0.000 A 
ATOM     23  N   UNL     1      -3.172  11.910  18.798  0.00  0.00    +0.000 NA
ATOM     24  N   UNL     1      -1.974  12.232  19.341  0.00  0.00    +0.000 N 
BRANCH  24  25
ATOM     25  C   UNL     1      -1.940  13.228  20.430  0.00  0.00    +0.000 C 
ATOM     26  C   UNL     1      -3.366  13.782  20.721  0.00  0.00    +0.000 C 
ATOM     27  C   UNL     1      -1.431  12.597  21.739  0.00  0.00    +0.000 C 
ATOM     28  C   UNL     1      -1.068  14.446  20.071  0.00  0.00    +0.000 C 
ENDBRANCH  24  25
ENDBRANCH  19  20
ENDBRANCH   7  19
TORSDOF 4
ENDMDL
MODEL 8
REMARK VINA RESULT:      -7.4      5.147      8.266
REMARK  Name = 
REMARK  9 active torsions:
REMARK  status: ('A' for Active; 'I' for Inactive)
REMARK    1  A    between atoms: C_1  and  C_2
REMARK    2  A    between atoms: C_4  and  C_5
REMARK    3  A    between atoms: C_7  and  N_8
REMARK    4  A    between atoms: N_14  and  C_15
REMARK    5  A    between atoms: C_15  and  C_16
REMARK    6  A    between atoms: N_20  and  C_21
REMARK    7  A    between atoms: C_21  and  C_22
REMARK    8  A    between atoms: C_21  and  C_23
REMARK    9  A    between atoms: C_21  and  C_24
REMARK                            x       y       z     vdW  Elec       q    Type
REMARK                         _______ _______ _______ _____ _____    ______ ____
ROOT
ATOM      1  N   UNL     1       2.478   6.445  19.337  0.00  0.00    +0.000 N 
ATOM      2  N   UNL     1       2.125   6.058  20.608  0.00  0.00    +0.000 NA
ATOM      3  C   UNL     1       1.511   7.115  21.137  0.00  0.00    +0.000 A 
ATOM      4  C   UNL     1       1.441   8.181  20.245  0.00  0.00    +0.000 A 
ATOM      5  C   UNL     1       0.874   9.498  20.304  0.00  0.00    +0.000 A 
ATOM      6  O   UNL     1       0.323   9.936  21.314  0.00  0.00    +0.000 OA
ATOM      7  N   UNL     1       1.027  10.220  19.123  0.00  0.00    +0.000 N 
ATOM      8  C   UNL     1       1.675   9.673  18.020  0.00  0.00    +0.000 A 
ATOM      9  N   UNL     1       2.215   8.494  17.961  0.00  0.00    +0.000 NA
ATOM     10  C   UNL     1       2.074   7.762  19.099  0.00  0.00    +0.000 A 
ENDROOT
BRANCH   1  17
ATOM     11  C   UNL     1       3.487   1.787  17.937  0.00  0.00    +0.000 C 
ATOM     12  C   UNL     1       3.693   3.264  17.771  0.00  0.00    +0.000 A 
ATOM     13  C   UNL     1       4.535   3.774  16.779  0.00  0.00    +0.000 A 
ATOM     14  C   UNL     1       4.694   5.156  16.619  0.00  0.00    +0.000 A 
ATOM     15  C   UNL     1       5.618   5.711  15.576  0.00  0.00    +0.000 C 
ATOM     16  C   UNL     1       3.987   6.031  17.459  0.00  0.00    +0.000 A 
ATOM     17  C   UNL     1       3.156   5.533  18.476  0.00  0.00    +0.000 A 
ATOM     18  C   UNL     1       3.019   4.149  18.624  0.00  0.00    +0.000 A 
ENDBRANCH   1  17
BRANCH   7  19
ATOM     19  C   UNL     1       0.448  11.556  19.046  0.00  0.00    +0.000 C 
BRANCH  19  20
ATOM     20  C   UNL     1      -1.017  11.466  18.755  0.00  0.00    +0.000 A 
ATOM     21  N   UNL     1      -1.539  10.686  17.822  0.00  0.00    +0.000 NA
ATOM     22  C   UNL     1      -2.868  10.955  17.871  0.00  0.00    +0.000 A 
ATOM     23  N   UNL     1      -3.215  11.881  18.757  0.00  0.00    +0.000 NA
ATOM     24  N   UNL     1      -2.037  12.195  19.347  0.00  0.00    +0.000 N 
BRANCH  24  25
ATOM     25  C   UNL     1      -2.044  13.168  20.457  0.00  0.00    +0.000 C 
ATOM     26  C   UNL     1      -3.485  13.695  20.725  0.00  0.00    +0.000 C 
ATOM     27  C   UNL     1      -1.558  12.516  21.764  0.00  0.00    +0.000 C 
ATOM     28  C   UNL     1      -1.181  14.406  20.145  0.00  0.00    +0.000 C 
ENDBRANCH  24  25
ENDBRANCH  19  20
ENDBRANCH   7  19
TORSDOF 4
ENDMDL
MODEL 9
REMARK VINA RESULT:      -7.2      4.666      9.224
REMARK  Name = 
REMARK  9 active torsions:
REMARK  status: ('A' for Active; 'I' for Inactive)
REMARK    1  A    between atoms: C_1  and  C_2
REMARK    2  A    between atoms: C_4  and  C_5
REMARK    3  A    between atoms: C_7  and  N_8
REMARK    4  A    between atoms: N_14  and  C_15
REMARK    5  A    between atoms: C_15  and  C_16
REMARK    6  A    between atoms: N_20  and  C_21
REMARK    7  A    between atoms: C_21  and  C_22
REMARK    8  A    between atoms: C_21  and  C_23
REMARK    9  A    between atoms: C_21  and  C_24
REMARK                            x       y       z     vdW  Elec       q    Type
REMARK                         _______ _______ _______ _____ _____    ______ ____
ROOT
ATOM      1  N   UNL     1       1.124  10.491  20.424  0.00  0.00    +0.000 N 
ATOM      2  N   UNL     1       0.946  10.159  21.745  0.00  0.00    +0.000 NA
ATOM      3  C   UNL     1       1.154   8.844  21.804  0.00  0.00    +0.000 A 
ATOM      4  C   UNL     1       1.475   8.307  20.561  0.00  0.00    +0.000 A 
ATOM      5  C   UNL     1       1.811   6.992  20.096  0.00  0.00    +0.000 A 
ATOM      6  O   UNL     1       1.828   6.012  20.841  0.00  0.00    +0.000 OA
ATOM      7  N   UNL     1       2.091   6.941  18.733  0.00  0.00    +0.000 N 
ATOM      8  C   UNL     1       2.038   8.084  17.941  0.00  0.00    +0.000 A 
ATOM      9  N   UNL     1       1.710   9.274  18.342  0.00  0.00    +0.000 NA
ATOM     10  C   UNL     1       1.438   9.355  19.673  0.00  0.00    +0.000 A 
ENDROOT
BRANCH   1  17
ATOM     11  C   UNL     1       2.910  14.474  18.053  0.00  0.00    +0.000 C 
ATOM     12  C   UNL     1       1.831  13.829  18.870  0.00  0.00    +0.000 A 
ATOM     13  C   UNL     1       0.673  14.527  19.229  0.00  0.00    +0.000 A 
ATOM     14  C   UNL     1      -0.337  13.900  19.968  0.00  0.00    +0.000 A 
ATOM     15  C   UNL     1      -1.569  14.651  20.381  0.00  0.00    +0.000 C 
ATOM     16  C   UNL     1      -0.186  12.555  20.337  0.00  0.00    +0.000 A 
ATOM     17  C   UNL     1       0.982  11.848  20.005  0.00  0.00    +0.000 A 
ATOM     18  C   UNL     1       1.983  12.495  19.274  0.00  0.00    +0.000 A 
ENDBRANCH   1  17
BRANCH   7  19
ATOM     19  C   UNL     1       2.493   5.665  18.154  0.00  0.00    +0.000 C 
BRANCH  19  20
ATOM     20  C   UNL     1       3.884   5.319  18.583  0.00  0.00    +0.000 A 
ATOM     21  N   UNL     1       4.904   6.162  18.535  0.00  0.00    +0.000 NA
ATOM     22  C   UNL     1       5.960   5.428  18.964  0.00  0.00    +0.000 A 
ATOM     23  N   UNL     1       5.678   4.163  19.251  0.00  0.00    +0.000 NA
ATOM     24  N   UNL     1       4.343   4.092  19.035  0.00  0.00    +0.000 N 
BRANCH  24  25
ATOM     25  C   UNL     1       3.651   2.820  19.324  0.00  0.00    +0.000 C 
ATOM     26  C   UNL     1       3.285   2.075  18.006  0.00  0.00    +0.000 C 
ATOM     27  C   UNL     1       4.554   1.874  20.135  0.00  0.00    +0.000 C 
ATOM     28  C   UNL     1       2.326   3.042  20.078  0.00  0.00    +0.000 C 
ENDBRANCH  24  25
ENDBRANCH  19  20
ENDBRANCH   7  19
TORSDOF 4
ENDMDL
