MODEL 1
REMARK VINA RESULT:      -8.6      0.000      0.000
REMARK  Name = 
REMARK  5 active torsions:
REMARK  status: ('A' for Active; 'I' for Inactive)
REMARK    1  A    between atoms: C_1  and  C_2
REMARK    2  A    between atoms: C_2  and  N_3
REMARK    3  A    between atoms: C_2  and  C_15
REMARK    4  A    between atoms: N_8  and  C_9
REMARK    5  A    between atoms: C_18  and  N_19
REMARK                            x       y       z     vdW  Elec       q    Type
REMARK                         _______ _______ _______ _____ _____    ______ ____
ROOT
ATOM      1  C   UNL     1       2.410   2.702  17.772  0.00  0.00    +0.000 C 
ATOM      2  C   UNL     1       3.610   3.556  18.197  0.00  0.00    +0.000 C 
ENDROOT
BRANCH   2   3
ATOM      3  N   UNL     1       4.585   3.736  17.125  0.00  0.00    +0.000 N 
ATOM      4  C   UNL     1       5.843   4.178  17.417  0.00  0.00    +0.000 A 
ATOM      5  N   UNL     1       6.354   4.488  18.593  0.00  0.00    +0.000 NA
ATOM      6  N   UNL     1       7.707   4.600  18.417  0.00  0.00    +0.000 NA
ATOM      7  N   UNL     1       8.043   4.407  17.151  0.00  0.00    +0.000 NA
ATOM      8  N   UNL     1       6.874   4.290  16.476  0.00  0.00    +0.000 N 
ATOM      9  H   UNL     1       4.460   3.115  16.328  0.00  0.00    +0.000 HD
BRANCH   8  10
ATOM     10  C   UNL     1       6.823   4.346  15.064  0.00  0.00    +0.000 A 
ATOM     11  C   UNL     1       5.921   3.529  14.367  0.00  0.00    +0.000 A 
ATOM     12  C   UNL     1       5.875   3.579  12.972  0.00  0.00    +0.000 A 
ATOM     13  C   UNL     1       6.750   4.409  12.270  0.00  0.00    +0.000 A 
ATOM     14  C   UNL     1       7.674   5.192  12.959  0.00  0.00    +0.000 A 
ATOM     15  C   UNL     1       7.707   5.171  14.355  0.00  0.00    +0.000 A 
ENDBRANCH   8  10
ENDBRANCH   2   3
BRANCH   2  16
ATOM     16  C   UNL     1       3.142   4.921  18.699  0.00  0.00    +0.000 A 
ATOM     17  C   UNL     1       2.605   5.034  19.990  0.00  0.00    +0.000 A 
ATOM     18  C   UNL     1       2.074   6.244  20.452  0.00  0.00    +0.000 A 
ATOM     19  C   UNL     1       2.068   7.373  19.626  0.00  0.00    +0.000 A 
ATOM     20  C   UNL     1       2.638   7.288  18.350  0.00  0.00    +0.000 A 
ATOM     21  C   UNL     1       3.175   6.074  17.894  0.00  0.00    +0.000 A 
BRANCH  19  22
ATOM     22  N   UNL     1       1.461   8.584  20.055  0.00  0.00    +0.000 N 
ATOM     23  C   UNL     1       1.076   8.953  21.323  0.00  0.00    +0.000 A 
ATOM     24  N   UNL     1       0.472  10.119  21.303  0.00  0.00    +0.000 NA
ATOM     25  C   UNL     1       0.520  10.456  19.985  0.00  0.00    +0.000 A 
ATOM     26  N   UNL     1       1.132   9.577  19.190  0.00  0.00    +0.000 NA
ENDBRANCH  19  22
ENDBRANCH   2  16
TORSDOF 4
ENDMDL
MODEL 2
REMARK VINA RESULT:      -8.6      1.343      2.028
REMARK  Name = 
REMARK  5 active torsions:
REMARK  status: ('A' for Active; 'I' for Inactive)
REMARK    1  A    between atoms: C_1  and  C_2
REMARK    2  A    between atoms: C_2  and  N_3
REMARK    3  A    between atoms: C_2  and  C_15
REMARK    4  A    between atoms: N_8  and  C_9
REMARK    5  A    between atoms: C_18  and  N_19
REMARK                            x       y       z     vdW  Elec       q    Type
REMARK                         _______ _______ _______ _____ _____    ______ ____
ROOT
ATOM      1  C   UNL     1       2.171   3.985  19.369  0.00  0.00    +0.000 C 
ATOM      2  C   UNL     1       3.311   5.009  19.372  0.00  0.00    +0.000 C 
ENDROOT
BRANCH   2   3
ATOM      3  N   UNL     1       4.279   4.782  18.303  0.00  0.00    +0.000 N 
ATOM      4  C   UNL     1       5.611   4.960  18.542  0.00  0.00    +0.000 A 
ATOM      5  N   UNL     1       6.204   5.327  19.662  0.00  0.00    +0.000 NA
ATOM      6  N   UNL     1       7.542   5.091  19.494  0.00  0.00    +0.000 NA
ATOM      7  N   UNL     1       7.798   4.624  18.283  0.00  0.00    +0.000 NA
ATOM      8  N   UNL     1       6.620   4.675  17.615  0.00  0.00    +0.000 N 
ATOM      9  H   UNL     1       3.997   4.087  17.615  0.00  0.00    +0.000 HD
BRANCH   8  10
ATOM     10  C   UNL     1       6.555   4.513  16.211  0.00  0.00    +0.000 A 
ATOM     11  C   UNL     1       7.442   5.221  15.387  0.00  0.00    +0.000 A 
ATOM     12  C   UNL     1       7.374   5.067  14.001  0.00  0.00    +0.000 A 
ATOM     13  C   UNL     1       6.401   4.244  13.433  0.00  0.00    +0.000 A 
ATOM     14  C   UNL     1       5.493   3.571  14.248  0.00  0.00    +0.000 A 
ATOM     15  C   UNL     1       5.572   3.695  15.637  0.00  0.00    +0.000 A 
ENDBRANCH   8  10
ENDBRANCH   2   3
BRANCH   2  16
ATOM     16  C   UNL     1       2.754   6.428  19.267  0.00  0.00    +0.000 A 
ATOM     17  C   UNL     1       2.076   6.986  20.360  0.00  0.00    +0.000 A 
ATOM     18  C   UNL     1       1.464   8.242  20.271  0.00  0.00    +0.000 A 
ATOM     19  C   UNL     1       1.518   8.970  19.078  0.00  0.00    +0.000 A 
ATOM     20  C   UNL     1       2.228   8.445  17.990  0.00  0.00    +0.000 A 
ATOM     21  C   UNL     1       2.844   7.189  18.086  0.00  0.00    +0.000 A 
BRANCH  19  22
ATOM     22  N   UNL     1       0.836  10.210  18.951  0.00  0.00    +0.000 N 
ATOM     23  C   UNL     1      -0.517  10.443  18.862  0.00  0.00    +0.000 A 
ATOM     24  N   UNL     1      -0.755  11.720  18.668  0.00  0.00    +0.000 NA
ATOM     25  C   UNL     1       0.495  12.258  18.663  0.00  0.00    +0.000 A 
ATOM     26  N   UNL     1       1.492  11.394  18.858  0.00  0.00    +0.000 NA
ENDBRANCH  19  22
ENDBRANCH   2  16
TORSDOF 4
ENDMDL
MODEL 3
REMARK VINA RESULT:      -8.6      1.384      1.868
REMARK  Name = 
REMARK  5 active torsions:
REMARK  status: ('A' for Active; 'I' for Inactive)
REMARK    1  A    between atoms: C_1  and  C_2
REMARK    2  A    between atoms: C_2  and  N_3
REMARK    3  A    between atoms: C_2  and  C_15
REMARK    4  A    between atoms: N_8  and  C_9
REMARK    5  A    between atoms: C_18  and  N_19
REMARK                            x       y       z     vdW  Elec       q    Type
REMARK                         _______ _______ _______ _____ _____    ______ ____
ROOT
ATOM      1  C   UNL     1       2.110   4.064  19.403  0.00  0.00    +0.000 C 
ATOM      2  C   UNL     1       3.241   5.098  19.394  0.00  0.00    +0.000 C 
ENDROOT
BRANCH   2   3
ATOM      3  N   UNL     1       4.208   4.869  18.324  0.00  0.00    +0.000 N 
ATOM      4  C   UNL     1       5.542   5.017  18.570  0.00  0.00    +0.000 A 
ATOM      5  N   UNL     1       6.139   5.354  19.697  0.00  0.00    +0.000 NA
ATOM      6  N   UNL     1       7.473   5.094  19.530  0.00  0.00    +0.000 NA
ATOM      7  N   UNL     1       7.723   4.642  18.311  0.00  0.00    +0.000 NA
ATOM      8  N   UNL     1       6.549   4.727  17.641  0.00  0.00    +0.000 N 
ATOM      9  H   UNL     1       3.915   4.191  17.624  0.00  0.00    +0.000 HD
BRANCH   8  10
ATOM     10  C   UNL     1       6.485   4.590  16.235  0.00  0.00    +0.000 A 
ATOM     11  C   UNL     1       5.478   3.803  15.657  0.00  0.00    +0.000 A 
ATOM     12  C   UNL     1       5.419   3.661  14.269  0.00  0.00    +0.000 A 
ATOM     13  C   UNL     1       6.381   4.266  13.460  0.00  0.00    +0.000 A 
ATOM     14  C   UNL     1       7.405   5.016  14.035  0.00  0.00    +0.000 A 
ATOM     15  C   UNL     1       7.456   5.188  15.419  0.00  0.00    +0.000 A 
ENDBRANCH   8  10
ENDBRANCH   2   3
BRANCH   2  16
ATOM     16  C   UNL     1       2.671   6.511  19.277  0.00  0.00    +0.000 A 
ATOM     17  C   UNL     1       1.994   7.074  20.368  0.00  0.00    +0.000 A 
ATOM     18  C   UNL     1       1.372   8.324  20.270  0.00  0.00    +0.000 A 
ATOM     19  C   UNL     1       1.413   9.040  19.069  0.00  0.00    +0.000 A 
ATOM     20  C   UNL     1       2.121   8.511  17.982  0.00  0.00    +0.000 A 
ATOM     21  C   UNL     1       2.748   7.260  18.088  0.00  0.00    +0.000 A 
BRANCH  19  22
ATOM     22  N   UNL     1       0.719  10.273  18.932  0.00  0.00    +0.000 N 
ATOM     23  C   UNL     1       1.235  11.538  18.772  0.00  0.00    +0.000 A 
ATOM     24  N   UNL     1       0.273  12.433  18.768  0.00  0.00    +0.000 NA
ATOM     25  C   UNL     1      -0.844  11.669  18.911  0.00  0.00    +0.000 A 
ATOM     26  N   UNL     1      -0.635  10.354  18.986  0.00  0.00    +0.000 NA
ENDBRANCH  19  22
ENDBRANCH   2  16
TORSDOF 4
ENDMDL
MODEL 4
REMARK VINA RESULT:      -8.6      1.432      2.373
REMARK  Name = 
REMARK  5 active torsions:
REMARK  status: ('A' for Active; 'I' for Inactive)
REMARK    1  A    between atoms: C_1  and  C_2
REMARK    2  A    between atoms: C_2  and  N_3
REMARK    3  A    between atoms: C_2  and  C_15
REMARK    4  A    between atoms: N_8  and  C_9
REMARK    5  A    between atoms: C_18  and  N_19
REMARK                            x       y       z     vdW  Elec       q    Type
REMARK                         _______ _______ _______ _____ _____    ______ ____
ROOT
ATOM      1  C   UNL     1       2.603   4.100  20.088  0.00  0.00    +0.000 C 
ATOM      2  C   UNL     1       3.549   5.255  19.741  0.00  0.00    +0.000 C 
ENDROOT
BRANCH   2   3
ATOM      3  N   UNL     1       4.401   4.963  18.592  0.00  0.00    +0.000 N 
ATOM      4  C   UNL     1       5.757   5.069  18.706  0.00  0.00    +0.000 A 
ATOM      5  N   UNL     1       6.469   5.413  19.762  0.00  0.00    +0.000 NA
ATOM      6  N   UNL     1       7.772   5.101  19.477  0.00  0.00    +0.000 NA
ATOM      7  N   UNL     1       7.889   4.608  18.254  0.00  0.00    +0.000 NA
ATOM      8  N   UNL     1       6.660   4.718  17.696  0.00  0.00    +0.000 N 
ATOM      9  H   UNL     1       4.020   4.278  17.943  0.00  0.00    +0.000 HD
BRANCH   8  10
ATOM     10  C   UNL     1       6.458   4.547  16.306  0.00  0.00    +0.000 A 
ATOM     11  C   UNL     1       7.402   5.047  15.398  0.00  0.00    +0.000 A 
ATOM     12  C   UNL     1       7.200   4.884  14.026  0.00  0.00    +0.000 A 
ATOM     13  C   UNL     1       6.043   4.262  13.557  0.00  0.00    +0.000 A 
ATOM     14  C   UNL     1       5.084   3.799  14.456  0.00  0.00    +0.000 A 
ATOM     15  C   UNL     1       5.291   3.931  15.830  0.00  0.00    +0.000 A 
ENDBRANCH   8  10
ENDBRANCH   2   3
BRANCH   2  16
ATOM     16  C   UNL     1       2.755   6.534  19.479  0.00  0.00    +0.000 A 
ATOM     17  C   UNL     1       2.812   7.134  18.212  0.00  0.00    +0.000 A 
ATOM     18  C   UNL     1       2.182   8.359  17.960  0.00  0.00    +0.000 A 
ATOM     19  C   UNL     1       1.478   9.013  18.976  0.00  0.00    +0.000 A 
ATOM     20  C   UNL     1       1.376   8.406  20.235  0.00  0.00    +0.000 A 
ATOM     21  C   UNL     1       2.005   7.176  20.481  0.00  0.00    +0.000 A 
BRANCH  19  22
ATOM     22  N   UNL     1       0.901  10.292  18.755  0.00  0.00    +0.000 N 
ATOM     23  C   UNL     1       1.513  11.524  18.749  0.00  0.00    +0.000 A 
ATOM     24  N   UNL     1       0.627  12.481  18.591  0.00  0.00    +0.000 NA
ATOM     25  C   UNL     1      -0.540  11.789  18.481  0.00  0.00    +0.000 A 
ATOM     26  N   UNL     1      -0.429  10.462  18.544  0.00  0.00    +0.000 NA
ENDBRANCH  19  22
ENDBRANCH   2  16
TORSDOF 4
ENDMDL
MODEL 5
REMARK VINA RESULT:      -8.5      0.529      1.219
REMARK  Name = 
REMARK  5 active torsions:
REMARK  status: ('A' for Active; 'I' for Inactive)
REMARK    1  A    between atoms: C_1  and  C_2
REMARK    2  A    between atoms: C_2  and  N_3
REMARK    3  A    between atoms: C_2  and  C_15
REMARK    4  A    between atoms: N_8  and  C_9
REMARK    5  A    between atoms: C_18  and  N_19
REMARK                            x       y       z     vdW  Elec       q    Type
REMARK                         _______ _______ _______ _____ _____    ______ ____
ROOT
ATOM      1  C   UNL     1       2.517   2.638  17.820  0.00  0.00    +0.000 C 
ATOM      2  C   UNL     1       3.703   3.521  18.224  0.00  0.00    +0.000 C 
ENDROOT
BRANCH   2   3
ATOM      3  N   UNL     1       4.669   3.699  17.145  0.00  0.00    +0.000 N 
ATOM      4  C   UNL     1       5.923   4.160  17.423  0.00  0.00    +0.000 A 
ATOM      5  N   UNL     1       6.438   4.490  18.592  0.00  0.00    +0.000 NA
ATOM      6  N   UNL     1       7.788   4.616  18.407  0.00  0.00    +0.000 NA
ATOM      7  N   UNL     1       8.119   4.411  17.142  0.00  0.00    +0.000 NA
ATOM      8  N   UNL     1       6.947   4.272  16.476  0.00  0.00    +0.000 N 
ATOM      9  H   UNL     1       4.547   3.067  16.356  0.00  0.00    +0.000 HD
BRANCH   8  10
ATOM     10  C   UNL     1       6.888   4.310  15.063  0.00  0.00    +0.000 A 
ATOM     11  C   UNL     1       7.793   5.108  14.349  0.00  0.00    +0.000 A 
ATOM     12  C   UNL     1       7.730   5.152  12.955  0.00  0.00    +0.000 A 
ATOM     13  C   UNL     1       6.745   4.436  12.274  0.00  0.00    +0.000 A 
ATOM     14  C   UNL     1       5.820   3.673  12.984  0.00  0.00    +0.000 A 
ATOM     15  C   UNL     1       5.893   3.599  14.376  0.00  0.00    +0.000 A 
ENDBRANCH   8  10
ENDBRANCH   2   3
BRANCH   2  16
ATOM     16  C   UNL     1       3.212   4.886  18.704  0.00  0.00    +0.000 A 
ATOM     17  C   UNL     1       2.641   5.004  19.980  0.00  0.00    +0.000 A 
ATOM     18  C   UNL     1       2.089   6.214  20.419  0.00  0.00    +0.000 A 
ATOM     19  C   UNL     1       2.096   7.337  19.584  0.00  0.00    +0.000 A 
ATOM     20  C   UNL     1       2.701   7.247  18.323  0.00  0.00    +0.000 A 
ATOM     21  C   UNL     1       3.258   6.033  17.891  0.00  0.00    +0.000 A 
BRANCH  19  22
ATOM     22  N   UNL     1       1.470   8.547  19.988  0.00  0.00    +0.000 N 
ATOM     23  C   UNL     1       1.043   9.597  19.208  0.00  0.00    +0.000 A 
ATOM     24  N   UNL     1       0.590  10.575  19.958  0.00  0.00    +0.000 NA
ATOM     25  C   UNL     1       0.736  10.078  21.216  0.00  0.00    +0.000 A 
ATOM     26  N   UNL     1       1.237   8.845  21.291  0.00  0.00    +0.000 NA
ENDBRANCH  19  22
ENDBRANCH   2  16
TORSDOF 4
ENDMDL
MODEL 6
REMARK VINA RESULT:      -8.5      1.441      2.169
REMARK  Name = 
REMARK  5 active torsions:
REMARK  status: ('A' for Active; 'I' for Inactive)
REMARK    1  A    between atoms: C_1  and  C_2
REMARK    2  A    between atoms: C_2  and  N_3
REMARK    3  A    between atoms: C_2  and  C_15
REMARK    4  A    between atoms: N_8  and  C_9
REMARK    5  A    between atoms: C_18  and  N_19
REMARK                            x       y       z     vdW  Elec       q    Type
REMARK                         _______ _______ _______ _____ _____    ______ ____
ROOT
ATOM      1  C   UNL     1       2.226   4.064  19.617  0.00  0.00    +0.000 C 
ATOM      2  C   UNL     1       3.290   5.158  19.482  0.00  0.00    +0.000 C 
ENDROOT
BRANCH   2   3
ATOM      3  N   UNL     1       4.225   4.908  18.389  0.00  0.00    +0.000 N 
ATOM      4  C   UNL     1       5.567   5.037  18.599  0.00  0.00    +0.000 A 
ATOM      5  N   UNL     1       6.198   5.372  19.708  0.00  0.00    +0.000 NA
ATOM      6  N   UNL     1       7.523   5.091  19.508  0.00  0.00    +0.000 NA
ATOM      7  N   UNL     1       7.735   4.626  18.286  0.00  0.00    +0.000 NA
ATOM      8  N   UNL     1       6.545   4.725  17.646  0.00  0.00    +0.000 N 
ATOM      9  H   UNL     1       3.903   4.230  17.702  0.00  0.00    +0.000 HD
BRANCH   8  10
ATOM     10  C   UNL     1       6.442   4.580  16.243  0.00  0.00    +0.000 A 
ATOM     11  C   UNL     1       5.396   3.822  15.697  0.00  0.00    +0.000 A 
ATOM     12  C   UNL     1       5.298   3.672  14.312  0.00  0.00    +0.000 A 
ATOM     13  C   UNL     1       6.259   4.238  13.475  0.00  0.00    +0.000 A 
ATOM     14  C   UNL     1       7.322   4.958  14.018  0.00  0.00    +0.000 A 
ATOM     15  C   UNL     1       7.412   5.139  15.400  0.00  0.00    +0.000 A 
ENDBRANCH   8  10
ENDBRANCH   2   3
BRANCH   2  16
ATOM     16  C   UNL     1       2.630   6.523  19.290  0.00  0.00    +0.000 A 
ATOM     17  C   UNL     1       2.724   7.166  18.046  0.00  0.00    +0.000 A 
ATOM     18  C   UNL     1       2.221   8.459  17.857  0.00  0.00    +0.000 A 
ATOM     19  C   UNL     1       1.611   9.140  18.916  0.00  0.00    +0.000 A 
ATOM     20  C   UNL     1       1.472   8.496  20.152  0.00  0.00    +0.000 A 
ATOM     21  C   UNL     1       1.972   7.198  20.334  0.00  0.00    +0.000 A 
BRANCH  19  22
ATOM     22  N   UNL     1       1.168  10.481  18.758  0.00  0.00    +0.000 N 
ATOM     23  C   UNL     1       1.905  11.601  18.455  0.00  0.00    +0.000 A 
ATOM     24  N   UNL     1       1.148  12.675  18.480  0.00  0.00    +0.000 NA
ATOM     25  C   UNL     1      -0.077  12.167  18.789  0.00  0.00    +0.000 A 
ATOM     26  N   UNL     1      -0.128  10.844  18.939  0.00  0.00    +0.000 NA
ENDBRANCH  19  22
ENDBRANCH   2  16
TORSDOF 4
ENDMDL
MODEL 7
REMARK VINA RESULT:      -8.5      0.582      1.260
REMARK  Name = 
REMARK  5 active torsions:
REMARK  status: ('A' for Active; 'I' for Inactive)
REMARK    1  A    between atoms: C_1  and  C_2
REMARK    2  A    between atoms: C_2  and  N_3
REMARK    3  A    between atoms: C_2  and  C_15
REMARK    4  A    between atoms: N_8  and  C_9
REMARK    5  A    between atoms: C_18  and  N_19
REMARK                            x       y       z     vdW  Elec       q    Type
REMARK                         _______ _______ _______ _____ _____    ______ ____
ROOT
ATOM      1  C   UNL     1       2.625   2.154  17.854  0.00  0.00    +0.000 C 
ATOM      2  C   UNL     1       3.680   3.182  18.276  0.00  0.00    +0.000 C 
ENDROOT
BRANCH   2   3
ATOM      3  N   UNL     1       4.636   3.481  17.214  0.00  0.00    +0.000 N 
ATOM      4  C   UNL     1       5.833   4.061  17.520  0.00  0.00    +0.000 A 
ATOM      5  N   UNL     1       6.297   4.416  18.703  0.00  0.00    +0.000 NA
ATOM      6  N   UNL     1       7.630   4.683  18.539  0.00  0.00    +0.000 NA
ATOM      7  N   UNL     1       7.995   4.541  17.274  0.00  0.00    +0.000 NA
ATOM      8  N   UNL     1       6.852   4.297  16.589  0.00  0.00    +0.000 N 
ATOM      9  H   UNL     1       4.589   2.857  16.412  0.00  0.00    +0.000 HD
BRANCH   8  10
ATOM     10  C   UNL     1       6.805   4.359  15.177  0.00  0.00    +0.000 A 
ATOM     11  C   UNL     1       5.869   3.585  14.476  0.00  0.00    +0.000 A 
ATOM     12  C   UNL     1       5.827   3.641  13.082  0.00  0.00    +0.000 A 
ATOM     13  C   UNL     1       6.739   4.432  12.384  0.00  0.00    +0.000 A 
ATOM     14  C   UNL     1       7.696   5.172  13.076  0.00  0.00    +0.000 A 
ATOM     15  C   UNL     1       7.727   5.146  14.471  0.00  0.00    +0.000 A 
ENDBRANCH   8  10
ENDBRANCH   2   3
BRANCH   2  16
ATOM     16  C   UNL     1       3.010   4.473  18.742  0.00  0.00    +0.000 A 
ATOM     17  C   UNL     1       2.893   5.550  17.851  0.00  0.00    +0.000 A 
ATOM     18  C   UNL     1       2.377   6.784  18.266  0.00  0.00    +0.000 A 
ATOM     19  C   UNL     1       1.965   6.967  19.590  0.00  0.00    +0.000 A 
ATOM     20  C   UNL     1       2.036   5.889  20.482  0.00  0.00    +0.000 A 
ATOM     21  C   UNL     1       2.548   4.653  20.059  0.00  0.00    +0.000 A 
BRANCH  19  22
ATOM     22  N   UNL     1       1.514   8.236  20.043  0.00  0.00    +0.000 N 
ATOM     23  C   UNL     1       1.325   9.390  19.320  0.00  0.00    +0.000 A 
ATOM     24  N   UNL     1       0.979  10.380  20.111  0.00  0.00    +0.000 NA
ATOM     25  C   UNL     1       0.944   9.785  21.334  0.00  0.00    +0.000 A 
ATOM     26  N   UNL     1       1.231   8.483  21.347  0.00  0.00    +0.000 NA
ENDBRANCH  19  22
ENDBRANCH   2  16
TORSDOF 4
ENDMDL
MODEL 8
REMARK VINA RESULT:      -8.0      2.009      3.316
REMARK  Name = 
REMARK  5 active torsions:
REMARK  status: ('A' for Active; 'I' for Inactive)
REMARK    1  A    between atoms: C_1  and  C_2
REMARK    2  A    between atoms: C_2  and  N_3
REMARK    3  A    between atoms: C_2  and  C_15
REMARK    4  A    between atoms: N_8  and  C_9
REMARK    5  A    between atoms: C_18  and  N_19
REMARK                            x       y       z     vdW  Elec       q    Type
REMARK                         _______ _______ _______ _____ _____    ______ ____
ROOT
ATOM      1  C   UNL     1       1.259   5.013  20.441  0.00  0.00    +0.000 C 
ATOM      2  C   UNL     1       2.482   5.894  20.165  0.00  0.00    +0.000 C 
ENDROOT
BRANCH   2   3
ATOM      3  N   UNL     1       3.320   5.377  19.087  0.00  0.00    +0.000 N 
ATOM      4  C   UNL     1       3.479   4.030  18.935  0.00  0.00    +0.000 A 
ATOM      5  N   UNL     1       2.958   3.054  19.653  0.00  0.00    +0.000 NA
ATOM      6  N   UNL     1       3.168   1.896  18.954  0.00  0.00    +0.000 NA
ATOM      7  N   UNL     1       3.843   2.125  17.838  0.00  0.00    +0.000 NA
ATOM      8  N   UNL     1       4.180   3.437  17.878  0.00  0.00    +0.000 N 
ATOM      9  H   UNL     1       3.361   5.969  18.259  0.00  0.00    +0.000 HD
BRANCH   8  10
ATOM     10  C   UNL     1       5.136   3.985  16.992  0.00  0.00    +0.000 A 
ATOM     11  C   UNL     1       4.851   4.062  15.621  0.00  0.00    +0.000 A 
ATOM     12  C   UNL     1       5.797   4.596  14.744  0.00  0.00    +0.000 A 
ATOM     13  C   UNL     1       7.038   5.015  15.222  0.00  0.00    +0.000 A 
ATOM     14  C   UNL     1       7.339   4.903  16.578  0.00  0.00    +0.000 A 
ATOM     15  C   UNL     1       6.389   4.398  17.467  0.00  0.00    +0.000 A 
ENDBRANCH   8  10
ENDBRANCH   2   3
BRANCH   2  16
ATOM     16  C   UNL     1       2.048   7.322  19.837  0.00  0.00    +0.000 A 
ATOM     17  C   UNL     1       1.405   8.090  20.818  0.00  0.00    +0.000 A 
ATOM     18  C   UNL     1       0.902   9.365  20.530  0.00  0.00    +0.000 A 
ATOM     19  C   UNL     1       1.033   9.900  19.244  0.00  0.00    +0.000 A 
ATOM     20  C   UNL     1       1.710   9.163  18.263  0.00  0.00    +0.000 A 
ATOM     21  C   UNL     1       2.217   7.889  18.560  0.00  0.00    +0.000 A 
BRANCH  19  22
ATOM     22  N   UNL     1       0.459  11.158  18.918  0.00  0.00    +0.000 N 
ATOM     23  C   UNL     1      -0.812  11.435  18.472  0.00  0.00    +0.000 A 
ATOM     24  N   UNL     1      -0.939  12.713  18.198  0.00  0.00    +0.000 NA
ATOM     25  C   UNL     1       0.290  13.208  18.511  0.00  0.00    +0.000 A 
ATOM     26  N   UNL     1       1.165  12.316  18.978  0.00  0.00    +0.000 NA
ENDBRANCH  19  22
ENDBRANCH   2  16
TORSDOF 4
ENDMDL
MODEL 9
REMARK VINA RESULT:      -8.0      2.036      3.412
REMARK  Name = 
REMARK  5 active torsions:
REMARK  status: ('A' for Active; 'I' for Inactive)
REMARK    1  A    between atoms: C_1  and  C_2
REMARK    2  A    between atoms: C_2  and  N_3
REMARK    3  A    between atoms: C_2  and  C_15
REMARK    4  A    between atoms: N_8  and  C_9
REMARK    5  A    between atoms: C_18  and  N_19
REMARK                            x       y       z     vdW  Elec       q    Type
REMARK                         _______ _______ _______ _____ _____    ______ ____
ROOT
ATOM      1  C   UNL     1       1.272   5.047  20.449  0.00  0.00    +0.000 C 
ATOM      2  C   UNL     1       2.497   5.917  20.149  0.00  0.00    +0.000 C 
ENDROOT
BRANCH   2   3
ATOM      3  N   UNL     1       3.328   5.374  19.078  0.00  0.00    +0.000 N 
ATOM      4  C   UNL     1       3.463   4.023  18.939  0.00  0.00    +0.000 A 
ATOM      5  N   UNL     1       2.924   3.064  19.665  0.00  0.00    +0.000 NA
ATOM      6  N   UNL     1       3.114   1.895  18.978  0.00  0.00    +0.000 NA
ATOM      7  N   UNL     1       3.795   2.102  17.862  0.00  0.00    +0.000 NA
ATOM      8  N   UNL     1       4.156   3.407  17.890  0.00  0.00    +0.000 N 
ATOM      9  H   UNL     1       3.381   5.957  18.245  0.00  0.00    +0.000 HD
BRANCH   8  10
ATOM     10  C   UNL     1       5.123   3.929  17.000  0.00  0.00    +0.000 A 
ATOM     11  C   UNL     1       6.366   4.352  17.493  0.00  0.00    +0.000 A 
ATOM     12  C   UNL     1       7.319   4.874  16.615  0.00  0.00    +0.000 A 
ATOM     13  C   UNL     1       7.023   5.013  15.259  0.00  0.00    +0.000 A 
ATOM     14  C   UNL     1       5.774   4.630  14.774  0.00  0.00    +0.000 A 
ATOM     15  C   UNL     1       4.825   4.079  15.638  0.00  0.00    +0.000 A 
ENDBRANCH   8  10
ENDBRANCH   2   3
BRANCH   2  16
ATOM     16  C   UNL     1       2.068   7.340  19.794  0.00  0.00    +0.000 A 
ATOM     17  C   UNL     1       1.403   8.119  20.753  0.00  0.00    +0.000 A 
ATOM     18  C   UNL     1       0.905   9.389  20.438  0.00  0.00    +0.000 A 
ATOM     19  C   UNL     1       1.063   9.908  19.148  0.00  0.00    +0.000 A 
ATOM     20  C   UNL     1       1.761   9.160  18.191  0.00  0.00    +0.000 A 
ATOM     21  C   UNL     1       2.264   7.891  18.514  0.00  0.00    +0.000 A 
BRANCH  19  22
ATOM     22  N   UNL     1       0.494  11.162  18.795  0.00  0.00    +0.000 N 
ATOM     23  C   UNL     1       1.089  12.401  18.770  0.00  0.00    +0.000 A 
ATOM     24  N   UNL     1       0.211  13.331  18.471  0.00  0.00    +0.000 NA
ATOM     25  C   UNL     1      -0.933  12.614  18.295  0.00  0.00    +0.000 A 
ATOM     26  N   UNL     1      -0.812  11.295  18.451  0.00  0.00    +0.000 NA
ENDBRANCH  19  22
ENDBRANCH   2  16
TORSDOF 4
ENDMDL
