MODEL 1
REMARK VINA RESULT:      -8.4      0.000      0.000
REMARK  Name = 
REMARK  3 active torsions:
REMARK  status: ('A' for Active; 'I' for Inactive)
REMARK    1  A    between atoms: C_2  and  C_4
REMARK    2  A    between atoms: C_7  and  C_8
REMARK    3  A    between atoms: C_11  and  C_12
REMARK                            x       y       z     vdW  Elec       q    Type
REMARK                         _______ _______ _______ _____ _____    ______ ____
ROOT
ATOM      1  C   UNL     1       7.583   8.205  17.590  0.00  0.00    +0.000 A 
ATOM      2  N   UNL     1       8.122   7.356  16.702  0.00  0.00    +0.000 NA
ATOM      3  O   UNL     1       7.103   6.426  16.490  0.00  0.00    +0.000 OA
ATOM      4  C   UNL     1       6.057   6.820  17.272  0.00  0.00    +0.000 A 
ATOM      5  N   UNL     1       6.308   7.895  17.982  0.00  0.00    +0.000 NA
ENDROOT
BRANCH   4   6
ATOM      6  C   UNL     1       4.782   6.048  17.157  0.00  0.00    +0.000 C 
ATOM      7  C   UNL     1       3.771   6.477  18.230  0.00  0.00    +0.000 C 
ATOM      8  C   UNL     1       2.358   5.943  17.981  0.00  0.00    +0.000 C 
ATOM      9  C   UNL     1       2.164   4.501  18.388  0.00  0.00    +0.000 A 
ATOM     10  C   UNL     1       1.209   4.196  19.372  0.00  0.00    +0.000 A 
ATOM     11  C   UNL     1       0.983   2.879  19.774  0.00  0.00    +0.000 A 
ATOM     12  C   UNL     1       1.707   1.845  19.196  0.00  0.00    +0.000 A 
ATOM     13  C   UNL     1       2.650   2.128  18.209  0.00  0.00    +0.000 A 
ATOM     14  C   UNL     1       2.889   3.451  17.794  0.00  0.00    +0.000 A 
ATOM     15  C   UNL     1       3.906   3.694  16.707  0.00  0.00    +0.000 C 
ATOM     16  C   UNL     1       5.085   4.541  17.177  0.00  0.00    +0.000 C 
ENDBRANCH   4   6
BRANCH   1  20
ATOM     17  C   UNL     1       9.565  10.904  19.220  0.00  0.00    +0.000 A 
ATOM     18  C   UNL     1       8.982  11.544  18.135  0.00  0.00    +0.000 A 
ATOM     19  N   UNL     1       8.246  10.626  17.431  0.00  0.00    +0.000 N 
ATOM     20  C   UNL     1       8.311   9.410  18.053  0.00  0.00    +0.000 A 
ATOM     21  C   UNL     1       9.131   9.540  19.151  0.00  0.00    +0.000 A 
ATOM     22  H   UNL     1       7.707  10.807  16.593  0.00  0.00    +0.000 HD
BRANCH  17  24
ATOM     23  N   UNL     1       9.887  11.655  21.475  0.00  0.00    +0.000 N 
ATOM     24  C   UNL     1      10.437  11.480  20.238  0.00  0.00    +0.000 C 
ATOM     25  O   UNL     1      11.604  11.792  20.027  0.00  0.00    +0.000 OA
ATOM     26  H   UNL     1      10.488  12.013  22.202  0.00  0.00    +0.000 HD
ATOM     27  H   UNL     1       8.960  11.340  21.713  0.00  0.00    +0.000 HD
ENDBRANCH  17  24
ENDBRANCH   1  20
TORSDOF 3
ENDMDL
MODEL 2
REMARK VINA RESULT:      -8.4      1.679      2.081
REMARK  Name = 
REMARK  3 active torsions:
REMARK  status: ('A' for Active; 'I' for Inactive)
REMARK    1  A    between atoms: C_2  and  C_4
REMARK    2  A    between atoms: C_7  and  C_8
REMARK    3  A    between atoms: C_11  and  C_12
REMARK                            x       y       z     vdW  Elec       q    Type
REMARK                         _______ _______ _______ _____ _____    ______ ____
ROOT
ATOM      1  C   UNL     1       7.675   7.486  17.653  0.00  0.00    +0.000 A 
ATOM      2  N   UNL     1       7.853   7.039  16.401  0.00  0.00    +0.000 NA
ATOM      3  O   UNL     1       7.099   5.865  16.370  0.00  0.00    +0.000 OA
ATOM      4  C   UNL     1       6.544   5.734  17.610  0.00  0.00    +0.000 A 
ATOM      5  N   UNL     1       6.883   6.693  18.440  0.00  0.00    +0.000 NA
ENDROOT
BRANCH   4   6
ATOM      6  C   UNL     1       5.592   4.602  17.823  0.00  0.00    +0.000 C 
ATOM      7  C   UNL     1       4.248   4.863  17.128  0.00  0.00    +0.000 C 
ATOM      8  C   UNL     1       3.349   3.625  17.061  0.00  0.00    +0.000 C 
ATOM      9  C   UNL     1       2.616   3.325  18.346  0.00  0.00    +0.000 A 
ATOM     10  C   UNL     1       1.211   3.321  18.342  0.00  0.00    +0.000 A 
ATOM     11  C   UNL     1       0.487   3.039  19.500  0.00  0.00    +0.000 A 
ATOM     12  C   UNL     1       1.156   2.751  20.683  0.00  0.00    +0.000 A 
ATOM     13  C   UNL     1       2.550   2.739  20.703  0.00  0.00    +0.000 A 
ATOM     14  C   UNL     1       3.294   3.022  19.542  0.00  0.00    +0.000 A 
ATOM     15  C   UNL     1       4.799   2.972  19.620  0.00  0.00    +0.000 C 
ATOM     16  C   UNL     1       5.452   4.320  19.328  0.00  0.00    +0.000 C 
ENDBRANCH   4   6
BRANCH   1  20
ATOM     17  C   UNL     1       8.935  10.932  18.289  0.00  0.00    +0.000 A 
ATOM     18  C   UNL     1       9.458  10.199  19.345  0.00  0.00    +0.000 A 
ATOM     19  N   UNL     1       9.025   8.903  19.233  0.00  0.00    +0.000 N 
ATOM     20  C   UNL     1       8.258   8.770  18.108  0.00  0.00    +0.000 A 
ATOM     21  C   UNL     1       8.167  10.006  17.510  0.00  0.00    +0.000 A 
ATOM     22  H   UNL     1       9.250   8.140  19.860  0.00  0.00    +0.000 HD
BRANCH  17  24
ATOM     23  N   UNL     1      10.233  12.933  18.539  0.00  0.00    +0.000 N 
ATOM     24  C   UNL     1       9.120  12.352  18.004  0.00  0.00    +0.000 C 
ATOM     25  O   UNL     1       8.342  13.008  17.322  0.00  0.00    +0.000 OA
ATOM     26  H   UNL     1      10.399  13.904  18.317  0.00  0.00    +0.000 HD
ATOM     27  H   UNL     1      10.938  12.415  19.037  0.00  0.00    +0.000 HD
ENDBRANCH  17  24
ENDBRANCH   1  20
TORSDOF 3
ENDMDL
MODEL 3
REMARK VINA RESULT:      -8.4      1.228      1.484
REMARK  Name = 
REMARK  3 active torsions:
REMARK  status: ('A' for Active; 'I' for Inactive)
REMARK    1  A    between atoms: C_2  and  C_4
REMARK    2  A    between atoms: C_7  and  C_8
REMARK    3  A    between atoms: C_11  and  C_12
REMARK                            x       y       z     vdW  Elec       q    Type
REMARK                         _______ _______ _______ _____ _____    ______ ____
ROOT
ATOM      1  C   UNL     1       7.546   8.084  17.598  0.00  0.00    +0.000 A 
ATOM      2  N   UNL     1       8.050   7.270  16.657  0.00  0.00    +0.000 NA
ATOM      3  O   UNL     1       7.023   6.350  16.445  0.00  0.00    +0.000 OA
ATOM      4  C   UNL     1       6.006   6.713  17.280  0.00  0.00    +0.000 A 
ATOM      5  N   UNL     1       6.286   7.759  18.023  0.00  0.00    +0.000 NA
ENDROOT
BRANCH   4   6
ATOM      6  C   UNL     1       4.726   5.948  17.180  0.00  0.00    +0.000 C 
ATOM      7  C   UNL     1       3.715   6.411  18.239  0.00  0.00    +0.000 C 
ATOM      8  C   UNL     1       2.299   5.880  17.999  0.00  0.00    +0.000 C 
ATOM      9  C   UNL     1       2.094   4.450  18.441  0.00  0.00    +0.000 A 
ATOM     10  C   UNL     1       1.133   4.176  19.430  0.00  0.00    +0.000 A 
ATOM     11  C   UNL     1       0.898   2.872  19.863  0.00  0.00    +0.000 A 
ATOM     12  C   UNL     1       1.616   1.818  19.313  0.00  0.00    +0.000 A 
ATOM     13  C   UNL     1       2.564   2.070  18.322  0.00  0.00    +0.000 A 
ATOM     14  C   UNL     1       2.812   3.381  17.875  0.00  0.00    +0.000 A 
ATOM     15  C   UNL     1       3.834   3.589  16.786  0.00  0.00    +0.000 C 
ATOM     16  C   UNL     1       5.018   4.440  17.239  0.00  0.00    +0.000 C 
ENDBRANCH   4   6
BRANCH   1  20
ATOM     17  C   UNL     1       9.263  11.311  18.307  0.00  0.00    +0.000 A 
ATOM     18  C   UNL     1       9.661  10.497  19.359  0.00  0.00    +0.000 A 
ATOM     19  N   UNL     1       9.053   9.277  19.219  0.00  0.00    +0.000 N 
ATOM     20  C   UNL     1       8.294   9.267  18.082  0.00  0.00    +0.000 A 
ATOM     21  C   UNL     1       8.386  10.513  17.502  0.00  0.00    +0.000 A 
ATOM     22  H   UNL     1       9.159   8.481  19.837  0.00  0.00    +0.000 HD
BRANCH  17  24
ATOM     23  N   UNL     1      10.932  12.893  17.626  0.00  0.00    +0.000 N 
ATOM     24  C   UNL     1       9.648  12.695  18.048  0.00  0.00    +0.000 C 
ATOM     25  O   UNL     1       8.885  13.643  18.185  0.00  0.00    +0.000 OA
ATOM     26  H   UNL     1      11.203  13.840  17.401  0.00  0.00    +0.000 HD
ATOM     27  H   UNL     1      11.566  12.138  17.424  0.00  0.00    +0.000 HD
ENDBRANCH  17  24
ENDBRANCH   1  20
TORSDOF 3
ENDMDL
MODEL 4
REMARK VINA RESULT:      -8.1      1.103      1.434
REMARK  Name = 
REMARK  3 active torsions:
REMARK  status: ('A' for Active; 'I' for Inactive)
REMARK    1  A    between atoms: C_2  and  C_4
REMARK    2  A    between atoms: C_7  and  C_8
REMARK    3  A    between atoms: C_11  and  C_12
REMARK                            x       y       z     vdW  Elec       q    Type
REMARK                         _______ _______ _______ _____ _____    ______ ____
ROOT
ATOM      1  C   UNL     1       7.698   7.602  17.613  0.00  0.00    +0.000 A 
ATOM      2  N   UNL     1       7.917   7.127  16.377  0.00  0.00    +0.000 NA
ATOM      3  O   UNL     1       7.167   5.950  16.350  0.00  0.00    +0.000 OA
ATOM      4  C   UNL     1       6.573   5.846  17.573  0.00  0.00    +0.000 A 
ATOM      5  N   UNL     1       6.883   6.825  18.392  0.00  0.00    +0.000 NA
ENDROOT
BRANCH   4   6
ATOM      6  C   UNL     1       5.618   4.716  17.783  0.00  0.00    +0.000 C 
ATOM      7  C   UNL     1       4.262   5.000  17.121  0.00  0.00    +0.000 C 
ATOM      8  C   UNL     1       3.353   3.770  17.046  0.00  0.00    +0.000 C 
ATOM      9  C   UNL     1       2.644   3.448  18.339  0.00  0.00    +0.000 A 
ATOM     10  C   UNL     1       1.239   3.453  18.364  0.00  0.00    +0.000 A 
ATOM     11  C   UNL     1       0.536   3.151  19.530  0.00  0.00    +0.000 A 
ATOM     12  C   UNL     1       1.228   2.835  20.693  0.00  0.00    +0.000 A 
ATOM     13  C   UNL     1       2.621   2.813  20.684  0.00  0.00    +0.000 A 
ATOM     14  C   UNL     1       3.343   3.115  19.514  0.00  0.00    +0.000 A 
ATOM     15  C   UNL     1       4.849   3.053  19.561  0.00  0.00    +0.000 C 
ATOM     16  C   UNL     1       5.506   4.403  19.284  0.00  0.00    +0.000 C 
ENDBRANCH   4   6
BRANCH   1  20
ATOM     17  C   UNL     1       9.297  10.564  19.206  0.00  0.00    +0.000 A 
ATOM     18  C   UNL     1       8.660  11.101  18.095  0.00  0.00    +0.000 A 
ATOM     19  N   UNL     1       8.059  10.082  17.403  0.00  0.00    +0.000 N 
ATOM     20  C   UNL     1       8.262   8.898  18.056  0.00  0.00    +0.000 A 
ATOM     21  C   UNL     1       9.037   9.155  19.165  0.00  0.00    +0.000 A 
ATOM     22  H   UNL     1       7.518  10.174  16.551  0.00  0.00    +0.000 HD
BRANCH  17  24
ATOM     23  N   UNL     1       9.461  11.439  21.433  0.00  0.00    +0.000 N 
ATOM     24  C   UNL     1      10.071  11.268  20.223  0.00  0.00    +0.000 C 
ATOM     25  O   UNL     1      11.207  11.687  20.035  0.00  0.00    +0.000 OA
ATOM     26  H   UNL     1       9.998  11.886  22.162  0.00  0.00    +0.000 HD
ATOM     27  H   UNL     1       8.563  11.042  21.656  0.00  0.00    +0.000 HD
ENDBRANCH  17  24
ENDBRANCH   1  20
TORSDOF 3
ENDMDL
MODEL 5
REMARK VINA RESULT:      -8.1      4.877      7.380
REMARK  Name = 
REMARK  3 active torsions:
REMARK  status: ('A' for Active; 'I' for Inactive)
REMARK    1  A    between atoms: C_2  and  C_4
REMARK    2  A    between atoms: C_7  and  C_8
REMARK    3  A    between atoms: C_11  and  C_12
REMARK                            x       y       z     vdW  Elec       q    Type
REMARK                         _______ _______ _______ _____ _____    ______ ____
ROOT
ATOM      1  C   UNL     1       4.264   5.969  18.371  0.00  0.00    +0.000 A 
ATOM      2  N   UNL     1       3.972   5.318  19.507  0.00  0.00    +0.000 NA
ATOM      3  O   UNL     1       2.893   6.039  20.020  0.00  0.00    +0.000 OA
ATOM      4  C   UNL     1       2.648   7.045  19.132  0.00  0.00    +0.000 A 
ATOM      5  N   UNL     1       3.475   7.058  18.112  0.00  0.00    +0.000 NA
ENDROOT
BRANCH   4   6
ATOM      6  C   UNL     1       1.461   7.917  19.388  0.00  0.00    +0.000 C 
ATOM      7  C   UNL     1       1.536   9.216  18.572  0.00  0.00    +0.000 C 
ATOM      8  C   UNL     1       0.223  10.004  18.563  0.00  0.00    +0.000 C 
ATOM      9  C   UNL     1      -0.018  10.814  19.814  0.00  0.00    +0.000 A 
ATOM     10  C   UNL     1      -0.146  12.210  19.705  0.00  0.00    +0.000 A 
ATOM     11  C   UNL     1      -0.380  13.002  20.829  0.00  0.00    +0.000 A 
ATOM     12  C   UNL     1      -0.495  12.411  22.081  0.00  0.00    +0.000 A 
ATOM     13  C   UNL     1      -0.382  11.028  22.206  0.00  0.00    +0.000 A 
ATOM     14  C   UNL     1      -0.146  10.216  21.081  0.00  0.00    +0.000 A 
ATOM     15  C   UNL     1      -0.055   8.723  21.276  0.00  0.00    +0.000 C 
ATOM     16  C   UNL     1       1.311   8.158  20.898  0.00  0.00    +0.000 C 
ENDBRANCH   4   6
BRANCH   1  20
ATOM     17  C   UNL     1       6.565   4.922  15.636  0.00  0.00    +0.000 A 
ATOM     18  C   UNL     1       7.219   4.500  16.786  0.00  0.00    +0.000 A 
ATOM     19  N   UNL     1       6.470   4.868  17.873  0.00  0.00    +0.000 N 
ATOM     20  C   UNL     1       5.327   5.492  17.455  0.00  0.00    +0.000 A 
ATOM     21  C   UNL     1       5.360   5.559  16.080  0.00  0.00    +0.000 A 
ATOM     22  H   UNL     1       6.696   4.689  18.844  0.00  0.00    +0.000 HD
BRANCH  17  24
ATOM     23  N   UNL     1       6.447   3.706  13.572  0.00  0.00    +0.000 N 
ATOM     24  C   UNL     1       6.992   4.759  14.250  0.00  0.00    +0.000 C 
ATOM     25  O   UNL     1       7.786   5.510  13.697  0.00  0.00    +0.000 OA
ATOM     26  H   UNL     1       6.698   3.603  12.600  0.00  0.00    +0.000 HD
ATOM     27  H   UNL     1       5.732   3.113  13.962  0.00  0.00    +0.000 HD
ENDBRANCH  17  24
ENDBRANCH   1  20
TORSDOF 3
ENDMDL
MODEL 6
REMARK VINA RESULT:      -8.0      2.596      3.692
REMARK  Name = 
REMARK  3 active torsions:
REMARK  status: ('A' for Active; 'I' for Inactive)
REMARK    1  A    between atoms: C_2  and  C_4
REMARK    2  A    between atoms: C_7  and  C_8
REMARK    3  A    between atoms: C_11  and  C_12
REMARK                            x       y       z     vdW  Elec       q    Type
REMARK                         _______ _______ _______ _____ _____    ______ ____
ROOT
ATOM      1  C   UNL     1       9.341  10.505  18.201  0.00  0.00    +0.000 A 
ATOM      2  N   UNL     1       9.505   9.938  19.406  0.00  0.00    +0.000 NA
ATOM      3  O   UNL     1       8.796   8.741  19.296  0.00  0.00    +0.000 OA
ATOM      4  C   UNL     1       8.284   8.714  18.032  0.00  0.00    +0.000 A 
ATOM      5  N   UNL     1       8.573   9.783  17.326  0.00  0.00    +0.000 NA
ENDROOT
BRANCH   4   6
ATOM      6  C   UNL     1       7.558   7.478  17.608  0.00  0.00    +0.000 C 
ATOM      7  C   UNL     1       6.102   7.788  17.230  0.00  0.00    +0.000 C 
ATOM      8  C   UNL     1       5.403   6.630  16.512  0.00  0.00    +0.000 C 
ATOM      9  C   UNL     1       4.922   5.534  17.434  0.00  0.00    +0.000 A 
ATOM     10  C   UNL     1       3.548   5.240  17.480  0.00  0.00    +0.000 A 
ATOM     11  C   UNL     1       3.054   4.230  18.305  0.00  0.00    +0.000 A 
ATOM     12  C   UNL     1       3.926   3.494  19.097  0.00  0.00    +0.000 A 
ATOM     13  C   UNL     1       5.293   3.764  19.055  0.00  0.00    +0.000 A 
ATOM     14  C   UNL     1       5.806   4.780  18.227  0.00  0.00    +0.000 A 
ATOM     15  C   UNL     1       7.296   5.011  18.207  0.00  0.00    +0.000 C 
ATOM     16  C   UNL     1       7.686   6.403  18.699  0.00  0.00    +0.000 C 
ENDBRANCH   4   6
BRANCH   1  20
ATOM     17  C   UNL     1      10.464  13.972  17.439  0.00  0.00    +0.000 A 
ATOM     18  C   UNL     1      11.550  13.193  17.065  0.00  0.00    +0.000 A 
ATOM     19  N   UNL     1      11.260  11.881  17.337  0.00  0.00    +0.000 N 
ATOM     20  C   UNL     1       9.996  11.786  17.850  0.00  0.00    +0.000 A 
ATOM     21  C   UNL     1       9.481  13.060  17.943  0.00  0.00    +0.000 A 
ATOM     22  H   UNL     1      11.864  11.086  17.166  0.00  0.00    +0.000 HD
BRANCH  17  24
ATOM     23  N   UNL     1      10.749  15.992  16.176  0.00  0.00    +0.000 N 
ATOM     24  C   UNL     1      10.325  15.422  17.342  0.00  0.00    +0.000 C 
ATOM     25  O   UNL     1       9.851  16.114  18.236  0.00  0.00    +0.000 OA
ATOM     26  H   UNL     1      10.621  16.988  16.076  0.00  0.00    +0.000 HD
ATOM     27  H   UNL     1      11.069  15.454  15.387  0.00  0.00    +0.000 HD
ENDBRANCH  17  24
ENDBRANCH   1  20
TORSDOF 3
ENDMDL
MODEL 7
REMARK VINA RESULT:      -7.9      1.760      2.252
REMARK  Name = 
REMARK  3 active torsions:
REMARK  status: ('A' for Active; 'I' for Inactive)
REMARK    1  A    between atoms: C_2  and  C_4
REMARK    2  A    between atoms: C_7  and  C_8
REMARK    3  A    between atoms: C_11  and  C_12
REMARK                            x       y       z     vdW  Elec       q    Type
REMARK                         _______ _______ _______ _____ _____    ______ ____
ROOT
ATOM      1  C   UNL     1       8.092   8.753  17.986  0.00  0.00    +0.000 A 
ATOM      2  N   UNL     1       7.222   9.046  17.008  0.00  0.00    +0.000 NA
ATOM      3  O   UNL     1       6.534   7.846  16.822  0.00  0.00    +0.000 OA
ATOM      4  C   UNL     1       7.063   6.959  17.713  0.00  0.00    +0.000 A 
ATOM      5  N   UNL     1       8.036   7.461  18.438  0.00  0.00    +0.000 NA
ENDROOT
BRANCH   4   6
ATOM      6  C   UNL     1       6.430   5.608  17.800  0.00  0.00    +0.000 C 
ATOM      7  C   UNL     1       5.336   5.434  16.737  0.00  0.00    +0.000 C 
ATOM      8  C   UNL     1       4.864   3.985  16.583  0.00  0.00    +0.000 C 
ATOM      9  C   UNL     1       3.890   3.538  17.646  0.00  0.00    +0.000 A 
ATOM     10  C   UNL     1       2.604   3.123  17.258  0.00  0.00    +0.000 A 
ATOM     11  C   UNL     1       1.671   2.690  18.200  0.00  0.00    +0.000 A 
ATOM     12  C   UNL     1       2.009   2.663  19.547  0.00  0.00    +0.000 A 
ATOM     13  C   UNL     1       3.283   3.060  19.949  0.00  0.00    +0.000 A 
ATOM     14  C   UNL     1       4.235   3.499  19.010  0.00  0.00    +0.000 A 
ATOM     15  C   UNL     1       5.603   3.895  19.503  0.00  0.00    +0.000 C 
ATOM     16  C   UNL     1       5.928   5.362  19.232  0.00  0.00    +0.000 C 
ENDBRANCH   4   6
BRANCH   1  20
ATOM     17  C   UNL     1      10.505  11.453  18.854  0.00  0.00    +0.000 A 
ATOM     18  C   UNL     1      10.154  10.926  20.089  0.00  0.00    +0.000 A 
ATOM     19  N   UNL     1       9.230   9.933  19.893  0.00  0.00    +0.000 N 
ATOM     20  C   UNL     1       8.996   9.780  18.554  0.00  0.00    +0.000 A 
ATOM     21  C   UNL     1       9.754  10.713  17.884  0.00  0.00    +0.000 A 
ATOM     22  H   UNL     1       8.796   9.368  20.613  0.00  0.00    +0.000 HD
BRANCH  17  24
ATOM     23  N   UNL     1      12.332  12.311  17.558  0.00  0.00    +0.000 N 
ATOM     24  C   UNL     1      11.447  12.532  18.574  0.00  0.00    +0.000 C 
ATOM     25  O   UNL     1      11.463  13.589  19.193  0.00  0.00    +0.000 OA
ATOM     26  H   UNL     1      12.963  13.063  17.323  0.00  0.00    +0.000 HD
ATOM     27  H   UNL     1      12.302  11.492  16.973  0.00  0.00    +0.000 HD
ENDBRANCH  17  24
ENDBRANCH   1  20
TORSDOF 3
ENDMDL
MODEL 8
REMARK VINA RESULT:      -7.9      4.816      7.093
REMARK  Name = 
REMARK  3 active torsions:
REMARK  status: ('A' for Active; 'I' for Inactive)
REMARK    1  A    between atoms: C_2  and  C_4
REMARK    2  A    between atoms: C_7  and  C_8
REMARK    3  A    between atoms: C_11  and  C_12
REMARK                            x       y       z     vdW  Elec       q    Type
REMARK                         _______ _______ _______ _____ _____    ______ ____
ROOT
ATOM      1  C   UNL     1       2.609   6.723  19.452  0.00  0.00    +0.000 A 
ATOM      2  N   UNL     1       2.551   5.540  20.083  0.00  0.00    +0.000 NA
ATOM      3  O   UNL     1       3.442   4.747  19.358  0.00  0.00    +0.000 OA
ATOM      4  C   UNL     1       3.944   5.541  18.370  0.00  0.00    +0.000 A 
ATOM      5  N   UNL     1       3.450   6.758  18.372  0.00  0.00    +0.000 NA
ENDROOT
BRANCH   4   6
ATOM      6  C   UNL     1       5.014   4.966  17.499  0.00  0.00    +0.000 C 
ATOM      7  C   UNL     1       5.926   6.064  16.935  0.00  0.00    +0.000 C 
ATOM      8  C   UNL     1       7.203   5.519  16.286  0.00  0.00    +0.000 C 
ATOM      9  C   UNL     1       7.002   4.980  14.890  0.00  0.00    +0.000 A 
ATOM     10  C   UNL     1       7.708   5.570  13.827  0.00  0.00    +0.000 A 
ATOM     11  C   UNL     1       7.567   5.101  12.520  0.00  0.00    +0.000 A 
ATOM     12  C   UNL     1       6.721   4.032  12.255  0.00  0.00    +0.000 A 
ATOM     13  C   UNL     1       6.022   3.428  13.300  0.00  0.00    +0.000 A 
ATOM     14  C   UNL     1       6.154   3.889  14.622  0.00  0.00    +0.000 A 
ATOM     15  C   UNL     1       5.390   3.182  15.713  0.00  0.00    +0.000 C 
ATOM     16  C   UNL     1       4.378   4.087  16.410  0.00  0.00    +0.000 C 
ENDBRANCH   4   6
BRANCH   1  20
ATOM     17  C   UNL     1       0.659   9.381  21.183  0.00  0.00    +0.000 A 
ATOM     18  C   UNL     1       0.759   9.852  19.881  0.00  0.00    +0.000 A 
ATOM     19  N   UNL     1       1.498   8.958  19.150  0.00  0.00    +0.000 N 
ATOM     20  C   UNL     1       1.853   7.900  19.940  0.00  0.00    +0.000 A 
ATOM     21  C   UNL     1       1.367   8.135  21.206  0.00  0.00    +0.000 A 
ATOM     22  H   UNL     1       1.731   9.037  18.168  0.00  0.00    +0.000 HD
BRANCH  17  24
ATOM     23  N   UNL     1      -0.774   9.173  23.095  0.00  0.00    +0.000 N 
ATOM     24  C   UNL     1      -0.025  10.004  22.312  0.00  0.00    +0.000 C 
ATOM     25  O   UNL     1       0.054  11.199  22.572  0.00  0.00    +0.000 OA
ATOM     26  H   UNL     1      -1.220   9.579  23.905  0.00  0.00    +0.000 HD
ATOM     27  H   UNL     1      -0.803   8.175  22.966  0.00  0.00    +0.000 HD
ENDBRANCH  17  24
ENDBRANCH   1  20
TORSDOF 3
ENDMDL
MODEL 9
REMARK VINA RESULT:      -7.9      7.851     10.372
REMARK  Name = 
REMARK  3 active torsions:
REMARK  status: ('A' for Active; 'I' for Inactive)
REMARK    1  A    between atoms: C_2  and  C_4
REMARK    2  A    between atoms: C_7  and  C_8
REMARK    3  A    between atoms: C_11  and  C_12
REMARK                            x       y       z     vdW  Elec       q    Type
REMARK                         _______ _______ _______ _____ _____    ______ ____
ROOT
ATOM      1  C   UNL     1      -2.097  11.589  18.452  0.00  0.00    +0.000 A 
ATOM      2  N   UNL     1      -1.208  12.590  18.362  0.00  0.00    +0.000 NA
ATOM      3  O   UNL     1       0.004  11.969  18.666  0.00  0.00    +0.000 OA
ATOM      4  C   UNL     1      -0.287  10.657  18.902  0.00  0.00    +0.000 A 
ATOM      5  N   UNL     1      -1.566  10.377  18.803  0.00  0.00    +0.000 NA
ENDROOT
BRANCH   4   6
ATOM      6  C   UNL     1       0.859   9.731  19.152  0.00  0.00    +0.000 C 
ATOM      7  C   UNL     1       1.313   9.041  17.857  0.00  0.00    +0.000 C 
ATOM      8  C   UNL     1       2.656   8.318  17.993  0.00  0.00    +0.000 C 
ATOM      9  C   UNL     1       2.565   6.970  18.668  0.00  0.00    +0.000 A 
ATOM     10  C   UNL     1       2.964   5.825  17.957  0.00  0.00    +0.000 A 
ATOM     11  C   UNL     1       2.910   4.560  18.540  0.00  0.00    +0.000 A 
ATOM     12  C   UNL     1       2.459   4.417  19.846  0.00  0.00    +0.000 A 
ATOM     13  C   UNL     1       2.069   5.543  20.570  0.00  0.00    +0.000 A 
ATOM     14  C   UNL     1       2.118   6.826  19.995  0.00  0.00    +0.000 A 
ATOM     15  C   UNL     1       1.705   8.008  20.835  0.00  0.00    +0.000 C 
ATOM     16  C   UNL     1       0.492   8.741  20.269  0.00  0.00    +0.000 C 
ENDBRANCH   4   6
BRANCH   1  20
ATOM     17  C   UNL     1      -5.789  12.034  18.238  0.00  0.00    +0.000 A 
ATOM     18  C   UNL     1      -5.389  12.018  16.908  0.00  0.00    +0.000 A 
ATOM     19  N   UNL     1      -4.025  11.893  16.865  0.00  0.00    +0.000 N 
ATOM     20  C   UNL     1      -3.530  11.794  18.136  0.00  0.00    +0.000 A 
ATOM     21  C   UNL     1      -4.589  11.894  19.010  0.00  0.00    +0.000 A 
ATOM     22  H   UNL     1      -3.454  11.849  16.029  0.00  0.00    +0.000 HD
BRANCH  17  24
ATOM     23  N   UNL     1      -7.582  11.130  19.548  0.00  0.00    +0.000 N 
ATOM     24  C   UNL     1      -7.143  12.159  18.766  0.00  0.00    +0.000 C 
ATOM     25  O   UNL     1      -7.866  13.123  18.543  0.00  0.00    +0.000 OA
ATOM     26  H   UNL     1      -8.501  11.219  19.956  0.00  0.00    +0.000 HD
ATOM     27  H   UNL     1      -6.995  10.359  19.822  0.00  0.00    +0.000 HD
ENDBRANCH  17  24
ENDBRANCH   1  20
TORSDOF 3
ENDMDL
