MODEL 1
REMARK VINA RESULT:      -8.8      0.000      0.000
REMARK  Name = 
REMARK  5 active torsions:
REMARK  status: ('A' for Active; 'I' for Inactive)
REMARK    1  A    between atoms: C_2  and  C_3
REMARK    2  A    between atoms: C_7  and  S_8
REMARK    3  A    between atoms: S_8  and  N_11
REMARK    4  A    between atoms: C_26  and  C_27
REMARK    5  A    between atoms: C_27  and  O_28
REMARK                            x       y       z     vdW  Elec       q    Type
REMARK                         _______ _______ _______ _____ _____    ______ ____
ROOT
ATOM      1  C   UNL     1       2.977   6.833  19.058  0.00  0.00    +0.000 A 
ATOM      2  C   UNL     1       2.902   7.442  17.810  0.00  0.00    +0.000 A 
ATOM      3  C   UNL     1       2.252   8.661  17.599  0.00  0.00    +0.000 A 
ATOM      4  C   UNL     1       1.522   9.233  18.636  0.00  0.00    +0.000 A 
ATOM      5  C   UNL     1       1.471   8.570  19.864  0.00  0.00    +0.000 A 
ATOM      6  C   UNL     1       2.245   7.422  20.098  0.00  0.00    +0.000 A 
ENDROOT
BRANCH   1   8
ATOM      7  O   UNL     1       4.810   5.532  19.610  0.00  0.00    +0.000 OA
ATOM      8  C   UNL     1       3.607   5.498  19.323  0.00  0.00    +0.000 C 
ATOM      9  N   UNL     1       2.911   4.283  19.268  0.00  0.00    +0.000 N 
ATOM     10  C   UNL     1       1.494   4.096  18.962  0.00  0.00    +0.000 C 
ATOM     11  C   UNL     1       0.713   3.800  20.249  0.00  0.00    +0.000 C 
ATOM     12  C   UNL     1       1.323   2.639  21.040  0.00  0.00    +0.000 C 
ATOM     13  C   UNL     1       2.835   2.811  21.229  0.00  0.00    +0.000 C 
ATOM     14  C   UNL     1       3.556   3.098  19.900  0.00  0.00    +0.000 C 
BRANCH  14  15
ATOM     15  C   UNL     1       3.568   1.849  18.985  0.00  0.00    +0.000 C 
BRANCH  15  16
ATOM     16  O   UNL     1       4.157   2.138  17.722  0.00  0.00    +0.000 OA
ATOM     17  H   UNL     1       4.989   1.634  17.680  0.00  0.00    +0.000 HD
ENDBRANCH  15  16
ENDBRANCH  14  15
ENDBRANCH   1   8
BRANCH   5  18
ATOM     18  S   UNL     1       0.473   9.242  21.167  0.00  0.00    +0.000 S 
ATOM     19  O   UNL     1      -0.521   8.231  21.483  0.00  0.00    +0.000 OA
ATOM     20  O   UNL     1       1.367   9.725  22.201  0.00  0.00    +0.000 OA
BRANCH  18  21
ATOM     21  N   UNL     1      -0.324  10.544  20.477  0.00  0.00    +0.000 N 
ATOM     22  C   UNL     1      -1.285  10.300  19.352  0.00  0.00    +0.000 C 
ATOM     23  C   UNL     1      -1.880  11.693  19.139  0.00  0.00    +0.000 C 
ATOM     24  C   UNL     1      -0.597  12.463  19.260  0.00  0.00    +0.000 A 
ATOM     25  C   UNL     1      -0.193  13.568  18.542  0.00  0.00    +0.000 A 
ATOM     26  C   UNL     1       1.092  14.052  18.783  0.00  0.00    +0.000 A 
ATOM     27  C   UNL     1       1.891  13.493  19.798  0.00  0.00    +0.000 A 
ATOM     28  C   UNL     1       1.468  12.369  20.520  0.00  0.00    +0.000 A 
ATOM     29  C   UNL     1       0.266  11.807  20.156  0.00  0.00    +0.000 A 
ENDBRANCH  18  21
ENDBRANCH   5  18
TORSDOF 5
ENDMDL
MODEL 2
REMARK VINA RESULT:      -8.8      1.191      1.934
REMARK  Name = 
REMARK  5 active torsions:
REMARK  status: ('A' for Active; 'I' for Inactive)
REMARK    1  A    between atoms: C_2  and  C_3
REMARK    2  A    between atoms: C_7  and  S_8
REMARK    3  A    between atoms: S_8  and  N_11
REMARK    4  A    between atoms: C_26  and  C_27
REMARK    5  A    between atoms: C_27  and  O_28
REMARK                            x       y       z     vdW  Elec       q    Type
REMARK                         _______ _______ _______ _____ _____    ______ ____
ROOT
ATOM      1  C   UNL     1       3.018   6.789  18.941  0.00  0.00    +0.000 A 
ATOM      2  C   UNL     1       2.926   7.510  17.755  0.00  0.00    +0.000 A 
ATOM      3  C   UNL     1       2.298   8.755  17.672  0.00  0.00    +0.000 A 
ATOM      4  C   UNL     1       1.605   9.244  18.775  0.00  0.00    +0.000 A 
ATOM      5  C   UNL     1       1.569   8.474  19.938  0.00  0.00    +0.000 A 
ATOM      6  C   UNL     1       2.324   7.294  20.048  0.00  0.00    +0.000 A 
ENDROOT
BRANCH   1   8
ATOM      7  O   UNL     1       4.852   5.406  19.223  0.00  0.00    +0.000 OA
ATOM      8  C   UNL     1       3.625   5.423  19.068  0.00  0.00    +0.000 C 
ATOM      9  N   UNL     1       2.885   4.234  19.027  0.00  0.00    +0.000 N 
ATOM     10  C   UNL     1       1.437   4.105  18.868  0.00  0.00    +0.000 C 
ATOM     11  C   UNL     1       0.789   3.764  20.216  0.00  0.00    +0.000 C 
ATOM     12  C   UNL     1       1.439   2.544  20.876  0.00  0.00    +0.000 C 
ATOM     13  C   UNL     1       2.967   2.660  20.908  0.00  0.00    +0.000 C 
ATOM     14  C   UNL     1       3.551   2.997  19.525  0.00  0.00    +0.000 C 
BRANCH  14  15
ATOM     15  C   UNL     1       3.422   1.800  18.552  0.00  0.00    +0.000 C 
BRANCH  15  16
ATOM     16  O   UNL     1       4.411   0.811  18.812  0.00  0.00    +0.000 OA
ATOM     17  H   UNL     1       4.170   0.029  18.284  0.00  0.00    +0.000 HD
ENDBRANCH  15  16
ENDBRANCH  14  15
ENDBRANCH   1   8
BRANCH   5  18
ATOM     18  S   UNL     1       0.616   9.043  21.322  0.00  0.00    +0.000 S 
ATOM     19  O   UNL     1      -0.517   8.141  21.437  0.00  0.00    +0.000 OA
ATOM     20  O   UNL     1       1.523   9.212  22.440  0.00  0.00    +0.000 OA
BRANCH  18  21
ATOM     21  N   UNL     1       0.030  10.543  20.859  0.00  0.00    +0.000 N 
ATOM     22  C   UNL     1      -0.332  11.545  21.914  0.00  0.00    +0.000 C 
ATOM     23  C   UNL     1      -0.659  12.781  21.075  0.00  0.00    +0.000 C 
ATOM     24  C   UNL     1      -1.437  12.076  20.002  0.00  0.00    +0.000 A 
ATOM     25  C   UNL     1      -2.571  12.505  19.347  0.00  0.00    +0.000 A 
ATOM     26  C   UNL     1      -3.161  11.622  18.444  0.00  0.00    +0.000 A 
ATOM     27  C   UNL     1      -2.551  10.390  18.143  0.00  0.00    +0.000 A 
ATOM     28  C   UNL     1      -1.398   9.965  18.817  0.00  0.00    +0.000 A 
ATOM     29  C   UNL     1      -0.924  10.779  19.820  0.00  0.00    +0.000 A 
ENDBRANCH  18  21
ENDBRANCH   5  18
TORSDOF 5
ENDMDL
MODEL 3
REMARK VINA RESULT:      -8.8      1.546      2.043
REMARK  Name = 
REMARK  5 active torsions:
REMARK  status: ('A' for Active; 'I' for Inactive)
REMARK    1  A    between atoms: C_2  and  C_3
REMARK    2  A    between atoms: C_7  and  S_8
REMARK    3  A    between atoms: S_8  and  N_11
REMARK    4  A    between atoms: C_26  and  C_27
REMARK    5  A    between atoms: C_27  and  O_28
REMARK                            x       y       z     vdW  Elec       q    Type
REMARK                         _______ _______ _______ _____ _____    ______ ____
ROOT
ATOM      1  C   UNL     1       2.854   6.864  19.132  0.00  0.00    +0.000 A 
ATOM      2  C   UNL     1       2.602   7.460  17.900  0.00  0.00    +0.000 A 
ATOM      3  C   UNL     1       1.910   8.666  17.771  0.00  0.00    +0.000 A 
ATOM      4  C   UNL     1       1.316   9.236  18.892  0.00  0.00    +0.000 A 
ATOM      5  C   UNL     1       1.441   8.584  20.120  0.00  0.00    +0.000 A 
ATOM      6  C   UNL     1       2.259   7.451  20.256  0.00  0.00    +0.000 A 
ENDROOT
BRANCH   1   8
ATOM      7  O   UNL     1       4.750   5.605  19.551  0.00  0.00    +0.000 OA
ATOM      8  C   UNL     1       3.537   5.542  19.319  0.00  0.00    +0.000 C 
ATOM      9  N   UNL     1       2.877   4.307  19.253  0.00  0.00    +0.000 N 
ATOM     10  C   UNL     1       1.453   4.085  19.007  0.00  0.00    +0.000 C 
ATOM     11  C   UNL     1       0.743   3.721  20.318  0.00  0.00    +0.000 C 
ATOM     12  C   UNL     1       1.426   2.553  21.037  0.00  0.00    +0.000 C 
ATOM     13  C   UNL     1       2.938   2.767  21.161  0.00  0.00    +0.000 C 
ATOM     14  C   UNL     1       3.586   3.122  19.811  0.00  0.00    +0.000 C 
BRANCH  14  15
ATOM     15  C   UNL     1       3.593   1.907  18.852  0.00  0.00    +0.000 C 
BRANCH  15  16
ATOM     16  O   UNL     1       4.222   2.225  17.616  0.00  0.00    +0.000 OA
ATOM     17  H   UNL     1       4.238   1.405  17.092  0.00  0.00    +0.000 HD
ENDBRANCH  15  16
ENDBRANCH  14  15
ENDBRANCH   1   8
BRANCH   5  18
ATOM     18  S   UNL     1       0.615   9.252  21.541  0.00  0.00    +0.000 S 
ATOM     19  O   UNL     1      -0.618   8.498  21.688  0.00  0.00    +0.000 OA
ATOM     20  O   UNL     1       1.573   9.292  22.628  0.00  0.00    +0.000 OA
BRANCH  18  21
ATOM     21  N   UNL     1       0.207  10.819  21.110  0.00  0.00    +0.000 N 
ATOM     22  C   UNL     1       1.284  11.753  20.643  0.00  0.00    +0.000 C 
ATOM     23  C   UNL     1       0.475  12.980  20.219  0.00  0.00    +0.000 C 
ATOM     24  C   UNL     1      -0.473  12.987  21.383  0.00  0.00    +0.000 A 
ATOM     25  C   UNL     1      -0.979  14.072  22.066  0.00  0.00    +0.000 A 
ATOM     26  C   UNL     1      -1.781  13.812  23.176  0.00  0.00    +0.000 A 
ATOM     27  C   UNL     1      -2.139  12.492  23.509  0.00  0.00    +0.000 A 
ATOM     28  C   UNL     1      -1.617  11.397  22.807  0.00  0.00    +0.000 A 
ATOM     29  C   UNL     1      -0.700  11.668  21.817  0.00  0.00    +0.000 A 
ENDBRANCH  18  21
ENDBRANCH   5  18
TORSDOF 5
ENDMDL
MODEL 4
REMARK VINA RESULT:      -8.2      2.074      3.158
REMARK  Name = 
REMARK  5 active torsions:
REMARK  status: ('A' for Active; 'I' for Inactive)
REMARK    1  A    between atoms: C_2  and  C_3
REMARK    2  A    between atoms: C_7  and  S_8
REMARK    3  A    between atoms: S_8  and  N_11
REMARK    4  A    between atoms: C_26  and  C_27
REMARK    5  A    between atoms: C_27  and  O_28
REMARK                            x       y       z     vdW  Elec       q    Type
REMARK                         _______ _______ _______ _____ _____    ______ ____
ROOT
ATOM      1  C   UNL     1       2.304   7.501  19.035  0.00  0.00    +0.000 A 
ATOM      2  C   UNL     1       2.498   8.207  17.852  0.00  0.00    +0.000 A 
ATOM      3  C   UNL     1       2.129   9.545  17.699  0.00  0.00    +0.000 A 
ATOM      4  C   UNL     1       1.408  10.174  18.708  0.00  0.00    +0.000 A 
ATOM      5  C   UNL     1       1.083   9.444  19.853  0.00  0.00    +0.000 A 
ATOM      6  C   UNL     1       1.584   8.147  20.050  0.00  0.00    +0.000 A 
ENDROOT
BRANCH   1   8
ATOM      7  O   UNL     1       1.758   5.394  19.820  0.00  0.00    +0.000 OA
ATOM      8  C   UNL     1       2.625   6.049  19.229  0.00  0.00    +0.000 C 
ATOM      9  N   UNL     1       3.805   5.445  18.777  0.00  0.00    +0.000 N 
ATOM     10  C   UNL     1       4.900   6.088  18.052  0.00  0.00    +0.000 C 
ATOM     11  C   UNL     1       4.841   5.710  16.567  0.00  0.00    +0.000 C 
ATOM     12  C   UNL     1       4.784   4.193  16.360  0.00  0.00    +0.000 C 
ATOM     13  C   UNL     1       3.708   3.539  17.234  0.00  0.00    +0.000 C 
ATOM     14  C   UNL     1       3.829   3.956  18.710  0.00  0.00    +0.000 C 
BRANCH  14  15
ATOM     15  C   UNL     1       5.084   3.335  19.370  0.00  0.00    +0.000 C 
BRANCH  15  16
ATOM     16  O   UNL     1       4.921   1.937  19.581  0.00  0.00    +0.000 OA
ATOM     17  H   UNL     1       4.130   1.669  19.078  0.00  0.00    +0.000 HD
ENDBRANCH  15  16
ENDBRANCH  14  15
ENDBRANCH   1   8
BRANCH   5  18
ATOM     18  S   UNL     1       0.089  10.205  21.110  0.00  0.00    +0.000 S 
ATOM     19  O   UNL     1      -0.748   9.153  21.661  0.00  0.00    +0.000 OA
ATOM     20  O   UNL     1       0.975  10.954  21.979  0.00  0.00    +0.000 OA
BRANCH  18  21
ATOM     21  N   UNL     1      -0.907  11.273  20.289  0.00  0.00    +0.000 N 
ATOM     22  C   UNL     1      -1.688  12.290  21.066  0.00  0.00    +0.000 C 
ATOM     23  C   UNL     1      -2.316  13.126  19.949  0.00  0.00    +0.000 C 
ATOM     24  C   UNL     1      -2.701  11.982  19.056  0.00  0.00    +0.000 A 
ATOM     25  C   UNL     1      -3.838  11.841  18.291  0.00  0.00    +0.000 A 
ATOM     26  C   UNL     1      -4.006  10.637  17.610  0.00  0.00    +0.000 A 
ATOM     27  C   UNL     1      -2.995   9.657  17.626  0.00  0.00    +0.000 A 
ATOM     28  C   UNL     1      -1.844   9.812  18.409  0.00  0.00    +0.000 A 
ATOM     29  C   UNL     1      -1.772  10.936  19.200  0.00  0.00    +0.000 A 
ENDBRANCH  18  21
ENDBRANCH   5  18
TORSDOF 5
ENDMDL
MODEL 5
REMARK VINA RESULT:      -8.1      2.342      3.838
REMARK  Name = 
REMARK  5 active torsions:
REMARK  status: ('A' for Active; 'I' for Inactive)
REMARK    1  A    between atoms: C_2  and  C_3
REMARK    2  A    between atoms: C_7  and  S_8
REMARK    3  A    between atoms: S_8  and  N_11
REMARK    4  A    between atoms: C_26  and  C_27
REMARK    5  A    between atoms: C_27  and  O_28
REMARK                            x       y       z     vdW  Elec       q    Type
REMARK                         _______ _______ _______ _____ _____    ______ ____
ROOT
ATOM      1  C   UNL     1       2.704   6.708  18.872  0.00  0.00    +0.000 A 
ATOM      2  C   UNL     1       2.397   5.491  19.472  0.00  0.00    +0.000 A 
ATOM      3  C   UNL     1       1.527   5.381  20.559  0.00  0.00    +0.000 A 
ATOM      4  C   UNL     1       1.051   6.536  21.171  0.00  0.00    +0.000 A 
ATOM      5  C   UNL     1       1.453   7.774  20.669  0.00  0.00    +0.000 A 
ATOM      6  C   UNL     1       2.212   7.865  19.491  0.00  0.00    +0.000 A 
ENDROOT
BRANCH   1   8
ATOM      7  O   UNL     1       3.430   7.822  16.978  0.00  0.00    +0.000 OA
ATOM      8  C   UNL     1       3.679   6.885  17.745  0.00  0.00    +0.000 C 
ATOM      9  N   UNL     1       4.805   6.073  17.554  0.00  0.00    +0.000 N 
ATOM     10  C   UNL     1       5.229   4.950  18.387  0.00  0.00    +0.000 C 
ATOM     11  C   UNL     1       6.417   5.366  19.265  0.00  0.00    +0.000 C 
ATOM     12  C   UNL     1       7.555   5.977  18.441  0.00  0.00    +0.000 C 
ATOM     13  C   UNL     1       7.048   7.064  17.487  0.00  0.00    +0.000 C 
ATOM     14  C   UNL     1       5.863   6.578  16.634  0.00  0.00    +0.000 C 
BRANCH  14  15
ATOM     15  C   UNL     1       6.314   5.531  15.587  0.00  0.00    +0.000 C 
BRANCH  15  16
ATOM     16  O   UNL     1       7.644   5.778  15.146  0.00  0.00    +0.000 OA
ATOM     17  H   UNL     1       8.236   5.387  15.813  0.00  0.00    +0.000 HD
ENDBRANCH  15  16
ENDBRANCH  14  15
ENDBRANCH   1   8
BRANCH   5  18
ATOM     18  S   UNL     1       0.924   9.254  21.493  0.00  0.00    +0.000 S 
ATOM     19  O   UNL     1      -0.454   9.028  21.892  0.00  0.00    +0.000 OA
ATOM     20  O   UNL     1       1.922   9.582  22.491  0.00  0.00    +0.000 OA
BRANCH  18  21
ATOM     21  N   UNL     1       0.925  10.436  20.306  0.00  0.00    +0.000 N 
ATOM     22  C   UNL     1       1.317  11.838  20.670  0.00  0.00    +0.000 C 
ATOM     23  C   UNL     1       1.330  12.525  19.303  0.00  0.00    +0.000 C 
ATOM     24  C   UNL     1       0.071  11.904  18.771  0.00  0.00    +0.000 A 
ATOM     25  C   UNL     1      -0.906  12.486  17.993  0.00  0.00    +0.000 A 
ATOM     26  C   UNL     1      -2.031  11.718  17.699  0.00  0.00    +0.000 A 
ATOM     27  C   UNL     1      -2.103  10.369  18.095  0.00  0.00    +0.000 A 
ATOM     28  C   UNL     1      -1.103   9.790  18.888  0.00  0.00    +0.000 A 
ATOM     29  C   UNL     1      -0.080  10.611  19.304  0.00  0.00    +0.000 A 
ENDBRANCH  18  21
ENDBRANCH   5  18
TORSDOF 5
ENDMDL
MODEL 6
REMARK VINA RESULT:      -8.1      1.556      2.679
REMARK  Name = 
REMARK  5 active torsions:
REMARK  status: ('A' for Active; 'I' for Inactive)
REMARK    1  A    between atoms: C_2  and  C_3
REMARK    2  A    between atoms: C_7  and  S_8
REMARK    3  A    between atoms: S_8  and  N_11
REMARK    4  A    between atoms: C_26  and  C_27
REMARK    5  A    between atoms: C_27  and  O_28
REMARK                            x       y       z     vdW  Elec       q    Type
REMARK                         _______ _______ _______ _____ _____    ______ ____
ROOT
ATOM      1  C   UNL     1       2.475   6.587  19.580  0.00  0.00    +0.000 A 
ATOM      2  C   UNL     1       2.754   6.990  18.278  0.00  0.00    +0.000 A 
ATOM      3  C   UNL     1       2.471   8.273  17.805  0.00  0.00    +0.000 A 
ATOM      4  C   UNL     1       1.751   9.152  18.607  0.00  0.00    +0.000 A 
ATOM      5  C   UNL     1       1.342   8.723  19.871  0.00  0.00    +0.000 A 
ATOM      6  C   UNL     1       1.757   7.483  20.383  0.00  0.00    +0.000 A 
ENDROOT
BRANCH   1   8
ATOM      7  O   UNL     1       2.332   5.026  21.282  0.00  0.00    +0.000 OA
ATOM      8  C   UNL     1       2.702   5.205  20.115  0.00  0.00    +0.000 C 
ATOM      9  N   UNL     1       3.280   4.166  19.373  0.00  0.00    +0.000 N 
ATOM     10  C   UNL     1       3.744   4.229  17.988  0.00  0.00    +0.000 C 
ATOM     11  C   UNL     1       2.738   3.530  17.064  0.00  0.00    +0.000 C 
ATOM     12  C   UNL     1       2.416   2.108  17.534  0.00  0.00    +0.000 C 
ATOM     13  C   UNL     1       2.058   2.067  19.023  0.00  0.00    +0.000 C 
ATOM     14  C   UNL     1       3.110   2.779  19.891  0.00  0.00    +0.000 C 
BRANCH  14  15
ATOM     15  C   UNL     1       4.435   1.980  19.941  0.00  0.00    +0.000 C 
BRANCH  15  16
ATOM     16  O   UNL     1       4.997   1.986  21.248  0.00  0.00    +0.000 OA
ATOM     17  H   UNL     1       5.615   2.738  21.283  0.00  0.00    +0.000 HD
ENDBRANCH  15  16
ENDBRANCH  14  15
ENDBRANCH   1   8
BRANCH   5  18
ATOM     18  S   UNL     1       0.348   9.801  20.870  0.00  0.00    +0.000 S 
ATOM     19  O   UNL     1      -0.750   8.994  21.374  0.00  0.00    +0.000 OA
ATOM     20  O   UNL     1       1.231  10.481  21.796  0.00  0.00    +0.000 OA
BRANCH  18  21
ATOM     21  N   UNL     1      -0.291  10.920  19.798  0.00  0.00    +0.000 N 
ATOM     22  C   UNL     1      -0.597  12.306  20.283  0.00  0.00    +0.000 C 
ATOM     23  C   UNL     1      -0.999  13.011  18.987  0.00  0.00    +0.000 C 
ATOM     24  C   UNL     1      -1.837  11.900  18.424  0.00  0.00    +0.000 A 
ATOM     25  C   UNL     1      -3.019  11.994  17.723  0.00  0.00    +0.000 A 
ATOM     26  C   UNL     1      -3.656  10.802  17.380  0.00  0.00    +0.000 A 
ATOM     27  C   UNL     1      -3.049   9.561  17.651  0.00  0.00    +0.000 A 
ATOM     28  C   UNL     1      -1.846   9.480  18.366  0.00  0.00    +0.000 A 
ATOM     29  C   UNL     1      -1.317  10.660  18.836  0.00  0.00    +0.000 A 
ENDBRANCH  18  21
ENDBRANCH   5  18
TORSDOF 5
ENDMDL
MODEL 7
REMARK VINA RESULT:      -7.9      1.980      2.984
REMARK  Name = 
REMARK  5 active torsions:
REMARK  status: ('A' for Active; 'I' for Inactive)
REMARK    1  A    between atoms: C_2  and  C_3
REMARK    2  A    between atoms: C_7  and  S_8
REMARK    3  A    between atoms: S_8  and  N_11
REMARK    4  A    between atoms: C_26  and  C_27
REMARK    5  A    between atoms: C_27  and  O_28
REMARK                            x       y       z     vdW  Elec       q    Type
REMARK                         _______ _______ _______ _____ _____    ______ ____
ROOT
ATOM      1  C   UNL     1       2.368   7.145  18.546  0.00  0.00    +0.000 A 
ATOM      2  C   UNL     1       2.568   8.134  17.587  0.00  0.00    +0.000 A 
ATOM      3  C   UNL     1       2.318   9.486  17.830  0.00  0.00    +0.000 A 
ATOM      4  C   UNL     1       1.708   9.863  19.022  0.00  0.00    +0.000 A 
ATOM      5  C   UNL     1       1.374   8.872  19.946  0.00  0.00    +0.000 A 
ATOM      6  C   UNL     1       1.761   7.537  19.746  0.00  0.00    +0.000 A 
ENDROOT
BRANCH   1   8
ATOM      7  O   UNL     1       1.602   5.094  17.797  0.00  0.00    +0.000 OA
ATOM      8  C   UNL     1       2.563   5.676  18.314  0.00  0.00    +0.000 C 
ATOM      9  N   UNL     1       3.738   4.985  18.639  0.00  0.00    +0.000 N 
ATOM     10  C   UNL     1       4.951   5.545  19.233  0.00  0.00    +0.000 C 
ATOM     11  C   UNL     1       6.040   5.692  18.162  0.00  0.00    +0.000 C 
ATOM     12  C   UNL     1       6.282   4.384  17.403  0.00  0.00    +0.000 C 
ATOM     13  C   UNL     1       4.972   3.762  16.907  0.00  0.00    +0.000 C 
ATOM     14  C   UNL     1       3.928   3.638  18.030  0.00  0.00    +0.000 C 
BRANCH  14  15
ATOM     15  C   UNL     1       4.333   2.554  19.059  0.00  0.00    +0.000 C 
BRANCH  15  16
ATOM     16  O   UNL     1       4.113   1.245  18.546  0.00  0.00    +0.000 OA
ATOM     17  H   UNL     1       4.306   1.283  17.592  0.00  0.00    +0.000 HD
ENDBRANCH  15  16
ENDBRANCH  14  15
ENDBRANCH   1   8
BRANCH   5  18
ATOM     18  S   UNL     1       0.516   9.329  21.431  0.00  0.00    +0.000 S 
ATOM     19  O   UNL     1      -0.512   8.323  21.634  0.00  0.00    +0.000 OA
ATOM     20  O   UNL     1       1.511   9.564  22.458  0.00  0.00    +0.000 OA
BRANCH  18  21
ATOM     21  N   UNL     1      -0.248  10.774  21.064  0.00  0.00    +0.000 N 
ATOM     22  C   UNL     1      -0.812  11.606  22.177  0.00  0.00    +0.000 C 
ATOM     23  C   UNL     1      -1.261  12.865  21.432  0.00  0.00    +0.000 C 
ATOM     24  C   UNL     1      -1.865  12.172  20.245  0.00  0.00    +0.000 A 
ATOM     25  C   UNL     1      -3.007  12.507  19.551  0.00  0.00    +0.000 A 
ATOM     26  C   UNL     1      -3.411  11.647  18.530  0.00  0.00    +0.000 A 
ATOM     27  C   UNL     1      -2.614  10.546  18.164  0.00  0.00    +0.000 A 
ATOM     28  C   UNL     1      -1.455  10.216  18.878  0.00  0.00    +0.000 A 
ATOM     29  C   UNL     1      -1.162  10.982  19.984  0.00  0.00    +0.000 A 
ENDBRANCH  18  21
ENDBRANCH   5  18
TORSDOF 5
ENDMDL
MODEL 8
REMARK VINA RESULT:      -7.9      2.412      3.542
REMARK  Name = 
REMARK  5 active torsions:
REMARK  status: ('A' for Active; 'I' for Inactive)
REMARK    1  A    between atoms: C_2  and  C_3
REMARK    2  A    between atoms: C_7  and  S_8
REMARK    3  A    between atoms: S_8  and  N_11
REMARK    4  A    between atoms: C_26  and  C_27
REMARK    5  A    between atoms: C_27  and  O_28
REMARK                            x       y       z     vdW  Elec       q    Type
REMARK                         _______ _______ _______ _____ _____    ______ ____
ROOT
ATOM      1  C   UNL     1       2.483   7.477  18.863  0.00  0.00    +0.000 A 
ATOM      2  C   UNL     1       2.013   8.081  17.701  0.00  0.00    +0.000 A 
ATOM      3  C   UNL     1       1.235   9.240  17.711  0.00  0.00    +0.000 A 
ATOM      4  C   UNL     1       0.779   9.746  18.924  0.00  0.00    +0.000 A 
ATOM      5  C   UNL     1       1.127   9.079  20.100  0.00  0.00    +0.000 A 
ATOM      6  C   UNL     1       2.026   8.000  20.081  0.00  0.00    +0.000 A 
ENDROOT
BRANCH   1   8
ATOM      7  O   UNL     1       2.762   5.296  19.584  0.00  0.00    +0.000 OA
ATOM      8  C   UNL     1       3.268   6.200  18.908  0.00  0.00    +0.000 C 
ATOM      9  N   UNL     1       4.482   6.008  18.236  0.00  0.00    +0.000 N 
ATOM     10  C   UNL     1       5.182   6.975  17.392  0.00  0.00    +0.000 C 
ATOM     11  C   UNL     1       4.991   6.615  15.912  0.00  0.00    +0.000 C 
ATOM     12  C   UNL     1       5.374   5.162  15.618  0.00  0.00    +0.000 C 
ATOM     13  C   UNL     1       4.721   4.189  16.606  0.00  0.00    +0.000 C 
ATOM     14  C   UNL     1       4.956   4.605  18.069  0.00  0.00    +0.000 C 
BRANCH  14  15
ATOM     15  C   UNL     1       6.435   4.406  18.480  0.00  0.00    +0.000 C 
BRANCH  15  16
ATOM     16  O   UNL     1       6.710   5.017  19.736  0.00  0.00    +0.000 OA
ATOM     17  H   UNL     1       7.620   4.764  19.976  0.00  0.00    +0.000 HD
ENDBRANCH  15  16
ENDBRANCH  14  15
ENDBRANCH   1   8
BRANCH   5  18
ATOM     18  S   UNL     1       0.481   9.661  21.647  0.00  0.00    +0.000 S 
ATOM     19  O   UNL     1      -0.719   8.884  21.906  0.00  0.00    +0.000 OA
ATOM     20  O   UNL     1       1.567   9.656  22.606  0.00  0.00    +0.000 OA
BRANCH  18  21
ATOM     21  N   UNL     1       0.012  11.242  21.354  0.00  0.00    +0.000 N 
ATOM     22  C   UNL     1       1.060  12.272  21.053  0.00  0.00    +0.000 C 
ATOM     23  C   UNL     1       0.209  13.495  20.708  0.00  0.00    +0.000 C 
ATOM     24  C   UNL     1      -0.801  13.333  21.807  0.00  0.00    +0.000 A 
ATOM     25  C   UNL     1      -1.403  14.314  22.564  0.00  0.00    +0.000 A 
ATOM     26  C   UNL     1      -2.250  13.899  23.591  0.00  0.00    +0.000 A 
ATOM     27  C   UNL     1      -2.553  12.536  23.764  0.00  0.00    +0.000 A 
ATOM     28  C   UNL     1      -1.933  11.548  22.987  0.00  0.00    +0.000 A 
ATOM     29  C   UNL     1      -0.978  11.967  22.089  0.00  0.00    +0.000 A 
ENDBRANCH  18  21
ENDBRANCH   5  18
TORSDOF 5
ENDMDL
MODEL 9
REMARK VINA RESULT:      -7.8      3.259      7.977
REMARK  Name = 
REMARK  5 active torsions:
REMARK  status: ('A' for Active; 'I' for Inactive)
REMARK    1  A    between atoms: C_2  and  C_3
REMARK    2  A    between atoms: C_7  and  S_8
REMARK    3  A    between atoms: S_8  and  N_11
REMARK    4  A    between atoms: C_26  and  C_27
REMARK    5  A    between atoms: C_27  and  O_28
REMARK                            x       y       z     vdW  Elec       q    Type
REMARK                         _______ _______ _______ _____ _____    ______ ____
ROOT
ATOM      1  C   UNL     1       2.373   6.613  19.508  0.00  0.00    +0.000 A 
ATOM      2  C   UNL     1       1.516   6.247  20.542  0.00  0.00    +0.000 A 
ATOM      3  C   UNL     1       1.632   5.035  21.227  0.00  0.00    +0.000 A 
ATOM      4  C   UNL     1       2.541   4.082  20.780  0.00  0.00    +0.000 A 
ATOM      5  C   UNL     1       3.320   4.374  19.659  0.00  0.00    +0.000 A 
ATOM      6  C   UNL     1       3.291   5.649  19.071  0.00  0.00    +0.000 A 
ENDROOT
BRANCH   1   8
ATOM      7  O   UNL     1       2.632   7.782  17.528  0.00  0.00    +0.000 OA
ATOM      8  C   UNL     1       2.252   7.872  18.702  0.00  0.00    +0.000 C 
ATOM      9  N   UNL     1       1.741   9.075  19.206  0.00  0.00    +0.000 N 
ATOM     10  C   UNL     1       1.241   9.318  20.559  0.00  0.00    +0.000 C 
ATOM     11  C   UNL     1      -0.293   9.360  20.552  0.00  0.00    +0.000 C 
ATOM     12  C   UNL     1      -0.838  10.347  19.515  0.00  0.00    +0.000 C 
ATOM     13  C   UNL     1      -0.194  10.141  18.140  0.00  0.00    +0.000 C 
ATOM     14  C   UNL     1       1.342  10.116  18.218  0.00  0.00    +0.000 C 
BRANCH  14  15
ATOM     15  C   UNL     1       1.913  11.518  18.543  0.00  0.00    +0.000 C 
BRANCH  15  16
ATOM     16  O   UNL     1       2.514  12.112  17.398  0.00  0.00    +0.000 OA
ATOM     17  H   UNL     1       2.800  11.380  16.822  0.00  0.00    +0.000 HD
ENDBRANCH  15  16
ENDBRANCH  14  15
ENDBRANCH   1   8
BRANCH   5  18
ATOM     18  S   UNL     1       4.420   3.135  19.025  0.00  0.00    +0.000 S 
ATOM     19  O   UNL     1       4.854   2.350  20.168  0.00  0.00    +0.000 OA
ATOM     20  O   UNL     1       3.756   2.485  17.912  0.00  0.00    +0.000 OA
BRANCH  18  21
ATOM     21  N   UNL     1       5.747   3.983  18.455  0.00  0.00    +0.000 N 
ATOM     22  C   UNL     1       6.162   5.246  19.149  0.00  0.00    +0.000 C 
ATOM     23  C   UNL     1       7.462   5.592  18.422  0.00  0.00    +0.000 C 
ATOM     24  C   UNL     1       6.987   5.280  17.033  0.00  0.00    +0.000 A 
ATOM     25  C   UNL     1       7.270   5.949  15.863  0.00  0.00    +0.000 A 
ATOM     26  C   UNL     1       6.631   5.511  14.704  0.00  0.00    +0.000 A 
ATOM     27  C   UNL     1       5.818   4.362  14.725  0.00  0.00    +0.000 A 
ATOM     28  C   UNL     1       5.537   3.690  15.922  0.00  0.00    +0.000 A 
ATOM     29  C   UNL     1       6.046   4.235  17.079  0.00  0.00    +0.000 A 
ENDBRANCH  18  21
ENDBRANCH   5  18
TORSDOF 5
ENDMDL
