MODEL 1
REMARK VINA RESULT:      -9.0      0.000      0.000
REMARK  Name = 
REMARK  6 active torsions:
REMARK  status: ('A' for Active; 'I' for Inactive)
REMARK    1  A    between atoms: C_1  and  C_2
REMARK    2  A    between atoms: C_6  and  C_7
REMARK    3  A    between atoms: C_8  and  N_9
REMARK    4  A    between atoms: C_10  and  C_12
REMARK    5  A    between atoms: C_17  and  C_18
REMARK    6  A    between atoms: C_21  and  C_22
REMARK                            x       y       z     vdW  Elec       q    Type
REMARK                         _______ _______ _______ _____ _____    ______ ____
ROOT
ATOM      1  C   UNL     1      -0.246  11.051  18.779  0.00  0.00    +0.000 A 
ATOM      2  C   UNL     1       0.634  10.347  19.521  0.00  0.00    +0.000 A 
ATOM      3  O   UNL     1       0.875  10.693  20.850  0.00  0.00    +0.000 OA
ATOM      4  C   UNL     1      -0.197  11.308  21.472  0.00  0.00    +0.000 A 
ATOM      5  C   UNL     1      -0.688  10.828  22.683  0.00  0.00    +0.000 A 
ATOM      6  C   UNL     1      -0.163   9.566  23.296  0.00  0.00    +0.000 C 
ATOM      7  C   UNL     1      -1.804  11.470  23.254  0.00  0.00    +0.000 A 
ATOM      8  C   UNL     1      -2.435  12.541  22.607  0.00  0.00    +0.000 A 
ATOM      9  C   UNL     1      -1.988  12.962  21.358  0.00  0.00    +0.000 A 
ATOM     10  C   UNL     1      -0.883  12.316  20.800  0.00  0.00    +0.000 A 
ATOM     11  C   UNL     1      -0.608  12.393  19.361  0.00  0.00    +0.000 A 
ATOM     12  O   UNL     1      -0.832  13.385  18.681  0.00  0.00    +0.000 OA
ENDROOT
BRANCH   1  18
ATOM     13  C   UNL     1      -5.131  11.197  18.295  0.00  0.00    +0.000 C 
ATOM     14  C   UNL     1      -3.810  10.682  17.802  0.00  0.00    +0.000 A 
ATOM     15  C   UNL     1      -3.647  10.232  16.492  0.00  0.00    +0.000 A 
ATOM     16  C   UNL     1      -2.403   9.768  16.048  0.00  0.00    +0.000 A 
ATOM     17  C   UNL     1      -1.286   9.818  16.882  0.00  0.00    +0.000 A 
ATOM     18  C   UNL     1      -1.410  10.350  18.163  0.00  0.00    +0.000 A 
ATOM     19  C   UNL     1      -2.695  10.698  18.645  0.00  0.00    +0.000 A 
ENDBRANCH   1  18
BRANCH   2  20
ATOM     20  N   UNL     1       1.202   9.171  19.066  0.00  0.00    +0.000 N 
ATOM     21  C   UNL     1       1.742   8.154  19.835  0.00  0.00    +0.000 C 
ATOM     22  O   UNL     1       1.787   8.148  21.060  0.00  0.00    +0.000 OA
ATOM     23  H   UNL     1       1.349   9.128  18.069  0.00  0.00    +0.000 HD
BRANCH  21  24
ATOM     24  C   UNL     1       2.366   7.003  19.097  0.00  0.00    +0.000 A 
ATOM     25  C   UNL     1       3.209   7.362  18.024  0.00  0.00    +0.000 A 
ATOM     26  C   UNL     1       3.873   6.395  17.267  0.00  0.00    +0.000 A 
ATOM     27  C   UNL     1       3.702   5.051  17.568  0.00  0.00    +0.000 A 
ATOM     28  C   UNL     1       2.884   4.677  18.637  0.00  0.00    +0.000 A 
ATOM     29  C   UNL     1       2.217   5.637  19.426  0.00  0.00    +0.000 A 
ATOM     30  C   UNL     1       1.444   5.127  20.612  0.00  0.00    +0.000 C 
ENDBRANCH  21  24
ENDBRANCH   2  20
TORSDOF 3
ENDMDL
MODEL 2
REMARK VINA RESULT:      -8.8      2.954      8.482
REMARK  Name = 
REMARK  6 active torsions:
REMARK  status: ('A' for Active; 'I' for Inactive)
REMARK    1  A    between atoms: C_1  and  C_2
REMARK    2  A    between atoms: C_6  and  C_7
REMARK    3  A    between atoms: C_8  and  N_9
REMARK    4  A    between atoms: C_10  and  C_12
REMARK    5  A    between atoms: C_17  and  C_18
REMARK    6  A    between atoms: C_21  and  C_22
REMARK                            x       y       z     vdW  Elec       q    Type
REMARK                         _______ _______ _______ _____ _____    ______ ____
ROOT
ATOM      1  C   UNL     1       3.831   5.667  17.397  0.00  0.00    +0.000 A 
ATOM      2  C   UNL     1       2.638   5.890  17.985  0.00  0.00    +0.000 A 
ATOM      3  O   UNL     1       1.924   4.838  18.558  0.00  0.00    +0.000 OA
ATOM      4  C   UNL     1       2.720   3.802  19.012  0.00  0.00    +0.000 A 
ATOM      5  C   UNL     1       2.602   3.334  20.318  0.00  0.00    +0.000 A 
ATOM      6  C   UNL     1       1.706   4.005  21.313  0.00  0.00    +0.000 C 
ATOM      7  C   UNL     1       3.463   2.302  20.739  0.00  0.00    +0.000 A 
ATOM      8  C   UNL     1       4.443   1.780  19.885  0.00  0.00    +0.000 A 
ATOM      9  C   UNL     1       4.609   2.310  18.608  0.00  0.00    +0.000 A 
ATOM     10  C   UNL     1       3.752   3.334  18.203  0.00  0.00    +0.000 A 
ATOM     11  C   UNL     1       4.103   4.217  17.085  0.00  0.00    +0.000 A 
ATOM     12  O   UNL     1       4.719   3.845  16.096  0.00  0.00    +0.000 OA
ENDROOT
BRANCH   1  18
ATOM     13  C   UNL     1       7.962   5.136  20.000  0.00  0.00    +0.000 C 
ATOM     14  C   UNL     1       7.173   5.926  18.998  0.00  0.00    +0.000 A 
ATOM     15  C   UNL     1       7.797   6.787  18.095  0.00  0.00    +0.000 A 
ATOM     16  C   UNL     1       7.044   7.505  17.159  0.00  0.00    +0.000 A 
ATOM     17  C   UNL     1       5.665   7.316  17.058  0.00  0.00    +0.000 A 
ATOM     18  C   UNL     1       5.038   6.392  17.890  0.00  0.00    +0.000 A 
ATOM     19  C   UNL     1       5.786   5.767  18.917  0.00  0.00    +0.000 A 
ENDBRANCH   1  18
BRANCH   2  20
ATOM     20  N   UNL     1       2.151   7.167  18.195  0.00  0.00    +0.000 N 
ATOM     21  C   UNL     1       1.994   7.809  19.412  0.00  0.00    +0.000 C 
ATOM     22  O   UNL     1       2.278   7.326  20.503  0.00  0.00    +0.000 OA
ATOM     23  H   UNL     1       1.753   7.609  17.381  0.00  0.00    +0.000 HD
BRANCH  21  24
ATOM     24  C   UNL     1       1.375   9.178  19.382  0.00  0.00    +0.000 A 
ATOM     25  C   UNL     1       1.804  10.009  18.325  0.00  0.00    +0.000 A 
ATOM     26  C   UNL     1       1.294  11.299  18.162  0.00  0.00    +0.000 A 
ATOM     27  C   UNL     1       0.348  11.781  19.056  0.00  0.00    +0.000 A 
ATOM     28  C   UNL     1      -0.101  10.966  20.098  0.00  0.00    +0.000 A 
ATOM     29  C   UNL     1       0.387   9.656  20.273  0.00  0.00    +0.000 A 
ATOM     30  C   UNL     1      -0.240   8.833  21.366  0.00  0.00    +0.000 C 
ENDBRANCH  21  24
ENDBRANCH   2  20
TORSDOF 3
ENDMDL
MODEL 3
REMARK VINA RESULT:      -8.8      0.682      1.439
REMARK  Name = 
REMARK  6 active torsions:
REMARK  status: ('A' for Active; 'I' for Inactive)
REMARK    1  A    between atoms: C_1  and  C_2
REMARK    2  A    between atoms: C_6  and  C_7
REMARK    3  A    between atoms: C_8  and  N_9
REMARK    4  A    between atoms: C_10  and  C_12
REMARK    5  A    between atoms: C_17  and  C_18
REMARK    6  A    between atoms: C_21  and  C_22
REMARK                            x       y       z     vdW  Elec       q    Type
REMARK                         _______ _______ _______ _____ _____    ______ ____
ROOT
ATOM      1  C   UNL     1      -0.333  11.256  18.846  0.00  0.00    +0.000 A 
ATOM      2  C   UNL     1       0.409  10.561  19.732  0.00  0.00    +0.000 A 
ATOM      3  O   UNL     1       0.575  11.027  21.036  0.00  0.00    +0.000 OA
ATOM      4  C   UNL     1      -0.478  11.799  21.492  0.00  0.00    +0.000 A 
ATOM      5  C   UNL     1      -1.110  11.499  22.696  0.00  0.00    +0.000 A 
ATOM      6  C   UNL     1      -0.764  10.269  23.478  0.00  0.00    +0.000 C 
ATOM      7  C   UNL     1      -2.200  12.296  23.096  0.00  0.00    +0.000 A 
ATOM      8  C   UNL     1      -2.669  13.343  22.290  0.00  0.00    +0.000 A 
ATOM      9  C   UNL     1      -2.082  13.584  21.050  0.00  0.00    +0.000 A 
ATOM     10  C   UNL     1      -1.005  12.786  20.664  0.00  0.00    +0.000 A 
ATOM     11  C   UNL     1      -0.608  12.681  19.255  0.00  0.00    +0.000 A 
ATOM     12  O   UNL     1      -0.677  13.609  18.462  0.00  0.00    +0.000 OA
ENDROOT
BRANCH   1  18
ATOM     13  C   UNL     1      -5.097  11.840  17.800  0.00  0.00    +0.000 C 
ATOM     14  C   UNL     1      -3.805  11.125  17.531  0.00  0.00    +0.000 A 
ATOM     15  C   UNL     1      -3.570  10.477  16.318  0.00  0.00    +0.000 A 
ATOM     16  C   UNL     1      -2.353   9.827  16.082  0.00  0.00    +0.000 A 
ATOM     17  C   UNL     1      -1.323   9.880  17.022  0.00  0.00    +0.000 A 
ATOM     18  C   UNL     1      -1.507  10.600  18.200  0.00  0.00    +0.000 A 
ATOM     19  C   UNL     1      -2.783  11.145  18.485  0.00  0.00    +0.000 A 
ENDBRANCH   1  18
BRANCH   2  20
ATOM     20  N   UNL     1       0.894   9.297  19.450  0.00  0.00    +0.000 N 
ATOM     21  C   UNL     1       1.426   8.389  20.351  0.00  0.00    +0.000 C 
ATOM     22  O   UNL     1       1.539   8.580  21.557  0.00  0.00    +0.000 OA
ATOM     23  H   UNL     1       0.983   9.084  18.468  0.00  0.00    +0.000 HD
BRANCH  21  24
ATOM     24  C   UNL     1       1.952   7.100  19.784  0.00  0.00    +0.000 A 
ATOM     25  C   UNL     1       1.675   5.949  20.552  0.00  0.00    +0.000 A 
ATOM     26  C   UNL     1       2.085   4.681  20.133  0.00  0.00    +0.000 A 
ATOM     27  C   UNL     1       2.780   4.543  18.939  0.00  0.00    +0.000 A 
ATOM     28  C   UNL     1       3.048   5.670  18.158  0.00  0.00    +0.000 A 
ATOM     29  C   UNL     1       2.631   6.958  18.553  0.00  0.00    +0.000 A 
ATOM     30  C   UNL     1       2.884   8.083  17.587  0.00  0.00    +0.000 C 
ENDBRANCH  21  24
ENDBRANCH   2  20
TORSDOF 3
ENDMDL
MODEL 4
REMARK VINA RESULT:      -8.4      1.004      1.602
REMARK  Name = 
REMARK  6 active torsions:
REMARK  status: ('A' for Active; 'I' for Inactive)
REMARK    1  A    between atoms: C_1  and  C_2
REMARK    2  A    between atoms: C_6  and  C_7
REMARK    3  A    between atoms: C_8  and  N_9
REMARK    4  A    between atoms: C_10  and  C_12
REMARK    5  A    between atoms: C_17  and  C_18
REMARK    6  A    between atoms: C_21  and  C_22
REMARK                            x       y       z     vdW  Elec       q    Type
REMARK                         _______ _______ _______ _____ _____    ______ ____
ROOT
ATOM      1  C   UNL     1       0.035  10.715  18.720  0.00  0.00    +0.000 A 
ATOM      2  C   UNL     1       0.819  10.001  19.555  0.00  0.00    +0.000 A 
ATOM      3  O   UNL     1       1.030  10.427  20.865  0.00  0.00    +0.000 OA
ATOM      4  C   UNL     1      -0.012  11.172  21.386  0.00  0.00    +0.000 A 
ATOM      5  C   UNL     1      -0.595  10.828  22.603  0.00  0.00    +0.000 A 
ATOM      6  C   UNL     1      -0.205   9.578  23.331  0.00  0.00    +0.000 C 
ATOM      7  C   UNL     1      -1.677  11.599  23.070  0.00  0.00    +0.000 A 
ATOM      8  C   UNL     1      -2.187  12.665  22.317  0.00  0.00    +0.000 A 
ATOM      9  C   UNL     1      -1.651  12.952  21.064  0.00  0.00    +0.000 A 
ATOM     10  C   UNL     1      -0.582  12.179  20.610  0.00  0.00    +0.000 A 
ATOM     11  C   UNL     1      -0.238  12.123  19.185  0.00  0.00    +0.000 A 
ATOM     12  O   UNL     1      -0.348  13.075  18.425  0.00  0.00    +0.000 OA
ENDROOT
BRANCH   1  18
ATOM     13  C   UNL     1      -4.850  11.013  18.303  0.00  0.00    +0.000 C 
ATOM     14  C   UNL     1      -3.550  10.475  17.779  0.00  0.00    +0.000 A 
ATOM     15  C   UNL     1      -3.415  10.059  16.454  0.00  0.00    +0.000 A 
ATOM     16  C   UNL     1      -2.191   9.573  15.981  0.00  0.00    +0.000 A 
ATOM     17  C   UNL     1      -1.062   9.568  16.802  0.00  0.00    +0.000 A 
ATOM     18  C   UNL     1      -1.156  10.066  18.099  0.00  0.00    +0.000 A 
ATOM     19  C   UNL     1      -2.425  10.435  18.608  0.00  0.00    +0.000 A 
ENDBRANCH   1  18
BRANCH   2  20
ATOM     20  N   UNL     1       1.306   8.752  19.214  0.00  0.00    +0.000 N 
ATOM     21  C   UNL     1       2.189   8.453  18.191  0.00  0.00    +0.000 C 
ATOM     22  O   UNL     1       2.683   9.275  17.426  0.00  0.00    +0.000 OA
ATOM     23  H   UNL     1       0.860   7.979  19.685  0.00  0.00    +0.000 HD
BRANCH  21  24
ATOM     24  C   UNL     1       2.515   7.002  17.978  0.00  0.00    +0.000 A 
ATOM     25  C   UNL     1       1.427   6.114  18.123  0.00  0.00    +0.000 A 
ATOM     26  C   UNL     1       1.582   4.739  17.931  0.00  0.00    +0.000 A 
ATOM     27  C   UNL     1       2.827   4.228  17.592  0.00  0.00    +0.000 A 
ATOM     28  C   UNL     1       3.911   5.095  17.427  0.00  0.00    +0.000 A 
ATOM     29  C   UNL     1       3.775   6.487  17.600  0.00  0.00    +0.000 A 
ATOM     30  C   UNL     1       4.983   7.333  17.298  0.00  0.00    +0.000 C 
ENDBRANCH  21  24
ENDBRANCH   2  20
TORSDOF 3
ENDMDL
MODEL 5
REMARK VINA RESULT:      -8.3      2.931      8.562
REMARK  Name = 
REMARK  6 active torsions:
REMARK  status: ('A' for Active; 'I' for Inactive)
REMARK    1  A    between atoms: C_1  and  C_2
REMARK    2  A    between atoms: C_6  and  C_7
REMARK    3  A    between atoms: C_8  and  N_9
REMARK    4  A    between atoms: C_10  and  C_12
REMARK    5  A    between atoms: C_17  and  C_18
REMARK    6  A    between atoms: C_21  and  C_22
REMARK                            x       y       z     vdW  Elec       q    Type
REMARK                         _______ _______ _______ _____ _____    ______ ____
ROOT
ATOM      1  C   UNL     1       3.613   5.521  17.564  0.00  0.00    +0.000 A 
ATOM      2  C   UNL     1       2.470   5.689  18.261  0.00  0.00    +0.000 A 
ATOM      3  O   UNL     1       1.854   4.604  18.882  0.00  0.00    +0.000 OA
ATOM      4  C   UNL     1       2.730   3.598  19.249  0.00  0.00    +0.000 A 
ATOM      5  C   UNL     1       2.750   3.113  20.554  0.00  0.00    +0.000 A 
ATOM      6  C   UNL     1       1.921   3.738  21.634  0.00  0.00    +0.000 C 
ATOM      7  C   UNL     1       3.686   2.114  20.882  0.00  0.00    +0.000 A 
ATOM      8  C   UNL     1       4.605   1.641  19.936  0.00  0.00    +0.000 A 
ATOM      9  C   UNL     1       4.632   2.189  18.656  0.00  0.00    +0.000 A 
ATOM     10  C   UNL     1       3.702   3.181  18.344  0.00  0.00    +0.000 A 
ATOM     11  C   UNL     1       3.914   4.087  17.210  0.00  0.00    +0.000 A 
ATOM     12  O   UNL     1       4.451   3.750  16.164  0.00  0.00    +0.000 OA
ENDROOT
BRANCH   1  18
ATOM     13  C   UNL     1       7.904   5.182  19.929  0.00  0.00    +0.000 C 
ATOM     14  C   UNL     1       7.037   5.916  18.948  0.00  0.00    +0.000 A 
ATOM     15  C   UNL     1       7.585   6.755  17.977  0.00  0.00    +0.000 A 
ATOM     16  C   UNL     1       6.760   7.419  17.062  0.00  0.00    +0.000 A 
ATOM     17  C   UNL     1       5.383   7.197  17.053  0.00  0.00    +0.000 A 
ATOM     18  C   UNL     1       4.829   6.292  17.955  0.00  0.00    +0.000 A 
ATOM     19  C   UNL     1       5.652   5.723  18.957  0.00  0.00    +0.000 A 
ENDBRANCH   1  18
BRANCH   2  20
ATOM     20  N   UNL     1       1.953   6.944  18.530  0.00  0.00    +0.000 N 
ATOM     21  C   UNL     1       1.850   7.553  19.769  0.00  0.00    +0.000 C 
ATOM     22  O   UNL     1       2.219   7.059  20.829  0.00  0.00    +0.000 OA
ATOM     23  H   UNL     1       1.489   7.388  17.753  0.00  0.00    +0.000 HD
BRANCH  21  24
ATOM     24  C   UNL     1       1.184   8.900  19.809  0.00  0.00    +0.000 A 
ATOM     25  C   UNL     1       0.376   9.138  20.942  0.00  0.00    +0.000 A 
ATOM     26  C   UNL     1      -0.284  10.355  21.121  0.00  0.00    +0.000 A 
ATOM     27  C   UNL     1      -0.151  11.355  20.167  0.00  0.00    +0.000 A 
ATOM     28  C   UNL     1       0.658  11.143  19.048  0.00  0.00    +0.000 A 
ATOM     29  C   UNL     1       1.347   9.929  18.855  0.00  0.00    +0.000 A 
ATOM     30  C   UNL     1       2.268   9.848  17.667  0.00  0.00    +0.000 C 
ENDBRANCH  21  24
ENDBRANCH   2  20
TORSDOF 3
ENDMDL
MODEL 6
REMARK VINA RESULT:      -8.3      3.455      7.717
REMARK  Name = 
REMARK  6 active torsions:
REMARK  status: ('A' for Active; 'I' for Inactive)
REMARK    1  A    between atoms: C_1  and  C_2
REMARK    2  A    between atoms: C_6  and  C_7
REMARK    3  A    between atoms: C_8  and  N_9
REMARK    4  A    between atoms: C_10  and  C_12
REMARK    5  A    between atoms: C_17  and  C_18
REMARK    6  A    between atoms: C_21  and  C_22
REMARK                            x       y       z     vdW  Elec       q    Type
REMARK                         _______ _______ _______ _____ _____    ______ ____
ROOT
ATOM      1  C   UNL     1       0.612  12.019  18.887  0.00  0.00    +0.000 A 
ATOM      2  C   UNL     1      -0.566  12.482  19.352  0.00  0.00    +0.000 A 
ATOM      3  O   UNL     1      -1.358  11.694  20.185  0.00  0.00    +0.000 OA
ATOM      4  C   UNL     1      -0.640  10.786  20.943  0.00  0.00    +0.000 A 
ATOM      5  C   UNL     1      -0.801  10.728  22.325  0.00  0.00    +0.000 A 
ATOM      6  C   UNL     1      -1.654  11.719  23.056  0.00  0.00    +0.000 C 
ATOM      7  C   UNL     1      -0.019   9.810  23.052  0.00  0.00    +0.000 A 
ATOM      8  C   UNL     1       0.927   8.997  22.414  0.00  0.00    +0.000 A 
ATOM      9  C   UNL     1       1.139   9.119  21.043  0.00  0.00    +0.000 A 
ATOM     10  C   UNL     1       0.361  10.034  20.334  0.00  0.00    +0.000 A 
ATOM     11  C   UNL     1       0.782  10.526  19.017  0.00  0.00    +0.000 A 
ATOM     12  O   UNL     1       1.376   9.841  18.197  0.00  0.00    +0.000 OA
ENDROOT
BRANCH   1  18
ATOM     13  C   UNL     1       3.349  15.832  17.439  0.00  0.00    +0.000 C 
ATOM     14  C   UNL     1       2.999  14.840  18.510  0.00  0.00    +0.000 A 
ATOM     15  C   UNL     1       3.277  15.091  19.854  0.00  0.00    +0.000 A 
ATOM     16  C   UNL     1       2.930  14.159  20.838  0.00  0.00    +0.000 A 
ATOM     17  C   UNL     1       2.231  12.998  20.506  0.00  0.00    +0.000 A 
ATOM     18  C   UNL     1       1.864  12.775  19.181  0.00  0.00    +0.000 A 
ATOM     19  C   UNL     1       2.330  13.658  18.177  0.00  0.00    +0.000 A 
ENDBRANCH   1  18
BRANCH   2  20
ATOM     20  N   UNL     1      -0.962  13.795  19.167  0.00  0.00    +0.000 N 
ATOM     21  C   UNL     1      -0.935  14.813  20.105  0.00  0.00    +0.000 C 
ATOM     22  O   UNL     1      -0.540  14.693  21.260  0.00  0.00    +0.000 OA
ATOM     23  H   UNL     1      -1.438  13.977  18.297  0.00  0.00    +0.000 HD
BRANCH  21  24
ATOM     24  C   UNL     1      -1.487  16.144  19.679  0.00  0.00    +0.000 A 
ATOM     25  C   UNL     1      -0.777  16.785  18.642  0.00  0.00    +0.000 A 
ATOM     26  C   UNL     1      -1.191  18.017  18.131  0.00  0.00    +0.000 A 
ATOM     27  C   UNL     1      -2.323  18.630  18.651  0.00  0.00    +0.000 A 
ATOM     28  C   UNL     1      -3.049  18.001  19.666  0.00  0.00    +0.000 A 
ATOM     29  C   UNL     1      -2.658  16.751  20.186  0.00  0.00    +0.000 A 
ATOM     30  C   UNL     1      -3.569  16.121  21.205  0.00  0.00    +0.000 C 
ENDBRANCH  21  24
ENDBRANCH   2  20
TORSDOF 3
ENDMDL
MODEL 7
REMARK VINA RESULT:      -8.3      3.495      7.797
REMARK  Name = 
REMARK  6 active torsions:
REMARK  status: ('A' for Active; 'I' for Inactive)
REMARK    1  A    between atoms: C_1  and  C_2
REMARK    2  A    between atoms: C_6  and  C_7
REMARK    3  A    between atoms: C_8  and  N_9
REMARK    4  A    between atoms: C_10  and  C_12
REMARK    5  A    between atoms: C_17  and  C_18
REMARK    6  A    between atoms: C_21  and  C_22
REMARK                            x       y       z     vdW  Elec       q    Type
REMARK                         _______ _______ _______ _____ _____    ______ ____
ROOT
ATOM      1  C   UNL     1       0.655  12.029  18.859  0.00  0.00    +0.000 A 
ATOM      2  C   UNL     1      -0.520  12.485  19.339  0.00  0.00    +0.000 A 
ATOM      3  O   UNL     1      -1.317  11.675  20.147  0.00  0.00    +0.000 OA
ATOM      4  C   UNL     1      -0.606  10.737  20.874  0.00  0.00    +0.000 A 
ATOM      5  C   UNL     1      -0.766  10.635  22.254  0.00  0.00    +0.000 A 
ATOM      6  C   UNL     1      -1.613  11.607  23.017  0.00  0.00    +0.000 C 
ATOM      7  C   UNL     1       0.009   9.688  22.949  0.00  0.00    +0.000 A 
ATOM      8  C   UNL     1       0.950   8.890  22.284  0.00  0.00    +0.000 A 
ATOM      9  C   UNL     1       1.163   9.056  20.918  0.00  0.00    +0.000 A 
ATOM     10  C   UNL     1       0.390  10.000  20.240  0.00  0.00    +0.000 A 
ATOM     11  C   UNL     1       0.815  10.532  18.940  0.00  0.00    +0.000 A 
ATOM     12  O   UNL     1       1.404   9.870  18.097  0.00  0.00    +0.000 OA
ENDROOT
BRANCH   1  18
ATOM     13  C   UNL     1       3.650  15.585  17.276  0.00  0.00    +0.000 C 
ATOM     14  C   UNL     1       3.180  14.715  18.405  0.00  0.00    +0.000 A 
ATOM     15  C   UNL     1       3.367  15.087  19.737  0.00  0.00    +0.000 A 
ATOM     16  C   UNL     1       2.908  14.267  20.775  0.00  0.00    +0.000 A 
ATOM     17  C   UNL     1       2.189  13.104  20.500  0.00  0.00    +0.000 A 
ATOM     18  C   UNL     1       1.913  12.766  19.177  0.00  0.00    +0.000 A 
ATOM     19  C   UNL     1       2.488  13.531  18.134  0.00  0.00    +0.000 A 
ENDBRANCH   1  18
BRANCH   2  20
ATOM     20  N   UNL     1      -0.907  13.806  19.198  0.00  0.00    +0.000 N 
ATOM     21  C   UNL     1      -0.963  14.767  20.193  0.00  0.00    +0.000 C 
ATOM     22  O   UNL     1      -0.664  14.582  21.368  0.00  0.00    +0.000 OA
ATOM     23  H   UNL     1      -1.310  14.037  18.304  0.00  0.00    +0.000 HD
BRANCH  21  24
ATOM     24  C   UNL     1      -1.486  16.120  19.799  0.00  0.00    +0.000 A 
ATOM     25  C   UNL     1      -2.655  16.533  20.473  0.00  0.00    +0.000 A 
ATOM     26  C   UNL     1      -3.236  17.778  20.223  0.00  0.00    +0.000 A 
ATOM     27  C   UNL     1      -2.659  18.631  19.291  0.00  0.00    +0.000 A 
ATOM     28  C   UNL     1      -1.492  18.246  18.627  0.00  0.00    +0.000 A 
ATOM     29  C   UNL     1      -0.879  17.001  18.875  0.00  0.00    +0.000 A 
ATOM     30  C   UNL     1       0.428  16.733  18.179  0.00  0.00    +0.000 C 
ENDBRANCH  21  24
ENDBRANCH   2  20
TORSDOF 3
ENDMDL
MODEL 8
REMARK VINA RESULT:      -8.2      0.950      1.007
REMARK  Name = 
REMARK  6 active torsions:
REMARK  status: ('A' for Active; 'I' for Inactive)
REMARK    1  A    between atoms: C_1  and  C_2
REMARK    2  A    between atoms: C_6  and  C_7
REMARK    3  A    between atoms: C_8  and  N_9
REMARK    4  A    between atoms: C_10  and  C_12
REMARK    5  A    between atoms: C_17  and  C_18
REMARK    6  A    between atoms: C_21  and  C_22
REMARK                            x       y       z     vdW  Elec       q    Type
REMARK                         _______ _______ _______ _____ _____    ______ ____
ROOT
ATOM      1  C   UNL     1      -0.292  11.105  18.744  0.00  0.00    +0.000 A 
ATOM      2  C   UNL     1       0.493  10.537  19.682  0.00  0.00    +0.000 A 
ATOM      3  O   UNL     1       0.574  11.082  20.963  0.00  0.00    +0.000 OA
ATOM      4  C   UNL     1      -0.566  11.761  21.355  0.00  0.00    +0.000 A 
ATOM      5  C   UNL     1      -1.197  11.457  22.558  0.00  0.00    +0.000 A 
ATOM      6  C   UNL     1      -0.746  10.311  23.411  0.00  0.00    +0.000 C 
ATOM      7  C   UNL     1      -2.374  12.154  22.891  0.00  0.00    +0.000 A 
ATOM      8  C   UNL     1      -2.926  13.105  22.021  0.00  0.00    +0.000 A 
ATOM      9  C   UNL     1      -2.333  13.344  20.784  0.00  0.00    +0.000 A 
ATOM     10  C   UNL     1      -1.169  12.644  20.464  0.00  0.00    +0.000 A 
ATOM     11  C   UNL     1      -0.724  12.512  19.072  0.00  0.00    +0.000 A 
ATOM     12  O   UNL     1      -0.867  13.386  18.229  0.00  0.00    +0.000 OA
ENDROOT
BRANCH   1  18
ATOM     13  C   UNL     1      -5.158  10.804  18.148  0.00  0.00    +0.000 C 
ATOM     14  C   UNL     1      -3.785  10.407  17.690  0.00  0.00    +0.000 A 
ATOM     15  C   UNL     1      -3.551   9.966  16.387  0.00  0.00    +0.000 A 
ATOM     16  C   UNL     1      -2.260   9.614  15.976  0.00  0.00    +0.000 A 
ATOM     17  C   UNL     1      -1.172   9.771  16.834  0.00  0.00    +0.000 A 
ATOM     18  C   UNL     1      -1.373  10.298  18.108  0.00  0.00    +0.000 A 
ATOM     19  C   UNL     1      -2.696  10.530  18.558  0.00  0.00    +0.000 A 
ENDBRANCH   1  18
BRANCH   2  20
ATOM     20  N   UNL     1       1.115   9.318  19.478  0.00  0.00    +0.000 N 
ATOM     21  C   UNL     1       2.057   9.015  18.510  0.00  0.00    +0.000 C 
ATOM     22  O   UNL     1       2.491   9.806  17.680  0.00  0.00    +0.000 OA
ATOM     23  H   UNL     1       0.733   8.552  20.012  0.00  0.00    +0.000 HD
BRANCH  21  24
ATOM     24  C   UNL     1       2.533   7.591  18.449  0.00  0.00    +0.000 A 
ATOM     25  C   UNL     1       3.380   7.286  17.362  0.00  0.00    +0.000 A 
ATOM     26  C   UNL     1       3.915   6.007  17.194  0.00  0.00    +0.000 A 
ATOM     27  C   UNL     1       3.610   5.009  18.111  0.00  0.00    +0.000 A 
ATOM     28  C   UNL     1       2.788   5.298  19.203  0.00  0.00    +0.000 A 
ATOM     29  C   UNL     1       2.250   6.586  19.401  0.00  0.00    +0.000 A 
ATOM     30  C   UNL     1       1.461   6.809  20.663  0.00  0.00    +0.000 C 
ENDBRANCH  21  24
ENDBRANCH   2  20
TORSDOF 3
ENDMDL
MODEL 9
REMARK VINA RESULT:      -8.1      2.780      8.443
REMARK  Name = 
REMARK  6 active torsions:
REMARK  status: ('A' for Active; 'I' for Inactive)
REMARK    1  A    between atoms: C_1  and  C_2
REMARK    2  A    between atoms: C_6  and  C_7
REMARK    3  A    between atoms: C_8  and  N_9
REMARK    4  A    between atoms: C_10  and  C_12
REMARK    5  A    between atoms: C_17  and  C_18
REMARK    6  A    between atoms: C_21  and  C_22
REMARK                            x       y       z     vdW  Elec       q    Type
REMARK                         _______ _______ _______ _____ _____    ______ ____
ROOT
ATOM      1  C   UNL     1       4.380   5.369  19.078  0.00  0.00    +0.000 A 
ATOM      2  C   UNL     1       4.117   6.580  18.545  0.00  0.00    +0.000 A 
ATOM      3  O   UNL     1       4.920   7.095  17.527  0.00  0.00    +0.000 OA
ATOM      4  C   UNL     1       5.521   6.126  16.744  0.00  0.00    +0.000 A 
ATOM      5  C   UNL     1       5.396   6.154  15.358  0.00  0.00    +0.000 A 
ATOM      6  C   UNL     1       4.514   7.150  14.670  0.00  0.00    +0.000 C 
ATOM      7  C   UNL     1       5.998   5.123  14.611  0.00  0.00    +0.000 A 
ATOM      8  C   UNL     1       6.675   4.069  15.242  0.00  0.00    +0.000 A 
ATOM      9  C   UNL     1       6.725   4.006  16.632  0.00  0.00    +0.000 A 
ATOM     10  C   UNL     1       6.122   5.032  17.361  0.00  0.00    +0.000 A 
ATOM     11  C   UNL     1       5.761   4.847  18.771  0.00  0.00    +0.000 A 
ATOM     12  O   UNL     1       6.419   4.181  19.557  0.00  0.00    +0.000 OA
ENDROOT
BRANCH   1  18
ATOM     13  C   UNL     1       1.314   2.737  21.869  0.00  0.00    +0.000 C 
ATOM     14  C   UNL     1       1.690   3.245  20.507  0.00  0.00    +0.000 A 
ATOM     15  C   UNL     1       0.751   3.333  19.479  0.00  0.00    +0.000 A 
ATOM     16  C   UNL     1       1.119   3.822  18.220  0.00  0.00    +0.000 A 
ATOM     17  C   UNL     1       2.409   4.302  17.992  0.00  0.00    +0.000 A 
ATOM     18  C   UNL     1       3.333   4.307  19.034  0.00  0.00    +0.000 A 
ATOM     19  C   UNL     1       2.991   3.694  20.264  0.00  0.00    +0.000 A 
ENDBRANCH   1  18
BRANCH   2  20
ATOM     20  N   UNL     1       2.967   7.284  18.854  0.00  0.00    +0.000 N 
ATOM     21  C   UNL     1       2.450   8.374  18.175  0.00  0.00    +0.000 C 
ATOM     22  O   UNL     1       2.947   8.879  17.174  0.00  0.00    +0.000 OA
ATOM     23  H   UNL     1       2.550   7.048  19.741  0.00  0.00    +0.000 HD
BRANCH  21  24
ATOM     24  C   UNL     1       1.218   9.011  18.753  0.00  0.00    +0.000 A 
ATOM     25  C   UNL     1       0.385   9.666  17.821  0.00  0.00    +0.000 A 
ATOM     26  C   UNL     1      -0.805  10.281  18.216  0.00  0.00    +0.000 A 
ATOM     27  C   UNL     1      -1.181  10.255  19.552  0.00  0.00    +0.000 A 
ATOM     28  C   UNL     1      -0.378   9.596  20.486  0.00  0.00    +0.000 A 
ATOM     29  C   UNL     1       0.819   8.954  20.108  0.00  0.00    +0.000 A 
ATOM     30  C   UNL     1       1.551   8.191  21.178  0.00  0.00    +0.000 C 
ENDBRANCH  21  24
ENDBRANCH   2  20
TORSDOF 3
ENDMDL
