MODEL 1
REMARK VINA RESULT:      -9.6      0.000      0.000
REMARK  Name = 
REMARK  6 active torsions:
REMARK  status: ('A' for Active; 'I' for Inactive)
REMARK    1  A    between atoms: C_1  and  C_2
REMARK    2  A    between atoms: C_5  and  C_6
REMARK    3  A    between atoms: C_9  and  C_10
REMARK    4  A    between atoms: C_10  and  C_11
REMARK    5  A    between atoms: C_10  and  N_12
REMARK    6  A    between atoms: N_12  and  C_13
REMARK                            x       y       z     vdW  Elec       q    Type
REMARK                         _______ _______ _______ _____ _____    ______ ____
ROOT
ATOM      1  C   UNL     1       7.527   5.799  18.028  0.00  0.00    +0.000 C 
ATOM      2  C   UNL     1       6.886   5.490  19.391  0.00  0.00    +0.000 C 
ENDROOT
BRANCH   1   6
ATOM      3  C   UNL     1       8.423   9.271  18.225  0.00  0.00    +0.000 A 
ATOM      4  N   UNL     1       7.526   9.332  17.226  0.00  0.00    +0.000 NA
ATOM      5  O   UNL     1       7.116   8.010  17.064  0.00  0.00    +0.000 OA
ATOM      6  C   UNL     1       7.811   7.277  17.979  0.00  0.00    +0.000 A 
ATOM      7  N   UNL     1       8.617   8.003  18.719  0.00  0.00    +0.000 NA
BRANCH   3  12
ATOM      8  C   UNL     1      11.270  13.816  20.369  0.00  0.00    +0.000 C 
ATOM      9  C   UNL     1      10.536  12.626  19.829  0.00  0.00    +0.000 A 
ATOM     10  C   UNL     1      10.031  11.639  20.677  0.00  0.00    +0.000 A 
ATOM     11  C   UNL     1       9.341  10.543  20.144  0.00  0.00    +0.000 A 
ATOM     12  C   UNL     1       9.148  10.416  18.761  0.00  0.00    +0.000 A 
ATOM     13  C   UNL     1       9.657  11.407  17.914  0.00  0.00    +0.000 A 
ATOM     14  C   UNL     1      10.341  12.495  18.451  0.00  0.00    +0.000 A 
ATOM     15  F   UNL     1      10.817  13.432  17.622  0.00  0.00    +0.000 F 
ENDBRANCH   3  12
ENDBRANCH   1   6
BRANCH   1  16
ATOM     16  N   UNL     1       6.651   5.353  16.924  0.00  0.00    +0.000 N 
ATOM     17  H   UNL     1       7.104   4.646  16.346  0.00  0.00    +0.000 HD
BRANCH  16  18
ATOM     18  C   UNL     1       5.300   5.073  17.121  0.00  0.00    +0.000 A 
ATOM     19  C   UNL     1       4.415   6.131  17.375  0.00  0.00    +0.000 A 
ATOM     20  C   UNL     1       3.076   5.901  17.710  0.00  0.00    +0.000 A 
ATOM     21  C   UNL     1       2.613   4.597  17.828  0.00  0.00    +0.000 A 
ATOM     22  C   UNL     1       3.467   3.511  17.592  0.00  0.00    +0.000 A 
ATOM     23  C   UNL     1       4.799   3.771  17.235  0.00  0.00    +0.000 A 
ATOM     24  C   UNL     1       3.020   2.082  17.790  0.00  0.00    +0.000 C 
ATOM     25  C   UNL     1       2.593   1.794  19.236  0.00  0.00    +0.000 C 
ATOM     26  C   UNL     1       1.212   2.349  19.588  0.00  0.00    +0.000 C 
ATOM     27  C   UNL     1       1.174   3.865  19.526  0.00  0.00    +0.000 C 
ATOM     28  O   UNL     1       1.111   4.569  20.531  0.00  0.00    +0.000 OA
ATOM     29  N   UNL     1       1.276   4.370  18.231  0.00  0.00    +0.000 N 
ATOM     30  H   UNL     1       0.866   3.687  17.599  0.00  0.00    +0.000 HD
ENDBRANCH  16  18
ENDBRANCH   1  16
TORSDOF 4
ENDMDL
MODEL 2
REMARK VINA RESULT:      -9.6      0.871      1.253
REMARK  Name = 
REMARK  6 active torsions:
REMARK  status: ('A' for Active; 'I' for Inactive)
REMARK    1  A    between atoms: C_1  and  C_2
REMARK    2  A    between atoms: C_5  and  C_6
REMARK    3  A    between atoms: C_9  and  C_10
REMARK    4  A    between atoms: C_10  and  C_11
REMARK    5  A    between atoms: C_10  and  N_12
REMARK    6  A    between atoms: N_12  and  C_13
REMARK                            x       y       z     vdW  Elec       q    Type
REMARK                         _______ _______ _______ _____ _____    ______ ____
ROOT
ATOM      1  C   UNL     1       7.535   5.825  18.075  0.00  0.00    +0.000 C 
ATOM      2  C   UNL     1       6.878   5.537  19.435  0.00  0.00    +0.000 C 
ENDROOT
BRANCH   1   6
ATOM      3  C   UNL     1       8.471   9.287  18.231  0.00  0.00    +0.000 A 
ATOM      4  N   UNL     1       7.547   9.354  17.257  0.00  0.00    +0.000 NA
ATOM      5  O   UNL     1       7.119   8.035  17.113  0.00  0.00    +0.000 OA
ATOM      6  C   UNL     1       7.832   7.299  18.011  0.00  0.00    +0.000 A 
ATOM      7  N   UNL     1       8.666   8.020  18.726  0.00  0.00    +0.000 NA
BRANCH   3  12
ATOM      8  C   UNL     1      11.471  13.797  20.239  0.00  0.00    +0.000 C 
ATOM      9  C   UNL     1      10.691  12.636  19.700  0.00  0.00    +0.000 A 
ATOM     10  C   UNL     1      10.665  12.350  18.334  0.00  0.00    +0.000 A 
ATOM     11  C   UNL     1       9.936  11.253  17.861  0.00  0.00    +0.000 A 
ATOM     12  C   UNL     1       9.222  10.428  18.742  0.00  0.00    +0.000 A 
ATOM     13  C   UNL     1       9.249  10.718  20.110  0.00  0.00    +0.000 A 
ATOM     14  C   UNL     1       9.978  11.811  20.574  0.00  0.00    +0.000 A 
ATOM     15  F   UNL     1       9.991  12.067  21.888  0.00  0.00    +0.000 F 
ENDBRANCH   3  12
ENDBRANCH   1   6
BRANCH   1  16
ATOM     16  N   UNL     1       6.666   5.372  16.968  0.00  0.00    +0.000 N 
ATOM     17  H   UNL     1       7.119   4.658  16.400  0.00  0.00    +0.000 HD
BRANCH  16  18
ATOM     18  C   UNL     1       5.312   5.101  17.157  0.00  0.00    +0.000 A 
ATOM     19  C   UNL     1       4.437   6.161  17.438  0.00  0.00    +0.000 A 
ATOM     20  C   UNL     1       3.096   5.936  17.766  0.00  0.00    +0.000 A 
ATOM     21  C   UNL     1       2.619   4.634  17.849  0.00  0.00    +0.000 A 
ATOM     22  C   UNL     1       3.462   3.546  17.583  0.00  0.00    +0.000 A 
ATOM     23  C   UNL     1       4.797   3.802  17.235  0.00  0.00    +0.000 A 
ATOM     24  C   UNL     1       3.001   2.117  17.743  0.00  0.00    +0.000 C 
ATOM     25  C   UNL     1       2.569   1.794  19.180  0.00  0.00    +0.000 C 
ATOM     26  C   UNL     1       1.194   2.353  19.547  0.00  0.00    +0.000 C 
ATOM     27  C   UNL     1       1.172   3.871  19.525  0.00  0.00    +0.000 C 
ATOM     28  O   UNL     1       1.115   4.548  20.549  0.00  0.00    +0.000 OA
ATOM     29  N   UNL     1       1.279   4.409  18.245  0.00  0.00    +0.000 N 
ATOM     30  H   UNL     1       0.863   3.748  17.594  0.00  0.00    +0.000 HD
ENDBRANCH  16  18
ENDBRANCH   1  16
TORSDOF 4
ENDMDL
MODEL 3
REMARK VINA RESULT:      -9.5      1.395      1.989
REMARK  Name = 
REMARK  6 active torsions:
REMARK  status: ('A' for Active; 'I' for Inactive)
REMARK    1  A    between atoms: C_1  and  C_2
REMARK    2  A    between atoms: C_5  and  C_6
REMARK    3  A    between atoms: C_9  and  C_10
REMARK    4  A    between atoms: C_10  and  C_11
REMARK    5  A    between atoms: C_10  and  N_12
REMARK    6  A    between atoms: N_12  and  C_13
REMARK                            x       y       z     vdW  Elec       q    Type
REMARK                         _______ _______ _______ _____ _____    ______ ____
ROOT
ATOM      1  C   UNL     1       6.616   6.411  16.272  0.00  0.00    +0.000 C 
ATOM      2  C   UNL     1       7.225   5.000  16.261  0.00  0.00    +0.000 C 
ENDROOT
BRANCH   1   6
ATOM      3  C   UNL     1       8.445   8.674  18.377  0.00  0.00    +0.000 A 
ATOM      4  N   UNL     1       8.565   7.550  19.106  0.00  0.00    +0.000 NA
ATOM      5  O   UNL     1       7.870   6.596  18.365  0.00  0.00    +0.000 OA
ATOM      6  C   UNL     1       7.392   7.238  17.262  0.00  0.00    +0.000 A 
ATOM      7  N   UNL     1       7.725   8.509  17.219  0.00  0.00    +0.000 NA
BRANCH   3  12
ATOM      8  C   UNL     1      10.652  13.800  19.863  0.00  0.00    +0.000 C 
ATOM      9  C   UNL     1      10.087  12.462  19.495  0.00  0.00    +0.000 A 
ATOM     10  C   UNL     1       9.801  11.502  20.467  0.00  0.00    +0.000 A 
ATOM     11  C   UNL     1       9.264  10.264  20.093  0.00  0.00    +0.000 A 
ATOM     12  C   UNL     1       9.008   9.966  18.747  0.00  0.00    +0.000 A 
ATOM     13  C   UNL     1       9.297  10.931  17.775  0.00  0.00    +0.000 A 
ATOM     14  C   UNL     1       9.829  12.161  18.154  0.00  0.00    +0.000 A 
ATOM     15  F   UNL     1      10.095  13.069  17.207  0.00  0.00    +0.000 F 
ENDBRANCH   3  12
ENDBRANCH   1   6
BRANCH   1  16
ATOM     16  N   UNL     1       5.173   6.356  16.587  0.00  0.00    +0.000 N 
ATOM     17  H   UNL     1       4.602   6.613  15.783  0.00  0.00    +0.000 HD
BRANCH  16  18
ATOM     18  C   UNL     1       4.613   5.299  17.303  0.00  0.00    +0.000 A 
ATOM     19  C   UNL     1       4.383   4.080  16.649  0.00  0.00    +0.000 A 
ATOM     20  C   UNL     1       3.705   3.029  17.277  0.00  0.00    +0.000 A 
ATOM     21  C   UNL     1       3.217   3.200  18.566  0.00  0.00    +0.000 A 
ATOM     22  C   UNL     1       3.419   4.406  19.252  0.00  0.00    +0.000 A 
ATOM     23  C   UNL     1       4.122   5.435  18.606  0.00  0.00    +0.000 A 
ATOM     24  C   UNL     1       2.834   4.658  20.620  0.00  0.00    +0.000 C 
ATOM     25  C   UNL     1       1.300   4.582  20.628  0.00  0.00    +0.000 C 
ATOM     26  C   UNL     1       0.757   3.153  20.580  0.00  0.00    +0.000 C 
ATOM     27  C   UNL     1       1.118   2.450  19.285  0.00  0.00    +0.000 C 
ATOM     28  O   UNL     1       0.293   2.211  18.407  0.00  0.00    +0.000 OA
ATOM     29  N   UNL     1       2.476   2.159  19.172  0.00  0.00    +0.000 N 
ATOM     30  H   UNL     1       2.842   2.013  20.109  0.00  0.00    +0.000 HD
ENDBRANCH  16  18
ENDBRANCH   1  16
TORSDOF 4
ENDMDL
MODEL 4
REMARK VINA RESULT:      -9.5      1.377      1.755
REMARK  Name = 
REMARK  6 active torsions:
REMARK  status: ('A' for Active; 'I' for Inactive)
REMARK    1  A    between atoms: C_1  and  C_2
REMARK    2  A    between atoms: C_5  and  C_6
REMARK    3  A    between atoms: C_9  and  C_10
REMARK    4  A    between atoms: C_10  and  C_11
REMARK    5  A    between atoms: C_10  and  N_12
REMARK    6  A    between atoms: N_12  and  C_13
REMARK                            x       y       z     vdW  Elec       q    Type
REMARK                         _______ _______ _______ _____ _____    ______ ____
ROOT
ATOM      1  C   UNL     1       6.908   5.905  16.437  0.00  0.00    +0.000 C 
ATOM      2  C   UNL     1       6.926   4.546  17.157  0.00  0.00    +0.000 C 
ENDROOT
BRANCH   1   6
ATOM      3  C   UNL     1       8.386   8.575  18.328  0.00  0.00    +0.000 A 
ATOM      4  N   UNL     1       8.586   7.561  19.188  0.00  0.00    +0.000 NA
ATOM      5  O   UNL     1       8.031   6.459  18.539  0.00  0.00    +0.000 OA
ATOM      6  C   UNL     1       7.544   6.918  17.351  0.00  0.00    +0.000 A 
ATOM      7  N   UNL     1       7.745   8.203  17.171  0.00  0.00    +0.000 NA
BRANCH   3  12
ATOM      8  C   UNL     1      10.010  14.044  19.234  0.00  0.00    +0.000 C 
ATOM      9  C   UNL     1       9.574  12.631  18.988  0.00  0.00    +0.000 A 
ATOM     10  C   UNL     1       8.834  12.287  17.855  0.00  0.00    +0.000 A 
ATOM     11  C   UNL     1       8.448  10.958  17.646  0.00  0.00    +0.000 A 
ATOM     12  C   UNL     1       8.793   9.955  18.564  0.00  0.00    +0.000 A 
ATOM     13  C   UNL     1       9.533  10.304  19.699  0.00  0.00    +0.000 A 
ATOM     14  C   UNL     1       9.914  11.628  19.899  0.00  0.00    +0.000 A 
ATOM     15  F   UNL     1      10.625  11.938  20.991  0.00  0.00    +0.000 F 
ENDBRANCH   3  12
ENDBRANCH   1   6
BRANCH   1  16
ATOM     16  N   UNL     1       5.529   6.275  16.053  0.00  0.00    +0.000 N 
ATOM     17  H   UNL     1       5.374   6.162  15.052  0.00  0.00    +0.000 HD
BRANCH  16  18
ATOM     18  C   UNL     1       4.422   5.871  16.797  0.00  0.00    +0.000 A 
ATOM     19  C   UNL     1       3.876   6.754  17.741  0.00  0.00    +0.000 A 
ATOM     20  C   UNL     1       2.851   6.358  18.607  0.00  0.00    +0.000 A 
ATOM     21  C   UNL     1       2.380   5.053  18.560  0.00  0.00    +0.000 A 
ATOM     22  C   UNL     1       2.903   4.136  17.638  0.00  0.00    +0.000 A 
ATOM     23  C   UNL     1       3.915   4.567  16.766  0.00  0.00    +0.000 A 
ATOM     24  C   UNL     1       2.473   2.689  17.613  0.00  0.00    +0.000 C 
ATOM     25  C   UNL     1       2.772   1.963  18.932  0.00  0.00    +0.000 C 
ATOM     26  C   UNL     1       1.795   2.308  20.057  0.00  0.00    +0.000 C 
ATOM     27  C   UNL     1       1.878   3.770  20.455  0.00  0.00    +0.000 C 
ATOM     28  O   UNL     1       2.377   4.142  21.514  0.00  0.00    +0.000 OA
ATOM     29  N   UNL     1       1.389   4.639  19.482  0.00  0.00    +0.000 N 
ATOM     30  H   UNL     1       0.661   4.151  18.967  0.00  0.00    +0.000 HD
ENDBRANCH  16  18
ENDBRANCH   1  16
TORSDOF 4
ENDMDL
MODEL 5
REMARK VINA RESULT:      -9.3      1.540      2.248
REMARK  Name = 
REMARK  6 active torsions:
REMARK  status: ('A' for Active; 'I' for Inactive)
REMARK    1  A    between atoms: C_1  and  C_2
REMARK    2  A    between atoms: C_5  and  C_6
REMARK    3  A    between atoms: C_9  and  C_10
REMARK    4  A    between atoms: C_10  and  C_11
REMARK    5  A    between atoms: C_10  and  N_12
REMARK    6  A    between atoms: N_12  and  C_13
REMARK                            x       y       z     vdW  Elec       q    Type
REMARK                         _______ _______ _______ _____ _____    ______ ____
ROOT
ATOM      1  C   UNL     1       6.978   6.168  16.813  0.00  0.00    +0.000 C 
ATOM      2  C   UNL     1       7.587   4.871  17.372  0.00  0.00    +0.000 C 
ENDROOT
BRANCH   1   6
ATOM      3  C   UNL     1       8.464   9.135  18.184  0.00  0.00    +0.000 A 
ATOM      4  N   UNL     1       8.773   8.264  19.160  0.00  0.00    +0.000 NA
ATOM      5  O   UNL     1       8.224   7.060  18.720  0.00  0.00    +0.000 OA
ATOM      6  C   UNL     1       7.631   7.324  17.521  0.00  0.00    +0.000 A 
ATOM      7  N   UNL     1       7.758   8.577  17.145  0.00  0.00    +0.000 NA
BRANCH   3  12
ATOM      8  C   UNL     1       9.880  14.735  18.172  0.00  0.00    +0.000 C 
ATOM      9  C   UNL     1       9.493  13.287  18.172  0.00  0.00    +0.000 A 
ATOM     10  C   UNL     1       8.350  12.841  17.508  0.00  0.00    +0.000 A 
ATOM     11  C   UNL     1       8.019  11.481  17.516  0.00  0.00    +0.000 A 
ATOM     12  C   UNL     1       8.822  10.548  18.189  0.00  0.00    +0.000 A 
ATOM     13  C   UNL     1       9.967  10.999  18.855  0.00  0.00    +0.000 A 
ATOM     14  C   UNL     1      10.290  12.353  18.841  0.00  0.00    +0.000 A 
ATOM     15  F   UNL     1      11.393  12.761  19.482  0.00  0.00    +0.000 F 
ENDBRANCH   3  12
ENDBRANCH   1   6
BRANCH   1  16
ATOM     16  N   UNL     1       5.508   6.164  16.969  0.00  0.00    +0.000 N 
ATOM     17  H   UNL     1       5.037   6.449  16.111  0.00  0.00    +0.000 HD
BRANCH  16  18
ATOM     18  C   UNL     1       4.835   5.123  17.607  0.00  0.00    +0.000 A 
ATOM     19  C   UNL     1       4.571   3.944  16.894  0.00  0.00    +0.000 A 
ATOM     20  C   UNL     1       3.788   2.920  17.436  0.00  0.00    +0.000 A 
ATOM     21  C   UNL     1       3.227   3.080  18.697  0.00  0.00    +0.000 A 
ATOM     22  C   UNL     1       3.459   4.246  19.440  0.00  0.00    +0.000 A 
ATOM     23  C   UNL     1       4.268   5.247  18.880  0.00  0.00    +0.000 A 
ATOM     24  C   UNL     1       2.802   4.489  20.777  0.00  0.00    +0.000 C 
ATOM     25  C   UNL     1       1.270   4.515  20.684  0.00  0.00    +0.000 C 
ATOM     26  C   UNL     1       0.641   3.128  20.546  0.00  0.00    +0.000 C 
ATOM     27  C   UNL     1       1.041   2.446  19.251  0.00  0.00    +0.000 C 
ATOM     28  O   UNL     1       0.262   2.292  18.314  0.00  0.00    +0.000 OA
ATOM     29  N   UNL     1       2.383   2.070  19.214  0.00  0.00    +0.000 N 
ATOM     30  H   UNL     1       2.675   1.869  20.167  0.00  0.00    +0.000 HD
ENDBRANCH  16  18
ENDBRANCH   1  16
TORSDOF 4
ENDMDL
MODEL 6
REMARK VINA RESULT:      -9.3      1.356      1.549
REMARK  Name = 
REMARK  6 active torsions:
REMARK  status: ('A' for Active; 'I' for Inactive)
REMARK    1  A    between atoms: C_1  and  C_2
REMARK    2  A    between atoms: C_5  and  C_6
REMARK    3  A    between atoms: C_9  and  C_10
REMARK    4  A    between atoms: C_10  and  C_11
REMARK    5  A    between atoms: C_10  and  N_12
REMARK    6  A    between atoms: N_12  and  C_13
REMARK                            x       y       z     vdW  Elec       q    Type
REMARK                         _______ _______ _______ _____ _____    ______ ____
ROOT
ATOM      1  C   UNL     1       6.909   5.733  16.303  0.00  0.00    +0.000 C 
ATOM      2  C   UNL     1       6.956   4.375  17.023  0.00  0.00    +0.000 C 
ENDROOT
BRANCH   1   6
ATOM      3  C   UNL     1       8.296   8.442  18.207  0.00  0.00    +0.000 A 
ATOM      4  N   UNL     1       8.490   7.438  19.080  0.00  0.00    +0.000 NA
ATOM      5  O   UNL     1       7.970   6.322  18.427  0.00  0.00    +0.000 OA
ATOM      6  C   UNL     1       7.505   6.763  17.224  0.00  0.00    +0.000 A 
ATOM      7  N   UNL     1       7.690   8.050  17.038  0.00  0.00    +0.000 NA
BRANCH   3  12
ATOM      8  C   UNL     1       9.786  13.940  19.166  0.00  0.00    +0.000 C 
ATOM      9  C   UNL     1       9.416  12.507  18.927  0.00  0.00    +0.000 A 
ATOM     10  C   UNL     1       9.860  11.491  19.776  0.00  0.00    +0.000 A 
ATOM     11  C   UNL     1       9.489  10.163  19.534  0.00  0.00    +0.000 A 
ATOM     12  C   UNL     1       8.675   9.830  18.442  0.00  0.00    +0.000 A 
ATOM     13  C   UNL     1       8.233  10.850  17.592  0.00  0.00    +0.000 A 
ATOM     14  C   UNL     1       8.604  12.170  17.840  0.00  0.00    +0.000 A 
ATOM     15  F   UNL     1       8.167  13.130  17.016  0.00  0.00    +0.000 F 
ENDBRANCH   3  12
ENDBRANCH   1   6
BRANCH   1  16
ATOM     16  N   UNL     1       5.525   6.064  15.902  0.00  0.00    +0.000 N 
ATOM     17  H   UNL     1       5.354   5.845  14.921  0.00  0.00    +0.000 HD
BRANCH  16  18
ATOM     18  C   UNL     1       4.428   5.746  16.701  0.00  0.00    +0.000 A 
ATOM     19  C   UNL     1       3.969   6.687  17.634  0.00  0.00    +0.000 A 
ATOM     20  C   UNL     1       2.961   6.377  18.553  0.00  0.00    +0.000 A 
ATOM     21  C   UNL     1       2.418   5.098  18.569  0.00  0.00    +0.000 A 
ATOM     22  C   UNL     1       2.855   4.125  17.660  0.00  0.00    +0.000 A 
ATOM     23  C   UNL     1       3.852   4.471  16.735  0.00  0.00    +0.000 A 
ATOM     24  C   UNL     1       2.347   2.704  17.702  0.00  0.00    +0.000 C 
ATOM     25  C   UNL     1       2.660   2.006  19.033  0.00  0.00    +0.000 C 
ATOM     26  C   UNL     1       1.749   2.440  20.182  0.00  0.00    +0.000 C 
ATOM     27  C   UNL     1       1.926   3.908  20.526  0.00  0.00    +0.000 C 
ATOM     28  O   UNL     1       2.486   4.286  21.551  0.00  0.00    +0.000 OA
ATOM     29  N   UNL     1       1.445   4.770  19.542  0.00  0.00    +0.000 N 
ATOM     30  H   UNL     1       0.672   4.306  19.073  0.00  0.00    +0.000 HD
ENDBRANCH  16  18
ENDBRANCH   1  16
TORSDOF 4
ENDMDL
MODEL 7
REMARK VINA RESULT:      -9.1      1.654      2.159
REMARK  Name = 
REMARK  6 active torsions:
REMARK  status: ('A' for Active; 'I' for Inactive)
REMARK    1  A    between atoms: C_1  and  C_2
REMARK    2  A    between atoms: C_5  and  C_6
REMARK    3  A    between atoms: C_9  and  C_10
REMARK    4  A    between atoms: C_10  and  C_11
REMARK    5  A    between atoms: C_10  and  N_12
REMARK    6  A    between atoms: N_12  and  C_13
REMARK                            x       y       z     vdW  Elec       q    Type
REMARK                         _______ _______ _______ _____ _____    ______ ____
ROOT
ATOM      1  C   UNL     1       6.522   5.750  16.175  0.00  0.00    +0.000 C 
ATOM      2  C   UNL     1       7.523   5.262  15.115  0.00  0.00    +0.000 C 
ENDROOT
BRANCH   1   6
ATOM      3  C   UNL     1       8.186   8.288  18.094  0.00  0.00    +0.000 A 
ATOM      4  N   UNL     1       8.474   7.216  18.852  0.00  0.00    +0.000 NA
ATOM      5  O   UNL     1       7.856   6.160  18.185  0.00  0.00    +0.000 OA
ATOM      6  C   UNL     1       7.248   6.699  17.090  0.00  0.00    +0.000 A 
ATOM      7  N   UNL     1       7.429   7.996  16.985  0.00  0.00    +0.000 NA
BRANCH   3  12
ATOM      8  C   UNL     1       9.893  13.689  19.226  0.00  0.00    +0.000 C 
ATOM      9  C   UNL     1       9.435  12.295  18.921  0.00  0.00    +0.000 A 
ATOM     10  C   UNL     1       8.652  12.016  17.799  0.00  0.00    +0.000 A 
ATOM     11  C   UNL     1       8.247  10.703  17.535  0.00  0.00    +0.000 A 
ATOM     12  C   UNL     1       8.614   9.651  18.387  0.00  0.00    +0.000 A 
ATOM     13  C   UNL     1       9.397   9.933  19.511  0.00  0.00    +0.000 A 
ATOM     14  C   UNL     1       9.798  11.243  19.767  0.00  0.00    +0.000 A 
ATOM     15  F   UNL     1      10.550  11.489  20.847  0.00  0.00    +0.000 F 
ENDBRANCH   3  12
ENDBRANCH   1   6
BRANCH   1  16
ATOM     16  N   UNL     1       5.928   4.607  16.900  0.00  0.00    +0.000 N 
ATOM     17  H   UNL     1       6.641   4.030  17.343  0.00  0.00    +0.000 HD
BRANCH  16  18
ATOM     18  C   UNL     1       4.801   4.750  17.708  0.00  0.00    +0.000 A 
ATOM     19  C   UNL     1       4.935   5.365  18.961  0.00  0.00    +0.000 A 
ATOM     20  C   UNL     1       3.871   5.418  19.868  0.00  0.00    +0.000 A 
ATOM     21  C   UNL     1       2.660   4.822  19.540  0.00  0.00    +0.000 A 
ATOM     22  C   UNL     1       2.487   4.189  18.301  0.00  0.00    +0.000 A 
ATOM     23  C   UNL     1       3.564   4.171  17.402  0.00  0.00    +0.000 A 
ATOM     24  C   UNL     1       1.214   3.461  17.944  0.00  0.00    +0.000 C 
ATOM     25  C   UNL     1       0.913   2.297  18.898  0.00  0.00    +0.000 C 
ATOM     26  C   UNL     1       0.362   2.743  20.254  0.00  0.00    +0.000 C 
ATOM     27  C   UNL     1       1.370   3.564  21.037  0.00  0.00    +0.000 C 
ATOM     28  O   UNL     1       1.950   3.131  22.029  0.00  0.00    +0.000 OA
ATOM     29  N   UNL     1       1.608   4.822  20.487  0.00  0.00    +0.000 N 
ATOM     30  H   UNL     1       0.758   5.121  20.016  0.00  0.00    +0.000 HD
ENDBRANCH  16  18
ENDBRANCH   1  16
TORSDOF 4
ENDMDL
MODEL 8
REMARK VINA RESULT:      -9.1      7.530      9.143
REMARK  Name = 
REMARK  6 active torsions:
REMARK  status: ('A' for Active; 'I' for Inactive)
REMARK    1  A    between atoms: C_1  and  C_2
REMARK    2  A    between atoms: C_5  and  C_6
REMARK    3  A    between atoms: C_9  and  C_10
REMARK    4  A    between atoms: C_10  and  C_11
REMARK    5  A    between atoms: C_10  and  N_12
REMARK    6  A    between atoms: N_12  and  C_13
REMARK                            x       y       z     vdW  Elec       q    Type
REMARK                         _______ _______ _______ _____ _____    ______ ____
ROOT
ATOM      1  C   UNL     1       0.200   9.429  19.457  0.00  0.00    +0.000 C 
ATOM      2  C   UNL     1      -0.334  10.270  18.286  0.00  0.00    +0.000 C 
ENDROOT
BRANCH   1   6
ATOM      3  C   UNL     1      -0.833  11.384  22.285  0.00  0.00    +0.000 A 
ATOM      4  N   UNL     1       0.025  10.549  22.897  0.00  0.00    +0.000 NA
ATOM      5  O   UNL     1       0.484   9.729  21.868  0.00  0.00    +0.000 OA
ATOM      6  C   UNL     1      -0.147  10.145  20.734  0.00  0.00    +0.000 A 
ATOM      7  N   UNL     1      -0.956  11.161  20.935  0.00  0.00    +0.000 NA
BRANCH   3  12
ATOM      8  C   UNL     1      -3.791  15.563  24.959  0.00  0.00    +0.000 C 
ATOM      9  C   UNL     1      -3.012  14.493  24.256  0.00  0.00    +0.000 A 
ATOM     10  C   UNL     1      -1.703  14.712  23.825  0.00  0.00    +0.000 A 
ATOM     11  C   UNL     1      -0.996  13.690  23.181  0.00  0.00    +0.000 A 
ATOM     12  C   UNL     1      -1.586  12.438  22.955  0.00  0.00    +0.000 A 
ATOM     13  C   UNL     1      -2.899  12.222  23.386  0.00  0.00    +0.000 A 
ATOM     14  C   UNL     1      -3.596  13.243  24.028  0.00  0.00    +0.000 A 
ATOM     15  F   UNL     1      -4.850  13.013  24.435  0.00  0.00    +0.000 F 
ENDBRANCH   3  12
ENDBRANCH   1   6
BRANCH   1  16
ATOM     16  N   UNL     1       1.653   9.197  19.313  0.00  0.00    +0.000 N 
ATOM     17  H   UNL     1       2.193   9.784  19.947  0.00  0.00    +0.000 HD
BRANCH  16  18
ATOM     18  C   UNL     1       2.190   7.915  19.212  0.00  0.00    +0.000 A 
ATOM     19  C   UNL     1       2.943   7.578  18.078  0.00  0.00    +0.000 A 
ATOM     20  C   UNL     1       3.394   6.272  17.859  0.00  0.00    +0.000 A 
ATOM     21  C   UNL     1       3.065   5.272  18.765  0.00  0.00    +0.000 A 
ATOM     22  C   UNL     1       2.308   5.564  19.908  0.00  0.00    +0.000 A 
ATOM     23  C   UNL     1       1.887   6.887  20.113  0.00  0.00    +0.000 A 
ATOM     24  C   UNL     1       1.862   4.490  20.870  0.00  0.00    +0.000 C 
ATOM     25  C   UNL     1       0.971   3.433  20.203  0.00  0.00    +0.000 C 
ATOM     26  C   UNL     1       1.744   2.437  19.338  0.00  0.00    +0.000 C 
ATOM     27  C   UNL     1       2.408   3.110  18.151  0.00  0.00    +0.000 C 
ATOM     28  O   UNL     1       2.009   2.966  16.998  0.00  0.00    +0.000 OA
ATOM     29  N   UNL     1       3.468   3.941  18.506  0.00  0.00    +0.000 N 
ATOM     30  H   UNL     1       3.887   3.566  19.353  0.00  0.00    +0.000 HD
ENDBRANCH  16  18
ENDBRANCH   1  16
TORSDOF 4
ENDMDL
MODEL 9
REMARK VINA RESULT:      -9.1      1.377      1.714
REMARK  Name = 
REMARK  6 active torsions:
REMARK  status: ('A' for Active; 'I' for Inactive)
REMARK    1  A    between atoms: C_1  and  C_2
REMARK    2  A    between atoms: C_5  and  C_6
REMARK    3  A    between atoms: C_9  and  C_10
REMARK    4  A    between atoms: C_10  and  C_11
REMARK    5  A    between atoms: C_10  and  N_12
REMARK    6  A    between atoms: N_12  and  C_13
REMARK                            x       y       z     vdW  Elec       q    Type
REMARK                         _______ _______ _______ _____ _____    ______ ____
ROOT
ATOM      1  C   UNL     1       7.122   6.417  17.084  0.00  0.00    +0.000 C 
ATOM      2  C   UNL     1       6.994   5.363  18.197  0.00  0.00    +0.000 C 
ENDROOT
BRANCH   1   6
ATOM      3  C   UNL     1       8.579   9.511  18.175  0.00  0.00    +0.000 A 
ATOM      4  N   UNL     1       8.964   8.718  19.189  0.00  0.00    +0.000 NA
ATOM      5  O   UNL     1       8.433   7.472  18.859  0.00  0.00    +0.000 OA
ATOM      6  C   UNL     1       7.772   7.637  17.678  0.00  0.00    +0.000 A 
ATOM      7  N   UNL     1       7.840   8.864  17.214  0.00  0.00    +0.000 NA
BRANCH   3  12
ATOM      8  C   UNL     1       9.828  15.137  17.777  0.00  0.00    +0.000 C 
ATOM      9  C   UNL     1       9.523  13.673  17.878  0.00  0.00    +0.000 A 
ATOM     10  C   UNL     1      10.502  12.752  18.256  0.00  0.00    +0.000 A 
ATOM     11  C   UNL     1      10.185  11.392  18.350  0.00  0.00    +0.000 A 
ATOM     12  C   UNL     1       8.891  10.931  18.067  0.00  0.00    +0.000 A 
ATOM     13  C   UNL     1       7.913  11.857  17.687  0.00  0.00    +0.000 A 
ATOM     14  C   UNL     1       8.235  13.209  17.596  0.00  0.00    +0.000 A 
ATOM     15  F   UNL     1       7.282  14.077  17.233  0.00  0.00    +0.000 F 
ENDBRANCH   3  12
ENDBRANCH   1   6
BRANCH   1  16
ATOM     16  N   UNL     1       5.802   6.711  16.488  0.00  0.00    +0.000 N 
ATOM     17  H   UNL     1       5.836   6.698  15.470  0.00  0.00    +0.000 HD
BRANCH  16  18
ATOM     18  C   UNL     1       4.628   6.136  16.973  0.00  0.00    +0.000 A 
ATOM     19  C   UNL     1       3.766   6.910  17.764  0.00  0.00    +0.000 A 
ATOM     20  C   UNL     1       2.645   6.352  18.387  0.00  0.00    +0.000 A 
ATOM     21  C   UNL     1       2.389   4.994  18.250  0.00  0.00    +0.000 A 
ATOM     22  C   UNL     1       3.230   4.183  17.475  0.00  0.00    +0.000 A 
ATOM     23  C   UNL     1       4.335   4.774  16.844  0.00  0.00    +0.000 A 
ATOM     24  C   UNL     1       3.030   2.690  17.371  0.00  0.00    +0.000 C 
ATOM     25  C   UNL     1       3.133   1.985  18.730  0.00  0.00    +0.000 C 
ATOM     26  C   UNL     1       1.893   2.161  19.608  0.00  0.00    +0.000 C 
ATOM     27  C   UNL     1       1.674   3.611  20.001  0.00  0.00    +0.000 C 
ATOM     28  O   UNL     1       1.869   4.026  21.140  0.00  0.00    +0.000 OA
ATOM     29  N   UNL     1       1.290   4.422  18.935  0.00  0.00    +0.000 N 
ATOM     30  H   UNL     1       0.772   3.846  18.277  0.00  0.00    +0.000 HD
ENDBRANCH  16  18
ENDBRANCH   1  16
TORSDOF 4
ENDMDL
