MODEL 1
REMARK VINA RESULT:      -8.1      0.000      0.000
REMARK  Name = 
REMARK  4 active torsions:
REMARK  status: ('A' for Active; 'I' for Inactive)
REMARK    1  A    between atoms: O_1  and  C_2
REMARK    2  A    between atoms: C_5  and  C_6
REMARK    3  A    between atoms: C_9  and  C_10
REMARK    4  A    between atoms: C_16  and  C_17
REMARK                            x       y       z     vdW  Elec       q    Type
REMARK                         _______ _______ _______ _____ _____    ______ ____
ROOT
ATOM      1  C   UNL     1       1.808   8.745  18.277  0.00  0.00    +0.000 A 
ATOM      2  N   UNL     1       2.892   9.035  17.532  0.00  0.00    +0.000 NA
ATOM      3  N   UNL     1       3.848   8.083  17.333  0.00  0.00    +0.000 NA
ATOM      4  C   UNL     1       3.696   6.844  17.865  0.00  0.00    +0.000 A 
ATOM      5  C   UNL     1       2.555   6.587  18.637  0.00  0.00    +0.000 A 
ATOM      6  N   UNL     1       1.618   7.549  18.867  0.00  0.00    +0.000 NA
ENDROOT
BRANCH   1  10
ATOM      7  C   UNL     1      -1.268  11.733  18.537  0.00  0.00    +0.000 A 
ATOM      8  C   UNL     1      -0.035  11.970  19.125  0.00  0.00    +0.000 A 
ATOM      9  C   UNL     1       0.963  10.985  19.051  0.00  0.00    +0.000 A 
ATOM     10  C   UNL     1       0.746   9.760  18.385  0.00  0.00    +0.000 A 
ATOM     11  C   UNL     1      -0.526   9.561  17.804  0.00  0.00    +0.000 A 
ATOM     12  C   UNL     1      -1.522  10.538  17.879  0.00  0.00    +0.000 A 
BRANCH   7  13
ATOM     13  O   UNL     1      -2.264  12.661  18.577  0.00  0.00    +0.000 OA
ATOM     14  H   UNL     1      -1.919  13.501  18.230  0.00  0.00    +0.000 HD
ENDBRANCH   7  13
ENDBRANCH   1  10
BRANCH   4  15
ATOM     15  C   UNL     1       4.752   5.888  17.474  0.00  0.00    +0.000 A 
ATOM     16  C   UNL     1       4.788   5.258  16.218  0.00  0.00    +0.000 A 
ATOM     17  C   UNL     1       5.893   4.498  15.818  0.00  0.00    +0.000 A 
ATOM     18  C   UNL     1       6.953   4.291  16.695  0.00  0.00    +0.000 A 
ATOM     19  C   UNL     1       6.905   4.828  17.977  0.00  0.00    +0.000 A 
ATOM     20  C   UNL     1       5.817   5.619  18.358  0.00  0.00    +0.000 A 
ENDBRANCH   4  15
BRANCH   5  21
ATOM     21  C   UNL     1       2.187   5.278  19.234  0.00  0.00    +0.000 A 
ATOM     22  C   UNL     1       1.658   4.249  18.432  0.00  0.00    +0.000 A 
ATOM     23  C   UNL     1       1.288   3.014  18.977  0.00  0.00    +0.000 A 
ATOM     24  C   UNL     1       1.422   2.788  20.343  0.00  0.00    +0.000 A 
ATOM     25  C   UNL     1       1.959   3.778  21.156  0.00  0.00    +0.000 A 
ATOM     26  C   UNL     1       2.369   4.993  20.601  0.00  0.00    +0.000 A 
ENDBRANCH   5  21
TORSDOF 4
ENDMDL
MODEL 2
REMARK VINA RESULT:      -8.1      0.302      1.007
REMARK  Name = 
REMARK  4 active torsions:
REMARK  status: ('A' for Active; 'I' for Inactive)
REMARK    1  A    between atoms: O_1  and  C_2
REMARK    2  A    between atoms: C_5  and  C_6
REMARK    3  A    between atoms: C_9  and  C_10
REMARK    4  A    between atoms: C_16  and  C_17
REMARK                            x       y       z     vdW  Elec       q    Type
REMARK                         _______ _______ _______ _____ _____    ______ ____
ROOT
ATOM      1  C   UNL     1       1.745   8.692  18.443  0.00  0.00    +0.000 A 
ATOM      2  N   UNL     1       2.798   8.981  17.656  0.00  0.00    +0.000 NA
ATOM      3  N   UNL     1       3.745   8.030  17.419  0.00  0.00    +0.000 NA
ATOM      4  C   UNL     1       3.614   6.791  17.957  0.00  0.00    +0.000 A 
ATOM      5  C   UNL     1       2.505   6.534  18.774  0.00  0.00    +0.000 A 
ATOM      6  N   UNL     1       1.577   7.497  19.040  0.00  0.00    +0.000 NA
ENDROOT
BRANCH   1  10
ATOM      7  C   UNL     1      -1.307  11.692  18.836  0.00  0.00    +0.000 A 
ATOM      8  C   UNL     1      -0.186  11.747  19.651  0.00  0.00    +0.000 A 
ATOM      9  C   UNL     1       0.802  10.757  19.529  0.00  0.00    +0.000 A 
ATOM     10  C   UNL     1       0.687   9.708  18.593  0.00  0.00    +0.000 A 
ATOM     11  C   UNL     1      -0.472   9.690  17.787  0.00  0.00    +0.000 A 
ATOM     12  C   UNL     1      -1.458  10.672  17.907  0.00  0.00    +0.000 A 
BRANCH   7  13
ATOM     13  O   UNL     1      -2.288  12.633  18.913  0.00  0.00    +0.000 OA
ATOM     14  H   UNL     1      -1.875  13.499  19.072  0.00  0.00    +0.000 HD
ENDBRANCH   7  13
ENDBRANCH   1  10
BRANCH   4  15
ATOM     15  C   UNL     1       4.653   5.834  17.524  0.00  0.00    +0.000 A 
ATOM     16  C   UNL     1       4.467   4.926  16.468  0.00  0.00    +0.000 A 
ATOM     17  C   UNL     1       5.528   4.161  15.973  0.00  0.00    +0.000 A 
ATOM     18  C   UNL     1       6.782   4.233  16.573  0.00  0.00    +0.000 A 
ATOM     19  C   UNL     1       6.972   5.056  17.677  0.00  0.00    +0.000 A 
ATOM     20  C   UNL     1       5.920   5.848  18.144  0.00  0.00    +0.000 A 
ENDBRANCH   4  15
BRANCH   5  21
ATOM     21  C   UNL     1       2.160   5.226  19.385  0.00  0.00    +0.000 A 
ATOM     22  C   UNL     1       2.370   5.000  20.759  0.00  0.00    +0.000 A 
ATOM     23  C   UNL     1       2.068   3.768  21.352  0.00  0.00    +0.000 A 
ATOM     24  C   UNL     1       1.566   2.727  20.578  0.00  0.00    +0.000 A 
ATOM     25  C   UNL     1       1.330   2.928  19.223  0.00  0.00    +0.000 A 
ATOM     26  C   UNL     1       1.591   4.172  18.644  0.00  0.00    +0.000 A 
ENDBRANCH   5  21
TORSDOF 4
ENDMDL
MODEL 3
REMARK VINA RESULT:      -8.0      0.097      1.363
REMARK  Name = 
REMARK  4 active torsions:
REMARK  status: ('A' for Active; 'I' for Inactive)
REMARK    1  A    between atoms: O_1  and  C_2
REMARK    2  A    between atoms: C_5  and  C_6
REMARK    3  A    between atoms: C_9  and  C_10
REMARK    4  A    between atoms: C_16  and  C_17
REMARK                            x       y       z     vdW  Elec       q    Type
REMARK                         _______ _______ _______ _____ _____    ______ ____
ROOT
ATOM      1  C   UNL     1       1.770   8.779  18.232  0.00  0.00    +0.000 A 
ATOM      2  N   UNL     1       2.867   9.075  17.509  0.00  0.00    +0.000 NA
ATOM      3  N   UNL     1       3.829   8.128  17.324  0.00  0.00    +0.000 NA
ATOM      4  C   UNL     1       3.671   6.886  17.848  0.00  0.00    +0.000 A 
ATOM      5  C   UNL     1       2.516   6.622  18.597  0.00  0.00    +0.000 A 
ATOM      6  N   UNL     1       1.571   7.581  18.813  0.00  0.00    +0.000 NA
ENDROOT
BRANCH   1  10
ATOM      7  C   UNL     1      -1.366  11.700  18.552  0.00  0.00    +0.000 A 
ATOM      8  C   UNL     1      -1.589  10.533  17.835  0.00  0.00    +0.000 A 
ATOM      9  C   UNL     1      -0.558   9.588  17.721  0.00  0.00    +0.000 A 
ATOM     10  C   UNL     1       0.703   9.791  18.324  0.00  0.00    +0.000 A 
ATOM     11  C   UNL     1       0.886  10.994  19.040  0.00  0.00    +0.000 A 
ATOM     12  C   UNL     1      -0.138  11.938  19.153  0.00  0.00    +0.000 A 
BRANCH   7  13
ATOM     13  O   UNL     1      -2.339  12.642  18.696  0.00  0.00    +0.000 OA
ATOM     14  H   UNL     1      -3.160  12.201  18.972  0.00  0.00    +0.000 HD
ENDBRANCH   7  13
ENDBRANCH   1  10
BRANCH   4  15
ATOM     15  C   UNL     1       4.737   5.934  17.473  0.00  0.00    +0.000 A 
ATOM     16  C   UNL     1       4.848   5.376  16.188  0.00  0.00    +0.000 A 
ATOM     17  C   UNL     1       5.966   4.620  15.819  0.00  0.00    +0.000 A 
ATOM     18  C   UNL     1       6.961   4.343  16.751  0.00  0.00    +0.000 A 
ATOM     19  C   UNL     1       6.834   4.807  18.056  0.00  0.00    +0.000 A 
ATOM     20  C   UNL     1       5.735   5.595  18.409  0.00  0.00    +0.000 A 
ENDBRANCH   4  15
BRANCH   5  21
ATOM     21  C   UNL     1       2.140   5.310  19.181  0.00  0.00    +0.000 A 
ATOM     22  C   UNL     1       2.213   5.098  20.571  0.00  0.00    +0.000 A 
ATOM     23  C   UNL     1       1.880   3.862  21.141  0.00  0.00    +0.000 A 
ATOM     24  C   UNL     1       1.483   2.806  20.328  0.00  0.00    +0.000 A 
ATOM     25  C   UNL     1       1.383   2.992  18.955  0.00  0.00    +0.000 A 
ATOM     26  C   UNL     1       1.674   4.239  18.395  0.00  0.00    +0.000 A 
ENDBRANCH   5  21
TORSDOF 4
ENDMDL
MODEL 4
REMARK VINA RESULT:      -7.9      0.781      1.130
REMARK  Name = 
REMARK  4 active torsions:
REMARK  status: ('A' for Active; 'I' for Inactive)
REMARK    1  A    between atoms: O_1  and  C_2
REMARK    2  A    between atoms: C_5  and  C_6
REMARK    3  A    between atoms: C_9  and  C_10
REMARK    4  A    between atoms: C_16  and  C_17
REMARK                            x       y       z     vdW  Elec       q    Type
REMARK                         _______ _______ _______ _____ _____    ______ ____
ROOT
ATOM      1  C   UNL     1       1.696   8.552  18.863  0.00  0.00    +0.000 A 
ATOM      2  N   UNL     1       2.697   8.856  18.013  0.00  0.00    +0.000 NA
ATOM      3  N   UNL     1       3.622   7.907  17.694  0.00  0.00    +0.000 NA
ATOM      4  C   UNL     1       3.521   6.657  18.213  0.00  0.00    +0.000 A 
ATOM      5  C   UNL     1       2.468   6.386  19.096  0.00  0.00    +0.000 A 
ATOM      6  N   UNL     1       1.564   7.345  19.443  0.00  0.00    +0.000 NA
ENDROOT
BRANCH   1  10
ATOM      7  C   UNL     1      -1.381  11.465  19.580  0.00  0.00    +0.000 A 
ATOM      8  C   UNL     1      -1.241  10.916  18.313  0.00  0.00    +0.000 A 
ATOM      9  C   UNL     1      -0.226   9.975  18.079  0.00  0.00    +0.000 A 
ATOM     10  C   UNL     1       0.656   9.567  19.104  0.00  0.00    +0.000 A 
ATOM     11  C   UNL     1       0.478  10.155  20.375  0.00  0.00    +0.000 A 
ATOM     12  C   UNL     1      -0.530  11.093  20.611  0.00  0.00    +0.000 A 
BRANCH   7  13
ATOM     13  O   UNL     1      -2.356  12.375  19.855  0.00  0.00    +0.000 OA
ATOM     14  H   UNL     1      -2.110  13.225  19.453  0.00  0.00    +0.000 HD
ENDBRANCH   7  13
ENDBRANCH   1  10
BRANCH   4  15
ATOM     15  C   UNL     1       4.526   5.708  17.691  0.00  0.00    +0.000 A 
ATOM     16  C   UNL     1       4.267   4.826  16.627  0.00  0.00    +0.000 A 
ATOM     17  C   UNL     1       5.291   4.070  16.047  0.00  0.00    +0.000 A 
ATOM     18  C   UNL     1       6.580   4.122  16.566  0.00  0.00    +0.000 A 
ATOM     19  C   UNL     1       6.846   4.916  17.676  0.00  0.00    +0.000 A 
ATOM     20  C   UNL     1       5.829   5.701  18.229  0.00  0.00    +0.000 A 
ENDBRANCH   4  15
BRANCH   5  21
ATOM     21  C   UNL     1       2.159   5.066  19.700  0.00  0.00    +0.000 A 
ATOM     22  C   UNL     1       1.522   4.063  18.943  0.00  0.00    +0.000 A 
ATOM     23  C   UNL     1       1.205   2.817  19.499  0.00  0.00    +0.000 A 
ATOM     24  C   UNL     1       1.504   2.554  20.832  0.00  0.00    +0.000 A 
ATOM     25  C   UNL     1       2.149   3.517  21.597  0.00  0.00    +0.000 A 
ATOM     26  C   UNL     1       2.503   4.743  21.027  0.00  0.00    +0.000 A 
ENDBRANCH   5  21
TORSDOF 4
ENDMDL
MODEL 5
REMARK VINA RESULT:      -7.9      0.440      1.388
REMARK  Name = 
REMARK  4 active torsions:
REMARK  status: ('A' for Active; 'I' for Inactive)
REMARK    1  A    between atoms: O_1  and  C_2
REMARK    2  A    between atoms: C_5  and  C_6
REMARK    3  A    between atoms: C_9  and  C_10
REMARK    4  A    between atoms: C_16  and  C_17
REMARK                            x       y       z     vdW  Elec       q    Type
REMARK                         _______ _______ _______ _____ _____    ______ ____
ROOT
ATOM      1  C   UNL     1       1.605   8.928  18.282  0.00  0.00    +0.000 A 
ATOM      2  N   UNL     1       2.674   9.315  17.560  0.00  0.00    +0.000 NA
ATOM      3  N   UNL     1       3.684   8.431  17.321  0.00  0.00    +0.000 NA
ATOM      4  C   UNL     1       3.600   7.160  17.792  0.00  0.00    +0.000 A 
ATOM      5  C   UNL     1       2.472   6.801  18.542  0.00  0.00    +0.000 A 
ATOM      6  N   UNL     1       1.480   7.696  18.811  0.00  0.00    +0.000 NA
ENDROOT
BRANCH   1  10
ATOM      7  C   UNL     1      -1.685  11.650  18.760  0.00  0.00    +0.000 A 
ATOM      8  C   UNL     1      -1.784  10.613  17.844  0.00  0.00    +0.000 A 
ATOM      9  C   UNL     1      -0.702   9.734  17.681  0.00  0.00    +0.000 A 
ATOM     10  C   UNL     1       0.486   9.875  18.430  0.00  0.00    +0.000 A 
ATOM     11  C   UNL     1       0.543  10.947  19.348  0.00  0.00    +0.000 A 
ATOM     12  C   UNL     1      -0.531  11.824  19.512  0.00  0.00    +0.000 A 
BRANCH   7  13
ATOM     13  O   UNL     1      -2.712  12.523  18.959  0.00  0.00    +0.000 OA
ATOM     14  H   UNL     1      -2.635  12.894  19.854  0.00  0.00    +0.000 HD
ENDBRANCH   7  13
ENDBRANCH   1  10
BRANCH   4  15
ATOM     15  C   UNL     1       4.711   6.286  17.362  0.00  0.00    +0.000 A 
ATOM     16  C   UNL     1       5.488   5.536  18.262  0.00  0.00    +0.000 A 
ATOM     17  C   UNL     1       6.411   4.589  17.808  0.00  0.00    +0.000 A 
ATOM     18  C   UNL     1       6.631   4.423  16.444  0.00  0.00    +0.000 A 
ATOM     19  C   UNL     1       5.941   5.214  15.533  0.00  0.00    +0.000 A 
ATOM     20  C   UNL     1       4.991   6.132  15.988  0.00  0.00    +0.000 A 
ENDBRANCH   4  15
BRANCH   5  21
ATOM     21  C   UNL     1       2.176   5.446  19.072  0.00  0.00    +0.000 A 
ATOM     22  C   UNL     1       1.759   4.415  18.208  0.00  0.00    +0.000 A 
ATOM     23  C   UNL     1       1.458   3.135  18.690  0.00  0.00    +0.000 A 
ATOM     24  C   UNL     1       1.550   2.864  20.051  0.00  0.00    +0.000 A 
ATOM     25  C   UNL     1       1.977   3.857  20.924  0.00  0.00    +0.000 A 
ATOM     26  C   UNL     1       2.319   5.120  20.434  0.00  0.00    +0.000 A 
ENDBRANCH   5  21
TORSDOF 4
ENDMDL
MODEL 6
REMARK VINA RESULT:      -7.9      1.126      1.194
REMARK  Name = 
REMARK  4 active torsions:
REMARK  status: ('A' for Active; 'I' for Inactive)
REMARK    1  A    between atoms: O_1  and  C_2
REMARK    2  A    between atoms: C_5  and  C_6
REMARK    3  A    between atoms: C_9  and  C_10
REMARK    4  A    between atoms: C_16  and  C_17
REMARK                            x       y       z     vdW  Elec       q    Type
REMARK                         _______ _______ _______ _____ _____    ______ ____
ROOT
ATOM      1  C   UNL     1       2.122   8.151  18.621  0.00  0.00    +0.000 A 
ATOM      2  N   UNL     1       3.130   8.606  17.852  0.00  0.00    +0.000 NA
ATOM      3  N   UNL     1       4.067   7.735  17.383  0.00  0.00    +0.000 NA
ATOM      4  C   UNL     1       3.971   6.412  17.671  0.00  0.00    +0.000 A 
ATOM      5  C   UNL     1       2.908   5.982  18.477  0.00  0.00    +0.000 A 
ATOM      6  N   UNL     1       1.992   6.859  18.977  0.00  0.00    +0.000 NA
ENDROOT
BRANCH   1  10
ATOM      7  C   UNL     1      -0.902  10.967  19.802  0.00  0.00    +0.000 A 
ATOM      8  C   UNL     1      -0.248  10.220  20.771  0.00  0.00    +0.000 A 
ATOM      9  C   UNL     1       0.729   9.291  20.380  0.00  0.00    +0.000 A 
ATOM     10  C   UNL     1       1.069   9.101  19.023  0.00  0.00    +0.000 A 
ATOM     11  C   UNL     1       0.376   9.880  18.072  0.00  0.00    +0.000 A 
ATOM     12  C   UNL     1      -0.599  10.804  18.457  0.00  0.00    +0.000 A 
BRANCH   7  13
ATOM     13  O   UNL     1      -1.852  11.885  20.134  0.00  0.00    +0.000 OA
ATOM     14  H   UNL     1      -2.284  12.192  19.319  0.00  0.00    +0.000 HD
ENDBRANCH   7  13
ENDBRANCH   1  10
BRANCH   4  15
ATOM     15  C   UNL     1       4.990   5.576  17.004  0.00  0.00    +0.000 A 
ATOM     16  C   UNL     1       4.848   5.097  15.690  0.00  0.00    +0.000 A 
ATOM     17  C   UNL     1       5.905   4.460  15.032  0.00  0.00    +0.000 A 
ATOM     18  C   UNL     1       7.102   4.221  15.699  0.00  0.00    +0.000 A 
ATOM     19  C   UNL     1       7.239   4.603  17.029  0.00  0.00    +0.000 A 
ATOM     20  C   UNL     1       6.195   5.274  17.671  0.00  0.00    +0.000 A 
ENDBRANCH   4  15
BRANCH   5  21
ATOM     21  C   UNL     1       2.603   4.574  18.834  0.00  0.00    +0.000 A 
ATOM     22  C   UNL     1       1.541   3.891  18.210  0.00  0.00    +0.000 A 
ATOM     23  C   UNL     1       1.226   2.569  18.545  0.00  0.00    +0.000 A 
ATOM     24  C   UNL     1       1.955   1.906  19.526  0.00  0.00    +0.000 A 
ATOM     25  C   UNL     1       3.021   2.548  20.145  0.00  0.00    +0.000 A 
ATOM     26  C   UNL     1       3.361   3.852  19.777  0.00  0.00    +0.000 A 
ENDBRANCH   5  21
TORSDOF 4
ENDMDL
MODEL 7
REMARK VINA RESULT:      -7.9      2.173      2.556
REMARK  Name = 
REMARK  4 active torsions:
REMARK  status: ('A' for Active; 'I' for Inactive)
REMARK    1  A    between atoms: O_1  and  C_2
REMARK    2  A    between atoms: C_5  and  C_6
REMARK    3  A    between atoms: C_9  and  C_10
REMARK    4  A    between atoms: C_16  and  C_17
REMARK                            x       y       z     vdW  Elec       q    Type
REMARK                         _______ _______ _______ _____ _____    ______ ____
ROOT
ATOM      1  C   UNL     1       1.182   8.601  20.367  0.00  0.00    +0.000 A 
ATOM      2  N   UNL     1       1.840   9.089  19.298  0.00  0.00    +0.000 NA
ATOM      3  N   UNL     1       2.584   8.250  18.524  0.00  0.00    +0.000 NA
ATOM      4  C   UNL     1       2.644   6.926  18.817  0.00  0.00    +0.000 A 
ATOM      5  C   UNL     1       1.948   6.462  19.941  0.00  0.00    +0.000 A 
ATOM      6  N   UNL     1       1.232   7.307  20.736  0.00  0.00    +0.000 NA
ENDROOT
BRANCH   1  10
ATOM      7  C   UNL     1      -1.330  11.293  22.582  0.00  0.00    +0.000 A 
ATOM      8  C   UNL     1      -0.830  10.158  23.204  0.00  0.00    +0.000 A 
ATOM      9  C   UNL     1      -0.021   9.274  22.473  0.00  0.00    +0.000 A 
ATOM     10  C   UNL     1       0.302   9.513  21.120  0.00  0.00    +0.000 A 
ATOM     11  C   UNL     1      -0.231  10.678  20.528  0.00  0.00    +0.000 A 
ATOM     12  C   UNL     1      -1.038  11.560  21.252  0.00  0.00    +0.000 A 
BRANCH   7  13
ATOM     13  O   UNL     1      -2.112  12.184  23.253  0.00  0.00    +0.000 OA
ATOM     14  H   UNL     1      -2.611  11.705  23.937  0.00  0.00    +0.000 HD
ENDBRANCH   7  13
ENDBRANCH   1  10
BRANCH   4  15
ATOM     15  C   UNL     1       3.395   6.125  17.829  0.00  0.00    +0.000 A 
ATOM     16  C   UNL     1       4.421   6.658  17.030  0.00  0.00    +0.000 A 
ATOM     17  C   UNL     1       5.225   5.834  16.236  0.00  0.00    +0.000 A 
ATOM     18  C   UNL     1       4.974   4.468  16.167  0.00  0.00    +0.000 A 
ATOM     19  C   UNL     1       3.909   3.925  16.877  0.00  0.00    +0.000 A 
ATOM     20  C   UNL     1       3.131   4.745  17.699  0.00  0.00    +0.000 A 
ENDBRANCH   4  15
BRANCH   5  21
ATOM     21  C   UNL     1       1.839   5.045  20.372  0.00  0.00    +0.000 A 
ATOM     22  C   UNL     1       0.875   4.194  19.798  0.00  0.00    +0.000 A 
ATOM     23  C   UNL     1       0.744   2.860  20.202  0.00  0.00    +0.000 A 
ATOM     24  C   UNL     1       1.564   2.353  21.204  0.00  0.00    +0.000 A 
ATOM     25  C   UNL     1       2.537   3.164  21.775  0.00  0.00    +0.000 A 
ATOM     26  C   UNL     1       2.694   4.482  21.338  0.00  0.00    +0.000 A 
ENDBRANCH   5  21
TORSDOF 4
ENDMDL
MODEL 8
REMARK VINA RESULT:      -7.9      2.158      2.700
REMARK  Name = 
REMARK  4 active torsions:
REMARK  status: ('A' for Active; 'I' for Inactive)
REMARK    1  A    between atoms: O_1  and  C_2
REMARK    2  A    between atoms: C_5  and  C_6
REMARK    3  A    between atoms: C_9  and  C_10
REMARK    4  A    between atoms: C_16  and  C_17
REMARK                            x       y       z     vdW  Elec       q    Type
REMARK                         _______ _______ _______ _____ _____    ______ ____
ROOT
ATOM      1  C   UNL     1       1.254   8.572  20.346  0.00  0.00    +0.000 A 
ATOM      2  N   UNL     1       1.933   9.056  19.288  0.00  0.00    +0.000 NA
ATOM      3  N   UNL     1       2.663   8.208  18.510  0.00  0.00    +0.000 NA
ATOM      4  C   UNL     1       2.687   6.880  18.788  0.00  0.00    +0.000 A 
ATOM      5  C   UNL     1       1.970   6.420  19.900  0.00  0.00    +0.000 A 
ATOM      6  N   UNL     1       1.269   7.273  20.700  0.00  0.00    +0.000 NA
ENDROOT
BRANCH   1  10
ATOM      7  C   UNL     1      -1.312  11.237  22.532  0.00  0.00    +0.000 A 
ATOM      8  C   UNL     1      -1.029  11.501  21.200  0.00  0.00    +0.000 A 
ATOM      9  C   UNL     1      -0.179  10.636  20.493  0.00  0.00    +0.000 A 
ATOM     10  C   UNL     1       0.392   9.498  21.102  0.00  0.00    +0.000 A 
ATOM     11  C   UNL     1       0.079   9.271  22.460  0.00  0.00    +0.000 A 
ATOM     12  C   UNL     1      -0.765  10.131  23.167  0.00  0.00    +0.000 A 
BRANCH   7  13
ATOM     13  O   UNL     1      -2.137  12.044  23.256  0.00  0.00    +0.000 OA
ATOM     14  H   UNL     1      -2.533  12.699  22.657  0.00  0.00    +0.000 HD
ENDBRANCH   7  13
ENDBRANCH   1  10
BRANCH   4  15
ATOM     15  C   UNL     1       3.425   6.072  17.796  0.00  0.00    +0.000 A 
ATOM     16  C   UNL     1       4.393   6.614  16.932  0.00  0.00    +0.000 A 
ATOM     17  C   UNL     1       5.194   5.792  16.133  0.00  0.00    +0.000 A 
ATOM     18  C   UNL     1       4.995   4.416  16.124  0.00  0.00    +0.000 A 
ATOM     19  C   UNL     1       3.985   3.859  16.901  0.00  0.00    +0.000 A 
ATOM     20  C   UNL     1       3.212   4.679  17.728  0.00  0.00    +0.000 A 
ENDBRANCH   4  15
BRANCH   5  21
ATOM     21  C   UNL     1       1.822   5.002  20.313  0.00  0.00    +0.000 A 
ATOM     22  C   UNL     1       2.626   4.466  21.337  0.00  0.00    +0.000 A 
ATOM     23  C   UNL     1       2.515   3.126  21.729  0.00  0.00    +0.000 A 
ATOM     24  C   UNL     1       1.607   2.288  21.091  0.00  0.00    +0.000 A 
ATOM     25  C   UNL     1       0.787   2.793  20.090  0.00  0.00    +0.000 A 
ATOM     26  C   UNL     1       0.870   4.142  19.732  0.00  0.00    +0.000 A 
ENDBRANCH   5  21
TORSDOF 4
ENDMDL
MODEL 9
REMARK VINA RESULT:      -7.8      1.230      1.465
REMARK  Name = 
REMARK  4 active torsions:
REMARK  status: ('A' for Active; 'I' for Inactive)
REMARK    1  A    between atoms: O_1  and  C_2
REMARK    2  A    between atoms: C_5  and  C_6
REMARK    3  A    between atoms: C_9  and  C_10
REMARK    4  A    between atoms: C_16  and  C_17
REMARK                            x       y       z     vdW  Elec       q    Type
REMARK                         _______ _______ _______ _____ _____    ______ ____
ROOT
ATOM      1  C   UNL     1       2.047   8.304  18.902  0.00  0.00    +0.000 A 
ATOM      2  N   UNL     1       2.843   8.624  17.863  0.00  0.00    +0.000 NA
ATOM      3  N   UNL     1       3.780   7.733  17.432  0.00  0.00    +0.000 NA
ATOM      4  C   UNL     1       3.895   6.522  18.033  0.00  0.00    +0.000 A 
ATOM      5  C   UNL     1       3.050   6.232  19.113  0.00  0.00    +0.000 A 
ATOM      6  N   UNL     1       2.138   7.137  19.567  0.00  0.00    +0.000 NA
ENDROOT
BRANCH   1  10
ATOM      7  C   UNL     1      -1.032  11.096  19.992  0.00  0.00    +0.000 A 
ATOM      8  C   UNL     1      -0.339  10.421  20.986  0.00  0.00    +0.000 A 
ATOM      9  C   UNL     1       0.657   9.499  20.626  0.00  0.00    +0.000 A 
ATOM     10  C   UNL     1       0.976   9.245  19.274  0.00  0.00    +0.000 A 
ATOM     11  C   UNL     1       0.242   9.952  18.297  0.00  0.00    +0.000 A 
ATOM     12  C   UNL     1      -0.751  10.868  18.652  0.00  0.00    +0.000 A 
BRANCH   7  13
ATOM     13  O   UNL     1      -2.001  12.004  20.294  0.00  0.00    +0.000 OA
ATOM     14  H   UNL     1      -2.866  11.562  20.248  0.00  0.00    +0.000 HD
ENDBRANCH   7  13
ENDBRANCH   1  10
BRANCH   4  15
ATOM     15  C   UNL     1       4.873   5.622  17.389  0.00  0.00    +0.000 A 
ATOM     16  C   UNL     1       4.546   4.778  16.313  0.00  0.00    +0.000 A 
ATOM     17  C   UNL     1       5.534   4.074  15.617  0.00  0.00    +0.000 A 
ATOM     18  C   UNL     1       6.861   4.139  16.028  0.00  0.00    +0.000 A 
ATOM     19  C   UNL     1       7.201   4.894  17.145  0.00  0.00    +0.000 A 
ATOM     20  C   UNL     1       6.218   5.628  17.814  0.00  0.00    +0.000 A 
ENDBRANCH   4  15
BRANCH   5  21
ATOM     21  C   UNL     1       2.983   4.940  19.841  0.00  0.00    +0.000 A 
ATOM     22  C   UNL     1       2.067   4.759  20.895  0.00  0.00    +0.000 A 
ATOM     23  C   UNL     1       2.000   3.555  21.606  0.00  0.00    +0.000 A 
ATOM     24  C   UNL     1       2.862   2.510  21.290  0.00  0.00    +0.000 A 
ATOM     25  C   UNL     1       3.763   2.654  20.242  0.00  0.00    +0.000 A 
ATOM     26  C   UNL     1       3.797   3.841  19.505  0.00  0.00    +0.000 A 
ENDBRANCH   5  21
TORSDOF 4
ENDMDL
