MODEL 1
REMARK VINA RESULT:      -9.2      0.000      0.000
REMARK  Name = 
REMARK  3 active torsions:
REMARK  status: ('A' for Active; 'I' for Inactive)
REMARK    1  A    between atoms: C_2  and  C_15
REMARK    2  A    between atoms: N_3  and  C_4
REMARK    3  A    between atoms: C_8  and  C_9
REMARK                            x       y       z     vdW  Elec       q    Type
REMARK                         _______ _______ _______ _____ _____    ______ ____
ROOT
ATOM      1  O   UNL     1       4.049   5.578  16.805  0.00  0.00    +0.000 OA
ATOM      2  C   UNL     1       4.171   4.359  16.882  0.00  0.00    +0.000 C 
ATOM      3  N   UNL     1       5.055   3.590  16.148  0.00  0.00    +0.000 N 
ATOM      4  H   UNL     1       5.091   2.582  16.255  0.00  0.00    +0.000 HD
ENDROOT
BRANCH   2   5
ATOM      5  C   UNL     1       3.299   3.622  17.837  0.00  0.00    +0.000 A 
ATOM      6  C   UNL     1       3.224   2.220  17.821  0.00  0.00    +0.000 A 
ATOM      7  C   UNL     1       2.425   1.533  18.750  0.00  0.00    +0.000 A 
ATOM      8  C   UNL     1       1.694   2.231  19.714  0.00  0.00    +0.000 A 
ATOM      9  C   UNL     1       1.786   3.613  19.740  0.00  0.00    +0.000 A 
ATOM     10  C   UNL     1       2.578   4.309  18.815  0.00  0.00    +0.000 A 
ATOM     11  C   UNL     1       2.442   5.789  19.037  0.00  0.00    +0.000 C 
ATOM     12  C   UNL     1       1.894   5.835  20.468  0.00  0.00    +0.000 C 
ATOM     13  C   UNL     1       1.076   4.556  20.662  0.00  0.00    +0.000 C 
ENDBRANCH   2   5
BRANCH   3  14
ATOM     14  C   UNL     1       5.929   4.108  15.200  0.00  0.00    +0.000 A 
ATOM     15  C   UNL     1       5.997   3.794  13.867  0.00  0.00    +0.000 A 
ATOM     16  N   UNL     1       7.022   4.515  13.352  0.00  0.00    +0.000 N 
ATOM     17  N   UNL     1       7.652   5.278  14.253  0.00  0.00    +0.000 NA
ATOM     18  C   UNL     1       6.985   5.053  15.406  0.00  0.00    +0.000 A 
ATOM     19  H   UNL     1       7.360   4.519  12.393  0.00  0.00    +0.000 HD
BRANCH  18  20
ATOM     20  C   UNL     1       7.389   5.692  16.662  0.00  0.00    +0.000 A 
ATOM     21  C   UNL     1       7.607   4.910  17.795  0.00  0.00    +0.000 A 
ATOM     22  C   UNL     1       7.953   5.534  18.988  0.00  0.00    +0.000 A 
ATOM     23  C   UNL     1       8.107   6.914  19.008  0.00  0.00    +0.000 A 
ATOM     24  C   UNL     1       7.887   7.618  17.833  0.00  0.00    +0.000 A 
ATOM     25  N   UNL     1       7.503   7.049  16.668  0.00  0.00    +0.000 NA
ENDBRANCH  18  20
ENDBRANCH   3  14
TORSDOF 3
ENDMDL
MODEL 2
REMARK VINA RESULT:      -9.2      2.736      5.041
REMARK  Name = 
REMARK  3 active torsions:
REMARK  status: ('A' for Active; 'I' for Inactive)
REMARK    1  A    between atoms: C_2  and  C_15
REMARK    2  A    between atoms: N_3  and  C_4
REMARK    3  A    between atoms: C_8  and  C_9
REMARK                            x       y       z     vdW  Elec       q    Type
REMARK                         _______ _______ _______ _____ _____    ______ ____
ROOT
ATOM      1  O   UNL     1       3.283   5.823  20.030  0.00  0.00    +0.000 OA
ATOM      2  C   UNL     1       2.561   6.149  19.093  0.00  0.00    +0.000 C 
ATOM      3  N   UNL     1       2.065   5.295  18.124  0.00  0.00    +0.000 N 
ATOM      4  H   UNL     1       1.483   5.639  17.368  0.00  0.00    +0.000 HD
ENDROOT
BRANCH   2   5
ATOM      5  C   UNL     1       2.176   7.581  18.962  0.00  0.00    +0.000 A 
ATOM      6  C   UNL     1       2.492   8.318  17.810  0.00  0.00    +0.000 A 
ATOM      7  C   UNL     1       2.093   9.658  17.683  0.00  0.00    +0.000 A 
ATOM      8  C   UNL     1       1.365  10.283  18.698  0.00  0.00    +0.000 A 
ATOM      9  C   UNL     1       1.037   9.547  19.826  0.00  0.00    +0.000 A 
ATOM     10  C   UNL     1       1.434   8.209  19.963  0.00  0.00    +0.000 A 
ATOM     11  C   UNL     1       0.997   7.682  21.301  0.00  0.00    +0.000 C 
ATOM     12  C   UNL     1      -0.095   8.687  21.685  0.00  0.00    +0.000 C 
ATOM     13  C   UNL     1       0.292  10.019  21.036  0.00  0.00    +0.000 C 
ENDBRANCH   2   5
BRANCH   3  14
ATOM     14  C   UNL     1       2.337   3.933  18.080  0.00  0.00    +0.000 A 
ATOM     15  C   UNL     1       1.504   2.904  18.437  0.00  0.00    +0.000 A 
ATOM     16  N   UNL     1       2.208   1.759  18.264  0.00  0.00    +0.000 N 
ATOM     17  N   UNL     1       3.459   1.956  17.828  0.00  0.00    +0.000 NA
ATOM     18  C   UNL     1       3.559   3.296  17.693  0.00  0.00    +0.000 A 
ATOM     19  H   UNL     1       1.902   0.807  18.444  0.00  0.00    +0.000 HD
BRANCH  18  20
ATOM     20  C   UNL     1       4.806   3.930  17.256  0.00  0.00    +0.000 A 
ATOM     21  C   UNL     1       5.022   4.167  15.900  0.00  0.00    +0.000 A 
ATOM     22  C   UNL     1       6.225   4.734  15.498  0.00  0.00    +0.000 A 
ATOM     23  C   UNL     1       7.163   5.081  16.461  0.00  0.00    +0.000 A 
ATOM     24  C   UNL     1       6.866   4.826  17.791  0.00  0.00    +0.000 A 
ATOM     25  N   UNL     1       5.726   4.232  18.214  0.00  0.00    +0.000 NA
ENDBRANCH  18  20
ENDBRANCH   3  14
TORSDOF 3
ENDMDL
MODEL 3
REMARK VINA RESULT:      -9.2      1.100      1.630
REMARK  Name = 
REMARK  3 active torsions:
REMARK  status: ('A' for Active; 'I' for Inactive)
REMARK    1  A    between atoms: C_2  and  C_15
REMARK    2  A    between atoms: N_3  and  C_4
REMARK    3  A    between atoms: C_8  and  C_9
REMARK                            x       y       z     vdW  Elec       q    Type
REMARK                         _______ _______ _______ _____ _____    ______ ____
ROOT
ATOM      1  O   UNL     1       4.079   5.977  16.896  0.00  0.00    +0.000 OA
ATOM      2  C   UNL     1       3.986   4.755  16.939  0.00  0.00    +0.000 C 
ATOM      3  N   UNL     1       4.721   3.864  16.177  0.00  0.00    +0.000 N 
ATOM      4  H   UNL     1       4.581   2.863  16.257  0.00  0.00    +0.000 HD
ENDROOT
BRANCH   2   5
ATOM      5  C   UNL     1       3.001   4.154  17.878  0.00  0.00    +0.000 A 
ATOM      6  C   UNL     1       1.623   4.188  17.610  0.00  0.00    +0.000 A 
ATOM      7  C   UNL     1       0.706   3.586  18.486  0.00  0.00    +0.000 A 
ATOM      8  C   UNL     1       1.146   2.935  19.640  0.00  0.00    +0.000 A 
ATOM      9  C   UNL     1       2.507   2.886  19.893  0.00  0.00    +0.000 A 
ATOM     10  C   UNL     1       3.432   3.486  19.026  0.00  0.00    +0.000 A 
ATOM     11  C   UNL     1       4.822   3.331  19.575  0.00  0.00    +0.000 C 
ATOM     12  C   UNL     1       4.634   2.175  20.564  0.00  0.00    +0.000 C 
ATOM     13  C   UNL     1       3.193   2.267  21.072  0.00  0.00    +0.000 C 
ENDBRANCH   2   5
BRANCH   3  14
ATOM     14  C   UNL     1       5.671   4.248  15.238  0.00  0.00    +0.000 A 
ATOM     15  C   UNL     1       5.716   3.910  13.910  0.00  0.00    +0.000 A 
ATOM     16  N   UNL     1       6.835   4.482  13.404  0.00  0.00    +0.000 N 
ATOM     17  N   UNL     1       7.548   5.166  14.307  0.00  0.00    +0.000 NA
ATOM     18  C   UNL     1       6.839   5.048  15.450  0.00  0.00    +0.000 A 
ATOM     19  H   UNL     1       7.185   4.428  12.450  0.00  0.00    +0.000 HD
BRANCH  18  20
ATOM     20  C   UNL     1       7.306   5.645  16.705  0.00  0.00    +0.000 A 
ATOM     21  C   UNL     1       7.568   4.827  17.803  0.00  0.00    +0.000 A 
ATOM     22  C   UNL     1       7.973   5.411  18.997  0.00  0.00    +0.000 A 
ATOM     23  C   UNL     1       8.140   6.789  19.052  0.00  0.00    +0.000 A 
ATOM     24  C   UNL     1       7.874   7.530  17.911  0.00  0.00    +0.000 A 
ATOM     25  N   UNL     1       7.431   7.000  16.747  0.00  0.00    +0.000 NA
ENDBRANCH  18  20
ENDBRANCH   3  14
TORSDOF 3
ENDMDL
MODEL 4
REMARK VINA RESULT:      -9.1      0.690      1.051
REMARK  Name = 
REMARK  3 active torsions:
REMARK  status: ('A' for Active; 'I' for Inactive)
REMARK    1  A    between atoms: C_2  and  C_15
REMARK    2  A    between atoms: N_3  and  C_4
REMARK    3  A    between atoms: C_8  and  C_9
REMARK                            x       y       z     vdW  Elec       q    Type
REMARK                         _______ _______ _______ _____ _____    ______ ____
ROOT
ATOM      1  O   UNL     1       3.974   5.725  16.874  0.00  0.00    +0.000 OA
ATOM      2  C   UNL     1       4.005   4.499  16.883  0.00  0.00    +0.000 C 
ATOM      3  N   UNL     1       4.863   3.708  16.139  0.00  0.00    +0.000 N 
ATOM      4  H   UNL     1       4.821   2.697  16.188  0.00  0.00    +0.000 HD
ENDROOT
BRANCH   2   5
ATOM      5  C   UNL     1       3.041   3.775  17.756  0.00  0.00    +0.000 A 
ATOM      6  C   UNL     1       2.794   2.403  17.588  0.00  0.00    +0.000 A 
ATOM      7  C   UNL     1       1.909   1.723  18.440  0.00  0.00    +0.000 A 
ATOM      8  C   UNL     1       1.261   2.397  19.478  0.00  0.00    +0.000 A 
ATOM      9  C   UNL     1       1.521   3.746  19.653  0.00  0.00    +0.000 A 
ATOM     10  C   UNL     1       2.401   4.435  18.806  0.00  0.00    +0.000 A 
ATOM     11  C   UNL     1       2.446   5.888  19.188  0.00  0.00    +0.000 C 
ATOM     12  C   UNL     1       1.896   5.846  20.619  0.00  0.00    +0.000 C 
ATOM     13  C   UNL     1       0.925   4.663  20.676  0.00  0.00    +0.000 C 
ENDBRANCH   2   5
BRANCH   3  14
ATOM     14  C   UNL     1       5.813   4.213  15.260  0.00  0.00    +0.000 A 
ATOM     15  C   UNL     1       5.903   3.991  13.910  0.00  0.00    +0.000 A 
ATOM     16  N   UNL     1       7.005   4.653  13.482  0.00  0.00    +0.000 N 
ATOM     17  N   UNL     1       7.665   5.291  14.457  0.00  0.00    +0.000 NA
ATOM     18  C   UNL     1       6.938   5.044  15.568  0.00  0.00    +0.000 A 
ATOM     19  H   UNL     1       7.378   4.695  12.537  0.00  0.00    +0.000 HD
BRANCH  18  20
ATOM     20  C   UNL     1       7.349   5.554  16.880  0.00  0.00    +0.000 A 
ATOM     21  C   UNL     1       7.529   6.924  17.063  0.00  0.00    +0.000 A 
ATOM     22  C   UNL     1       7.956   7.388  18.302  0.00  0.00    +0.000 A 
ATOM     23  C   UNL     1       8.155   6.478  19.331  0.00  0.00    +0.000 A 
ATOM     24  C   UNL     1       7.938   5.133  19.072  0.00  0.00    +0.000 A 
ATOM     25  N   UNL     1       7.570   4.642  17.866  0.00  0.00    +0.000 NA
ENDBRANCH  18  20
ENDBRANCH   3  14
TORSDOF 3
ENDMDL
MODEL 5
REMARK VINA RESULT:      -8.9      2.713      4.988
REMARK  Name = 
REMARK  3 active torsions:
REMARK  status: ('A' for Active; 'I' for Inactive)
REMARK    1  A    between atoms: C_2  and  C_15
REMARK    2  A    between atoms: N_3  and  C_4
REMARK    3  A    between atoms: C_8  and  C_9
REMARK                            x       y       z     vdW  Elec       q    Type
REMARK                         _______ _______ _______ _____ _____    ______ ____
ROOT
ATOM      1  O   UNL     1       3.289   5.843  20.052  0.00  0.00    +0.000 OA
ATOM      2  C   UNL     1       2.577   6.164  19.106  0.00  0.00    +0.000 C 
ATOM      3  N   UNL     1       2.102   5.308  18.128  0.00  0.00    +0.000 N 
ATOM      4  H   UNL     1       1.528   5.648  17.365  0.00  0.00    +0.000 HD
ENDROOT
BRANCH   2   5
ATOM      5  C   UNL     1       2.181   7.592  18.973  0.00  0.00    +0.000 A 
ATOM      6  C   UNL     1       2.496   8.331  17.821  0.00  0.00    +0.000 A 
ATOM      7  C   UNL     1       2.087   9.668  17.692  0.00  0.00    +0.000 A 
ATOM      8  C   UNL     1       1.351  10.288  18.704  0.00  0.00    +0.000 A 
ATOM      9  C   UNL     1       1.026   9.551  19.831  0.00  0.00    +0.000 A 
ATOM     10  C   UNL     1       1.432   8.216  19.971  0.00  0.00    +0.000 A 
ATOM     11  C   UNL     1       0.995   7.687  21.308  0.00  0.00    +0.000 C 
ATOM     12  C   UNL     1      -0.106   8.684  21.687  0.00  0.00    +0.000 C 
ATOM     13  C   UNL     1       0.273  10.018  21.038  0.00  0.00    +0.000 C 
ENDBRANCH   2   5
BRANCH   3  14
ATOM     14  C   UNL     1       2.387   3.948  18.085  0.00  0.00    +0.000 A 
ATOM     15  C   UNL     1       1.570   2.912  18.461  0.00  0.00    +0.000 A 
ATOM     16  N   UNL     1       2.282   1.774  18.280  0.00  0.00    +0.000 N 
ATOM     17  N   UNL     1       3.523   1.981  17.823  0.00  0.00    +0.000 NA
ATOM     18  C   UNL     1       3.608   3.321  17.681  0.00  0.00    +0.000 A 
ATOM     19  H   UNL     1       1.988   0.819  18.469  0.00  0.00    +0.000 HD
BRANCH  18  20
ATOM     20  C   UNL     1       4.842   3.965  17.221  0.00  0.00    +0.000 A 
ATOM     21  C   UNL     1       5.804   4.358  18.150  0.00  0.00    +0.000 A 
ATOM     22  C   UNL     1       6.951   5.002  17.701  0.00  0.00    +0.000 A 
ATOM     23  C   UNL     1       7.123   5.203  16.337  0.00  0.00    +0.000 A 
ATOM     24  C   UNL     1       6.125   4.768  15.477  0.00  0.00    +0.000 A 
ATOM     25  N   UNL     1       4.975   4.182  15.883  0.00  0.00    +0.000 NA
ENDBRANCH  18  20
ENDBRANCH   3  14
TORSDOF 3
ENDMDL
MODEL 6
REMARK VINA RESULT:      -8.9      1.286      1.909
REMARK  Name = 
REMARK  3 active torsions:
REMARK  status: ('A' for Active; 'I' for Inactive)
REMARK    1  A    between atoms: C_2  and  C_15
REMARK    2  A    between atoms: N_3  and  C_4
REMARK    3  A    between atoms: C_8  and  C_9
REMARK                            x       y       z     vdW  Elec       q    Type
REMARK                         _______ _______ _______ _____ _____    ______ ____
ROOT
ATOM      1  O   UNL     1       3.974   5.956  17.051  0.00  0.00    +0.000 OA
ATOM      2  C   UNL     1       3.895   4.731  17.067  0.00  0.00    +0.000 C 
ATOM      3  N   UNL     1       4.655   3.865  16.301  0.00  0.00    +0.000 N 
ATOM      4  H   UNL     1       4.524   2.861  16.357  0.00  0.00    +0.000 HD
ENDROOT
BRANCH   2   5
ATOM      5  C   UNL     1       2.899   4.099  17.974  0.00  0.00    +0.000 A 
ATOM      6  C   UNL     1       1.530   4.088  17.659  0.00  0.00    +0.000 A 
ATOM      7  C   UNL     1       0.604   3.458  18.506  0.00  0.00    +0.000 A 
ATOM      8  C   UNL     1       1.026   2.823  19.676  0.00  0.00    +0.000 A 
ATOM      9  C   UNL     1       2.379   2.819  19.974  0.00  0.00    +0.000 A 
ATOM     10  C   UNL     1       3.312   3.448  19.137  0.00  0.00    +0.000 A 
ATOM     11  C   UNL     1       4.688   3.339  19.733  0.00  0.00    +0.000 C 
ATOM     12  C   UNL     1       4.505   2.179  20.718  0.00  0.00    +0.000 C 
ATOM     13  C   UNL     1       3.045   2.225  21.177  0.00  0.00    +0.000 C 
ENDBRANCH   2   5
BRANCH   3  14
ATOM     14  C   UNL     1       5.618   4.280  15.389  0.00  0.00    +0.000 A 
ATOM     15  C   UNL     1       5.660   4.019  14.043  0.00  0.00    +0.000 A 
ATOM     16  N   UNL     1       6.796   4.591  13.575  0.00  0.00    +0.000 N 
ATOM     17  N   UNL     1       7.521   5.204  14.518  0.00  0.00    +0.000 NA
ATOM     18  C   UNL     1       6.804   5.037  15.651  0.00  0.00    +0.000 A 
ATOM     19  H   UNL     1       7.148   4.584  12.621  0.00  0.00    +0.000 HD
BRANCH  18  20
ATOM     20  C   UNL     1       7.280   5.548  16.940  0.00  0.00    +0.000 A 
ATOM     21  C   UNL     1       7.486   6.916  17.107  0.00  0.00    +0.000 A 
ATOM     22  C   UNL     1       7.973   7.382  18.323  0.00  0.00    +0.000 A 
ATOM     23  C   UNL     1       8.207   6.474  19.348  0.00  0.00    +0.000 A 
ATOM     24  C   UNL     1       7.962   5.131  19.106  0.00  0.00    +0.000 A 
ATOM     25  N   UNL     1       7.534   4.638  17.921  0.00  0.00    +0.000 NA
ENDBRANCH  18  20
ENDBRANCH   3  14
TORSDOF 3
ENDMDL
MODEL 7
REMARK VINA RESULT:      -8.7      3.029      5.293
REMARK  Name = 
REMARK  3 active torsions:
REMARK  status: ('A' for Active; 'I' for Inactive)
REMARK    1  A    between atoms: C_2  and  C_15
REMARK    2  A    between atoms: N_3  and  C_4
REMARK    3  A    between atoms: C_8  and  C_9
REMARK                            x       y       z     vdW  Elec       q    Type
REMARK                         _______ _______ _______ _____ _____    ______ ____
ROOT
ATOM      1  O   UNL     1       1.886   5.567  17.947  0.00  0.00    +0.000 OA
ATOM      2  C   UNL     1       2.356   6.253  18.849  0.00  0.00    +0.000 C 
ATOM      3  N   UNL     1       3.133   5.786  19.895  0.00  0.00    +0.000 N 
ATOM      4  H   UNL     1       3.477   6.411  20.615  0.00  0.00    +0.000 HD
ENDROOT
BRANCH   2   5
ATOM      5  C   UNL     1       2.077   7.715  18.844  0.00  0.00    +0.000 A 
ATOM      6  C   UNL     1       2.417   8.518  17.744  0.00  0.00    +0.000 A 
ATOM      7  C   UNL     1       2.117   9.890  17.736  0.00  0.00    +0.000 A 
ATOM      8  C   UNL     1       1.467  10.482  18.821  0.00  0.00    +0.000 A 
ATOM      9  C   UNL     1       1.115   9.684  19.897  0.00  0.00    +0.000 A 
ATOM     10  C   UNL     1       1.413   8.313  19.916  0.00  0.00    +0.000 A 
ATOM     11  C   UNL     1       0.975   7.713  21.222  0.00  0.00    +0.000 C 
ATOM     12  C   UNL     1      -0.028   8.761  21.720  0.00  0.00    +0.000 C 
ATOM     13  C   UNL     1       0.441  10.109  21.165  0.00  0.00    +0.000 C 
ENDBRANCH   2   5
BRANCH   3  14
ATOM     14  C   UNL     1       3.477   4.450  20.067  0.00  0.00    +0.000 A 
ATOM     15  C   UNL     1       2.942   3.559  20.961  0.00  0.00    +0.000 A 
ATOM     16  N   UNL     1       3.612   2.394  20.793  0.00  0.00    +0.000 N 
ATOM     17  N   UNL     1       4.566   2.450  19.856  0.00  0.00    +0.000 NA
ATOM     18  C   UNL     1       4.494   3.712  19.381  0.00  0.00    +0.000 A 
ATOM     19  H   UNL     1       3.481   1.522  21.300  0.00  0.00    +0.000 HD
BRANCH  18  20
ATOM     20  C   UNL     1       5.409   4.193  18.341  0.00  0.00    +0.000 A 
ATOM     21  C   UNL     1       4.986   4.231  17.014  0.00  0.00    +0.000 A 
ATOM     22  C   UNL     1       5.878   4.653  16.034  0.00  0.00    +0.000 A 
ATOM     23  C   UNL     1       7.152   5.058  16.411  0.00  0.00    +0.000 A 
ATOM     24  C   UNL     1       7.489   5.005  17.755  0.00  0.00    +0.000 A 
ATOM     25  N   UNL     1       6.664   4.554  18.728  0.00  0.00    +0.000 NA
ENDBRANCH  18  20
ENDBRANCH   3  14
TORSDOF 3
ENDMDL
MODEL 8
REMARK VINA RESULT:      -8.7      3.267      5.354
REMARK  Name = 
REMARK  3 active torsions:
REMARK  status: ('A' for Active; 'I' for Inactive)
REMARK    1  A    between atoms: C_2  and  C_15
REMARK    2  A    between atoms: N_3  and  C_4
REMARK    3  A    between atoms: C_8  and  C_9
REMARK                            x       y       z     vdW  Elec       q    Type
REMARK                         _______ _______ _______ _____ _____    ______ ____
ROOT
ATOM      1  O   UNL     1       2.067   6.383  17.758  0.00  0.00    +0.000 OA
ATOM      2  C   UNL     1       2.294   6.919  18.838  0.00  0.00    +0.000 C 
ATOM      3  N   UNL     1       2.916   6.321  19.919  0.00  0.00    +0.000 N 
ATOM      4  H   UNL     1       3.058   6.824  20.788  0.00  0.00    +0.000 HD
ENDROOT
BRANCH   2   5
ATOM      5  C   UNL     1       1.867   8.332  19.029  0.00  0.00    +0.000 A 
ATOM      6  C   UNL     1       2.090   9.301  18.037  0.00  0.00    +0.000 A 
ATOM      7  C   UNL     1       1.651  10.623  18.214  0.00  0.00    +0.000 A 
ATOM      8  C   UNL     1       0.976  11.000  19.377  0.00  0.00    +0.000 A 
ATOM      9  C   UNL     1       0.740  10.038  20.345  0.00  0.00    +0.000 A 
ATOM     10  C   UNL     1       1.177   8.715  20.180  0.00  0.00    +0.000 A 
ATOM     11  C   UNL     1       0.841   7.910  21.404  0.00  0.00    +0.000 C 
ATOM     12  C   UNL     1      -0.248   8.774  22.050  0.00  0.00    +0.000 C 
ATOM     13  C   UNL     1       0.064  10.224  21.668  0.00  0.00    +0.000 C 
ENDBRANCH   2   5
BRANCH   3  14
ATOM     14  C   UNL     1       3.364   5.006  19.924  0.00  0.00    +0.000 A 
ATOM     15  C   UNL     1       2.696   3.898  20.381  0.00  0.00    +0.000 A 
ATOM     16  N   UNL     1       3.535   2.847  20.220  0.00  0.00    +0.000 N 
ATOM     17  N   UNL     1       4.722   3.179  19.699  0.00  0.00    +0.000 NA
ATOM     18  C   UNL     1       4.636   4.511  19.494  0.00  0.00    +0.000 A 
ATOM     19  H   UNL     1       3.368   1.874  20.464  0.00  0.00    +0.000 HD
BRANCH  18  20
ATOM     20  C   UNL     1       5.763   5.276  18.950  0.00  0.00    +0.000 A 
ATOM     21  C   UNL     1       5.649   5.875  17.697  0.00  0.00    +0.000 A 
ATOM     22  C   UNL     1       6.739   6.565  17.179  0.00  0.00    +0.000 A 
ATOM     23  C   UNL     1       7.896   6.669  17.939  0.00  0.00    +0.000 A 
ATOM     24  C   UNL     1       7.923   6.057  19.184  0.00  0.00    +0.000 A 
ATOM     25  N   UNL     1       6.899   5.337  19.698  0.00  0.00    +0.000 NA
ENDBRANCH  18  20
ENDBRANCH   3  14
TORSDOF 3
ENDMDL
MODEL 9
REMARK VINA RESULT:      -8.6      0.834      2.122
REMARK  Name = 
REMARK  3 active torsions:
REMARK  status: ('A' for Active; 'I' for Inactive)
REMARK    1  A    between atoms: C_2  and  C_15
REMARK    2  A    between atoms: N_3  and  C_4
REMARK    3  A    between atoms: C_8  and  C_9
REMARK                            x       y       z     vdW  Elec       q    Type
REMARK                         _______ _______ _______ _____ _____    ______ ____
ROOT
ATOM      1  O   UNL     1       4.021   6.782  17.122  0.00  0.00    +0.000 OA
ATOM      2  C   UNL     1       3.897   5.621  17.499  0.00  0.00    +0.000 C 
ATOM      3  N   UNL     1       4.566   4.529  16.975  0.00  0.00    +0.000 N 
ATOM      4  H   UNL     1       4.402   3.593  17.328  0.00  0.00    +0.000 HD
ENDROOT
BRANCH   2   5
ATOM      5  C   UNL     1       2.948   5.336  18.609  0.00  0.00    +0.000 A 
ATOM      6  C   UNL     1       2.574   6.335  19.523  0.00  0.00    +0.000 A 
ATOM      7  C   UNL     1       1.651   6.063  20.545  0.00  0.00    +0.000 A 
ATOM      8  C   UNL     1       1.080   4.795  20.670  0.00  0.00    +0.000 A 
ATOM      9  C   UNL     1       1.436   3.816  19.756  0.00  0.00    +0.000 A 
ATOM     10  C   UNL     1       2.359   4.077  18.733  0.00  0.00    +0.000 A 
ATOM     11  C   UNL     1       2.601   2.827  17.933  0.00  0.00    +0.000 C 
ATOM     12  C   UNL     1       1.370   1.988  18.295  0.00  0.00    +0.000 C 
ATOM     13  C   UNL     1       0.970   2.393  19.717  0.00  0.00    +0.000 C 
ENDBRANCH   2   5
BRANCH   3  14
ATOM     14  C   UNL     1       5.473   4.608  15.925  0.00  0.00    +0.000 A 
ATOM     15  C   UNL     1       5.398   3.980  14.708  0.00  0.00    +0.000 A 
ATOM     16  N   UNL     1       6.519   4.321  14.028  0.00  0.00    +0.000 N 
ATOM     17  N   UNL     1       7.344   5.122  14.714  0.00  0.00    +0.000 NA
ATOM     18  C   UNL     1       6.711   5.326  15.889  0.00  0.00    +0.000 A 
ATOM     19  H   UNL     1       6.796   4.024  13.096  0.00  0.00    +0.000 HD
BRANCH  18  20
ATOM     20  C   UNL     1       7.309   6.142  16.950  0.00  0.00    +0.000 A 
ATOM     21  C   UNL     1       7.665   5.549  18.160  0.00  0.00    +0.000 A 
ATOM     22  C   UNL     1       8.196   6.344  19.169  0.00  0.00    +0.000 A 
ATOM     23  C   UNL     1       8.390   7.698  18.930  0.00  0.00    +0.000 A 
ATOM     24  C   UNL     1       8.024   8.208  17.694  0.00  0.00    +0.000 A 
ATOM     25  N   UNL     1       7.460   7.474  16.707  0.00  0.00    +0.000 NA
ENDBRANCH  18  20
ENDBRANCH   3  14
TORSDOF 3
ENDMDL
