MODEL 1
REMARK VINA RESULT:      -7.7      0.000      0.000
REMARK  Name = 
REMARK  4 active torsions:
REMARK  status: ('A' for Active; 'I' for Inactive)
REMARK    1  A    between atoms: C_1  and  C_2
REMARK    2  A    between atoms: C_5  and  S_6
REMARK    3  A    between atoms: S_6  and  N_9
REMARK    4  A    between atoms: C_17  and  C_18
REMARK                            x       y       z     vdW  Elec       q    Type
REMARK                         _______ _______ _______ _____ _____    ______ ____
ROOT
ATOM      1  N   UNL     1       1.918   6.933  19.491  0.00  0.00    +0.000 NA
ATOM      2  C   UNL     1       1.950   7.734  20.741  0.00  0.00    +0.000 C 
ATOM      3  C   UNL     1       0.978   8.941  20.622  0.00  0.00    +0.000 C 
ATOM      4  N   UNL     1       1.062   9.638  19.323  0.00  0.00    +0.000 N 
ATOM      5  C   UNL     1       1.182  11.008  19.193  0.00  0.00    +0.000 A 
ATOM      6  N   UNL     1       2.291  11.502  18.691  0.00  0.00    +0.000 NA
ATOM      7  C   UNL     1       2.374  12.854  18.537  0.00  0.00    +0.000 A 
ATOM      8  C   UNL     1       3.396  13.670  18.101  0.00  0.00    +0.000 A 
ATOM      9  C   UNL     1       2.886  14.988  18.155  0.00  0.00    +0.000 A 
ATOM     10  C   UNL     1       3.585  16.248  17.799  0.00  0.00    +0.000 C 
ATOM     11  N   UNL     1       1.621  15.015  18.593  0.00  0.00    +0.000 NA
ATOM     12  N   UNL     1       1.334  13.715  18.834  0.00  0.00    +0.000 N 
ATOM     13  C   UNL     1       0.116  13.261  19.354  0.00  0.00    +0.000 A 
ATOM     14  C   UNL     1      -0.942  14.126  19.647  0.00  0.00    +0.000 A 
ATOM     15  C   UNL     1      -2.125  13.594  20.162  0.00  0.00    +0.000 A 
ATOM     16  C   UNL     1      -2.251  12.217  20.358  0.00  0.00    +0.000 A 
ATOM     17  C   UNL     1      -1.192  11.362  20.042  0.00  0.00    +0.000 A 
ATOM     18  C   UNL     1       0.011  11.883  19.560  0.00  0.00    +0.000 A 
ATOM     19  C   UNL     1       1.168   8.785  18.131  0.00  0.00    +0.000 C 
ATOM     20  C   UNL     1       2.289   7.762  18.318  0.00  0.00    +0.000 C 
ENDROOT
BRANCH   1  21
ATOM     21  S   UNL     1       2.277   5.299  19.480  0.00  0.00    +0.000 S 
ATOM     22  O   UNL     1       1.262   4.631  18.695  0.00  0.00    +0.000 OA
ATOM     23  O   UNL     1       2.547   4.892  20.846  0.00  0.00    +0.000 OA
BRANCH  21  28
ATOM     24  C   UNL     1       7.484   4.771  16.401  0.00  0.00    +0.000 C 
ATOM     25  C   UNL     1       6.205   4.913  17.173  0.00  0.00    +0.000 A 
ATOM     26  C   UNL     1       6.211   5.321  18.514  0.00  0.00    +0.000 A 
ATOM     27  C   UNL     1       5.014   5.460  19.219  0.00  0.00    +0.000 A 
ATOM     28  C   UNL     1       3.801   5.200  18.576  0.00  0.00    +0.000 A 
ATOM     29  C   UNL     1       3.785   4.761  17.249  0.00  0.00    +0.000 A 
ATOM     30  C   UNL     1       4.984   4.626  16.550  0.00  0.00    +0.000 A 
ENDBRANCH  21  28
ENDBRANCH   1  21
TORSDOF 2
ENDMDL
MODEL 2
REMARK VINA RESULT:      -7.6      2.113      3.802
REMARK  Name = 
REMARK  4 active torsions:
REMARK  status: ('A' for Active; 'I' for Inactive)
REMARK    1  A    between atoms: C_1  and  C_2
REMARK    2  A    between atoms: C_5  and  S_6
REMARK    3  A    between atoms: S_6  and  N_9
REMARK    4  A    between atoms: C_17  and  C_18
REMARK                            x       y       z     vdW  Elec       q    Type
REMARK                         _______ _______ _______ _____ _____    ______ ____
ROOT
ATOM      1  N   UNL     1       3.357   6.630  18.663  0.00  0.00    +0.000 NA
ATOM      2  C   UNL     1       3.365   7.465  17.436  0.00  0.00    +0.000 C 
ATOM      3  C   UNL     1       2.945   8.921  17.783  0.00  0.00    +0.000 C 
ATOM      4  N   UNL     1       1.786   8.997  18.694  0.00  0.00    +0.000 N 
ATOM      5  C   UNL     1       0.684   9.800  18.468  0.00  0.00    +0.000 A 
ATOM      6  N   UNL     1      -0.477   9.231  18.234  0.00  0.00    +0.000 NA
ATOM      7  C   UNL     1      -1.559  10.042  18.051  0.00  0.00    +0.000 A 
ATOM      8  C   UNL     1      -2.872   9.766  17.740  0.00  0.00    +0.000 A 
ATOM      9  C   UNL     1      -3.526  11.019  17.688  0.00  0.00    +0.000 A 
ATOM     10  C   UNL     1      -4.954  11.287  17.383  0.00  0.00    +0.000 C 
ATOM     11  N   UNL     1      -2.688  12.030  17.950  0.00  0.00    +0.000 NA
ATOM     12  N   UNL     1      -1.498  11.419  18.152  0.00  0.00    +0.000 N 
ATOM     13  C   UNL     1      -0.302  12.094  18.418  0.00  0.00    +0.000 A 
ATOM     14  C   UNL     1      -0.236  13.486  18.531  0.00  0.00    +0.000 A 
ATOM     15  C   UNL     1       0.995  14.084  18.800  0.00  0.00    +0.000 A 
ATOM     16  C   UNL     1       2.136  13.298  18.974  0.00  0.00    +0.000 A 
ATOM     17  C   UNL     1       2.053  11.906  18.878  0.00  0.00    +0.000 A 
ATOM     18  C   UNL     1       0.835  11.296  18.574  0.00  0.00    +0.000 A 
ATOM     19  C   UNL     1       1.771   8.045  19.813  0.00  0.00    +0.000 C 
ATOM     20  C   UNL     1       2.016   6.627  19.297  0.00  0.00    +0.000 C 
ENDROOT
BRANCH   1  21
ATOM     21  S   UNL     1       4.334   5.280  18.818  0.00  0.00    +0.000 S 
ATOM     22  O   UNL     1       3.471   4.124  18.932  0.00  0.00    +0.000 OA
ATOM     23  O   UNL     1       5.331   5.565  19.832  0.00  0.00    +0.000 OA
BRANCH  21  28
ATOM     24  C   UNL     1       7.244   4.730  13.518  0.00  0.00    +0.000 C 
ATOM     25  C   UNL     1       6.534   4.882  14.831  0.00  0.00    +0.000 A 
ATOM     26  C   UNL     1       7.088   5.643  15.870  0.00  0.00    +0.000 A 
ATOM     27  C   UNL     1       6.412   5.786  17.084  0.00  0.00    +0.000 A 
ATOM     28  C   UNL     1       5.169   5.171  17.256  0.00  0.00    +0.000 A 
ATOM     29  C   UNL     1       4.623   4.382  16.240  0.00  0.00    +0.000 A 
ATOM     30  C   UNL     1       5.302   4.245  15.029  0.00  0.00    +0.000 A 
ENDBRANCH  21  28
ENDBRANCH   1  21
TORSDOF 2
ENDMDL
MODEL 3
REMARK VINA RESULT:      -7.1      1.377      1.578
REMARK  Name = 
REMARK  4 active torsions:
REMARK  status: ('A' for Active; 'I' for Inactive)
REMARK    1  A    between atoms: C_1  and  C_2
REMARK    2  A    between atoms: C_5  and  S_6
REMARK    3  A    between atoms: S_6  and  N_9
REMARK    4  A    between atoms: C_17  and  C_18
REMARK                            x       y       z     vdW  Elec       q    Type
REMARK                         _______ _______ _______ _____ _____    ______ ____
ROOT
ATOM      1  N   UNL     1       3.029   6.513  18.855  0.00  0.00    +0.000 NA
ATOM      2  C   UNL     1       2.461   7.102  20.095  0.00  0.00    +0.000 C 
ATOM      3  C   UNL     1       1.288   8.056  19.738  0.00  0.00    +0.000 C 
ATOM      4  N   UNL     1       1.576   8.941  18.592  0.00  0.00    +0.000 N 
ATOM      5  C   UNL     1       1.360  10.306  18.602  0.00  0.00    +0.000 A 
ATOM      6  N   UNL     1       2.395  11.112  18.534  0.00  0.00    +0.000 NA
ATOM      7  C   UNL     1       2.157  12.455  18.508  0.00  0.00    +0.000 A 
ATOM      8  C   UNL     1       3.007  13.539  18.496  0.00  0.00    +0.000 A 
ATOM      9  C   UNL     1       2.173  14.681  18.464  0.00  0.00    +0.000 A 
ATOM     10  C   UNL     1       2.584  16.107  18.448  0.00  0.00    +0.000 C 
ATOM     11  N   UNL     1       0.876  14.350  18.454  0.00  0.00    +0.000 NA
ATOM     12  N   UNL     1       0.887  12.998  18.497  0.00  0.00    +0.000 N 
ATOM     13  C   UNL     1      -0.264  12.203  18.547  0.00  0.00    +0.000 A 
ATOM     14  C   UNL     1      -1.551  12.746  18.526  0.00  0.00    +0.000 A 
ATOM     15  C   UNL     1      -2.648  11.885  18.578  0.00  0.00    +0.000 A 
ATOM     16  C   UNL     1      -2.456  10.503  18.628  0.00  0.00    +0.000 A 
ATOM     17  C   UNL     1      -1.163   9.972  18.629  0.00  0.00    +0.000 A 
ATOM     18  C   UNL     1      -0.056  10.822  18.614  0.00  0.00    +0.000 A 
ATOM     19  C   UNL     1       2.267   8.326  17.450  0.00  0.00    +0.000 C 
ATOM     20  C   UNL     1       3.507   7.572  17.932  0.00  0.00    +0.000 C 
ENDROOT
BRANCH   1  21
ATOM     21  S   UNL     1       3.797   5.027  18.855  0.00  0.00    +0.000 S 
ATOM     22  O   UNL     1       2.789   4.011  18.638  0.00  0.00    +0.000 OA
ATOM     23  O   UNL     1       4.667   4.974  20.015  0.00  0.00    +0.000 OA
BRANCH  21  28
ATOM     24  C   UNL     1       7.366   5.008  13.943  0.00  0.00    +0.000 C 
ATOM     25  C   UNL     1       6.493   5.027  15.163  0.00  0.00    +0.000 A 
ATOM     26  C   UNL     1       6.904   5.672  16.338  0.00  0.00    +0.000 A 
ATOM     27  C   UNL     1       6.077   5.694  17.463  0.00  0.00    +0.000 A 
ATOM     28  C   UNL     1       4.826   5.074  17.410  0.00  0.00    +0.000 A 
ATOM     29  C   UNL     1       4.419   4.399  16.256  0.00  0.00    +0.000 A 
ATOM     30  C   UNL     1       5.249   4.384  15.134  0.00  0.00    +0.000 A 
ENDBRANCH  21  28
ENDBRANCH   1  21
TORSDOF 2
ENDMDL
MODEL 4
REMARK VINA RESULT:      -7.1      5.620      8.275
REMARK  Name = 
REMARK  4 active torsions:
REMARK  status: ('A' for Active; 'I' for Inactive)
REMARK    1  A    between atoms: C_1  and  C_2
REMARK    2  A    between atoms: C_5  and  S_6
REMARK    3  A    between atoms: S_6  and  N_9
REMARK    4  A    between atoms: C_17  and  C_18
REMARK                            x       y       z     vdW  Elec       q    Type
REMARK                         _______ _______ _______ _____ _____    ______ ____
ROOT
ATOM      1  N   UNL     1       2.959  15.634  19.540  0.00  0.00    +0.000 NA
ATOM      2  C   UNL     1       3.393  14.978  20.799  0.00  0.00    +0.000 C 
ATOM      3  C   UNL     1       2.739  13.573  20.917  0.00  0.00    +0.000 C 
ATOM      4  N   UNL     1       1.306  13.559  20.560  0.00  0.00    +0.000 N 
ATOM      5  C   UNL     1       0.326  12.976  21.339  0.00  0.00    +0.000 A 
ATOM      6  N   UNL     1      -0.581  13.745  21.897  0.00  0.00    +0.000 NA
ATOM      7  C   UNL     1      -1.561  13.146  22.632  0.00  0.00    +0.000 A 
ATOM      8  C   UNL     1      -2.602  13.662  23.372  0.00  0.00    +0.000 A 
ATOM      9  C   UNL     1      -3.287  12.545  23.905  0.00  0.00    +0.000 A 
ATOM     10  C   UNL     1      -4.483  12.547  24.784  0.00  0.00    +0.000 C 
ATOM     11  N   UNL     1      -2.724  11.390  23.529  0.00  0.00    +0.000 NA
ATOM     12  N   UNL     1      -1.671  11.775  22.771  0.00  0.00    +0.000 N 
ATOM     13  C   UNL     1      -0.754  10.891  22.191  0.00  0.00    +0.000 A 
ATOM     14  C   UNL     1      -0.866   9.504  22.320  0.00  0.00    +0.000 A 
ATOM     15  C   UNL     1       0.088   8.690  21.710  0.00  0.00    +0.000 A 
ATOM     16  C   UNL     1       1.124   9.258  20.964  0.00  0.00    +0.000 A 
ATOM     17  C   UNL     1       1.213  10.645  20.826  0.00  0.00    +0.000 A 
ATOM     18  C   UNL     1       0.286  11.474  21.462  0.00  0.00    +0.000 A 
ATOM     19  C   UNL     1       0.921  14.344  19.379  0.00  0.00    +0.000 C 
ATOM     20  C   UNL     1       1.482  15.763  19.488  0.00  0.00    +0.000 C 
ENDROOT
BRANCH   1  21
ATOM     21  S   UNL     1       3.903  16.781  18.771  0.00  0.00    +0.000 S 
ATOM     22  O   UNL     1       4.083  17.888  19.686  0.00  0.00    +0.000 OA
ATOM     23  O   UNL     1       3.354  16.995  17.445  0.00  0.00    +0.000 OA
BRANCH  21  28
ATOM     24  C   UNL     1       9.336  14.185  17.988  0.00  0.00    +0.000 C 
ATOM     25  C   UNL     1       7.985  14.810  18.179  0.00  0.00    +0.000 A 
ATOM     26  C   UNL     1       6.831  14.215  17.651  0.00  0.00    +0.000 A 
ATOM     27  C   UNL     1       5.578  14.801  17.845  0.00  0.00    +0.000 A 
ATOM     28  C   UNL     1       5.478  15.985  18.581  0.00  0.00    +0.000 A 
ATOM     29  C   UNL     1       6.625  16.604  19.083  0.00  0.00    +0.000 A 
ATOM     30  C   UNL     1       7.874  16.013  18.888  0.00  0.00    +0.000 A 
ENDBRANCH  21  28
ENDBRANCH   1  21
TORSDOF 2
ENDMDL
MODEL 5
REMARK VINA RESULT:      -7.0      6.217     10.411
REMARK  Name = 
REMARK  4 active torsions:
REMARK  status: ('A' for Active; 'I' for Inactive)
REMARK    1  A    between atoms: C_1  and  C_2
REMARK    2  A    between atoms: C_5  and  S_6
REMARK    3  A    between atoms: S_6  and  N_9
REMARK    4  A    between atoms: C_17  and  C_18
REMARK                            x       y       z     vdW  Elec       q    Type
REMARK                         _______ _______ _______ _____ _____    ______ ____
ROOT
ATOM      1  N   UNL     1      -4.264  14.602  22.553  0.00  0.00    +0.000 NA
ATOM      2  C   UNL     1      -4.362  13.132  22.737  0.00  0.00    +0.000 C 
ATOM      3  C   UNL     1      -3.160  12.430  22.046  0.00  0.00    +0.000 C 
ATOM      4  N   UNL     1      -2.859  12.964  20.703  0.00  0.00    +0.000 N 
ATOM      5  C   UNL     1      -2.672  12.173  19.586  0.00  0.00    +0.000 A 
ATOM      6  N   UNL     1      -3.545  12.241  18.607  0.00  0.00    +0.000 NA
ATOM      7  C   UNL     1      -3.322  11.479  17.499  0.00  0.00    +0.000 A 
ATOM      8  C   UNL     1      -4.058  11.288  16.350  0.00  0.00    +0.000 A 
ATOM      9  C   UNL     1      -3.309  10.386  15.559  0.00  0.00    +0.000 A 
ATOM     10  C   UNL     1      -3.660   9.842  14.223  0.00  0.00    +0.000 C 
ATOM     11  N   UNL     1      -2.168  10.026  16.159  0.00  0.00    +0.000 NA
ATOM     12  N   UNL     1      -2.201  10.686  17.340  0.00  0.00    +0.000 N 
ATOM     13  C   UNL     1      -1.219  10.577  18.330  0.00  0.00    +0.000 A 
ATOM     14  C   UNL     1      -0.079   9.784  18.170  0.00  0.00    +0.000 A 
ATOM     15  C   UNL     1       0.856   9.729  19.205  0.00  0.00    +0.000 A 
ATOM     16  C   UNL     1       0.661  10.475  20.369  0.00  0.00    +0.000 A 
ATOM     17  C   UNL     1      -0.474  11.279  20.508  0.00  0.00    +0.000 A 
ATOM     18  C   UNL     1      -1.436  11.316  19.496  0.00  0.00    +0.000 A 
ATOM     19  C   UNL     1      -2.916  14.425  20.554  0.00  0.00    +0.000 C 
ATOM     20  C   UNL     1      -4.237  14.957  21.112  0.00  0.00    +0.000 C 
ENDROOT
BRANCH   1  21
ATOM     21  S   UNL     1      -4.940  15.676  23.643  0.00  0.00    +0.000 S 
ATOM     22  O   UNL     1      -5.907  14.947  24.436  0.00  0.00    +0.000 OA
ATOM     23  O   UNL     1      -5.326  16.869  22.913  0.00  0.00    +0.000 OA
BRANCH  21  28
ATOM     24  C   UNL     1      -0.225  17.210  27.147  0.00  0.00    +0.000 C 
ATOM     25  C   UNL     1      -1.391  16.814  26.289  0.00  0.00    +0.000 A 
ATOM     26  C   UNL     1      -1.684  15.466  26.044  0.00  0.00    +0.000 A 
ATOM     27  C   UNL     1      -2.779  15.110  25.253  0.00  0.00    +0.000 A 
ATOM     28  C   UNL     1      -3.592  16.110  24.712  0.00  0.00    +0.000 A 
ATOM     29  C   UNL     1      -3.289  17.458  24.922  0.00  0.00    +0.000 A 
ATOM     30  C   UNL     1      -2.195  17.807  25.715  0.00  0.00    +0.000 A 
ENDBRANCH  21  28
ENDBRANCH   1  21
TORSDOF 2
ENDMDL
MODEL 6
REMARK VINA RESULT:      -7.0      1.339      3.324
REMARK  Name = 
REMARK  4 active torsions:
REMARK  status: ('A' for Active; 'I' for Inactive)
REMARK    1  A    between atoms: C_1  and  C_2
REMARK    2  A    between atoms: C_5  and  S_6
REMARK    3  A    between atoms: S_6  and  N_9
REMARK    4  A    between atoms: C_17  and  C_18
REMARK                            x       y       z     vdW  Elec       q    Type
REMARK                         _______ _______ _______ _____ _____    ______ ____
ROOT
ATOM      1  N   UNL     1       2.103   6.940  19.114  0.00  0.00    +0.000 NA
ATOM      2  C   UNL     1       1.635   7.606  17.872  0.00  0.00    +0.000 C 
ATOM      3  C   UNL     1       1.855   9.140  17.978  0.00  0.00    +0.000 C 
ATOM      4  N   UNL     1       1.459   9.703  19.284  0.00  0.00    +0.000 N 
ATOM      5  C   UNL     1       0.658  10.819  19.429  0.00  0.00    +0.000 A 
ATOM      6  N   UNL     1      -0.535  10.679  19.961  0.00  0.00    +0.000 NA
ATOM      7  C   UNL     1      -1.295  11.799  20.128  0.00  0.00    +0.000 A 
ATOM      8  C   UNL     1      -2.579  11.978  20.594  0.00  0.00    +0.000 A 
ATOM      9  C   UNL     1      -2.817  13.372  20.540  0.00  0.00    +0.000 A 
ATOM     10  C   UNL     1      -4.053  14.098  20.922  0.00  0.00    +0.000 C 
ATOM     11  N   UNL     1      -1.755  14.040  20.072  0.00  0.00    +0.000 NA
ATOM     12  N   UNL     1      -0.849  13.069  19.813  0.00  0.00    +0.000 N 
ATOM     13  C   UNL     1       0.416  13.300  19.262  0.00  0.00    +0.000 A 
ATOM     14  C   UNL     1       0.875  14.582  18.951  0.00  0.00    +0.000 A 
ATOM     15  C   UNL     1       2.151  14.729  18.404  0.00  0.00    +0.000 A 
ATOM     16  C   UNL     1       2.959  13.609  18.194  0.00  0.00    +0.000 A 
ATOM     17  C   UNL     1       2.494  12.334  18.527  0.00  0.00    +0.000 A 
ATOM     18  C   UNL     1       1.207  12.168  19.041  0.00  0.00    +0.000 A 
ATOM     19  C   UNL     1       1.832   8.922  20.471  0.00  0.00    +0.000 C 
ATOM     20  C   UNL     1       1.389   7.468  20.302  0.00  0.00    +0.000 C 
ENDROOT
BRANCH   1  21
ATOM     21  S   UNL     1       2.631   5.353  19.120  0.00  0.00    +0.000 S 
ATOM     22  O   UNL     1       1.506   4.514  18.766  0.00  0.00    +0.000 OA
ATOM     23  O   UNL     1       3.364   5.131  20.351  0.00  0.00    +0.000 OA
BRANCH  21  28
ATOM     24  C   UNL     1       6.719   4.999  14.644  0.00  0.00    +0.000 C 
ATOM     25  C   UNL     1       5.709   5.105  15.749  0.00  0.00    +0.000 A 
ATOM     26  C   UNL     1       5.572   6.284  16.494  0.00  0.00    +0.000 A 
ATOM     27  C   UNL     1       4.620   6.374  17.512  0.00  0.00    +0.000 A 
ATOM     28  C   UNL     1       3.792   5.280  17.780  0.00  0.00    +0.000 A 
ATOM     29  C   UNL     1       3.943   4.088  17.066  0.00  0.00    +0.000 A 
ATOM     30  C   UNL     1       4.894   4.006  16.048  0.00  0.00    +0.000 A 
ENDBRANCH  21  28
ENDBRANCH   1  21
TORSDOF 2
ENDMDL
MODEL 7
REMARK VINA RESULT:      -6.9      5.872      7.785
REMARK  Name = 
REMARK  4 active torsions:
REMARK  status: ('A' for Active; 'I' for Inactive)
REMARK    1  A    between atoms: C_1  and  C_2
REMARK    2  A    between atoms: C_5  and  S_6
REMARK    3  A    between atoms: S_6  and  N_9
REMARK    4  A    between atoms: C_17  and  C_18
REMARK                            x       y       z     vdW  Elec       q    Type
REMARK                         _______ _______ _______ _____ _____    ______ ____
ROOT
ATOM      1  N   UNL     1       6.744  14.821  21.945  0.00  0.00    +0.000 NA
ATOM      2  C   UNL     1       6.660  14.996  20.472  0.00  0.00    +0.000 C 
ATOM      3  C   UNL     1       5.288  15.620  20.091  0.00  0.00    +0.000 C 
ATOM      4  N   UNL     1       4.147  15.015  20.806  0.00  0.00    +0.000 N 
ATOM      5  C   UNL     1       2.992  14.583  20.183  0.00  0.00    +0.000 A 
ATOM      6  N   UNL     1       2.716  13.299  20.179  0.00  0.00    +0.000 NA
ATOM      7  C   UNL     1       1.553  12.898  19.591  0.00  0.00    +0.000 A 
ATOM      8  C   UNL     1       1.013  11.649  19.377  0.00  0.00    +0.000 A 
ATOM      9  C   UNL     1      -0.221  11.870  18.723  0.00  0.00    +0.000 A 
ATOM     10  C   UNL     1      -1.199  10.854  18.259  0.00  0.00    +0.000 C 
ATOM     11  N   UNL     1      -0.458  13.174  18.532  0.00  0.00    +0.000 NA
ATOM     12  N   UNL     1       0.636  13.780  19.051  0.00  0.00    +0.000 N 
ATOM     13  C   UNL     1       0.851  15.162  19.035  0.00  0.00    +0.000 A 
ATOM     14  C   UNL     1      -0.078  16.059  18.499  0.00  0.00    +0.000 A 
ATOM     15  C   UNL     1       0.211  17.424  18.523  0.00  0.00    +0.000 A 
ATOM     16  C   UNL     1       1.399  17.882  19.095  0.00  0.00    +0.000 A 
ATOM     17  C   UNL     1       2.310  16.976  19.645  0.00  0.00    +0.000 A 
ATOM     18  C   UNL     1       2.052  15.605  19.596  0.00  0.00    +0.000 A 
ATOM     19  C   UNL     1       4.346  14.738  22.235  0.00  0.00    +0.000 C 
ATOM     20  C   UNL     1       5.645  13.958  22.442  0.00  0.00    +0.000 C 
ENDROOT
BRANCH   1  21
ATOM     21  S   UNL     1       8.210  14.818  22.751  0.00  0.00    +0.000 S 
ATOM     22  O   UNL     1       8.038  14.061  23.973  0.00  0.00    +0.000 OA
ATOM     23  O   UNL     1       8.704  16.181  22.785  0.00  0.00    +0.000 OA
BRANCH  21  28
ATOM     24  C   UNL     1      11.973  11.556  19.277  0.00  0.00    +0.000 C 
ATOM     25  C   UNL     1      11.047  12.377  20.125  0.00  0.00    +0.000 A 
ATOM     26  C   UNL     1      11.171  13.772  20.192  0.00  0.00    +0.000 A 
ATOM     27  C   UNL     1      10.295  14.526  20.977  0.00  0.00    +0.000 A 
ATOM     28  C   UNL     1       9.282  13.881  21.691  0.00  0.00    +0.000 A 
ATOM     29  C   UNL     1       9.169  12.489  21.658  0.00  0.00    +0.000 A 
ATOM     30  C   UNL     1      10.046  11.741  20.871  0.00  0.00    +0.000 A 
ENDBRANCH  21  28
ENDBRANCH   1  21
TORSDOF 2
ENDMDL
MODEL 8
REMARK VINA RESULT:      -6.8      3.404      9.153
REMARK  Name = 
REMARK  4 active torsions:
REMARK  status: ('A' for Active; 'I' for Inactive)
REMARK    1  A    between atoms: C_1  and  C_2
REMARK    2  A    between atoms: C_5  and  S_6
REMARK    3  A    between atoms: S_6  and  N_9
REMARK    4  A    between atoms: C_17  and  C_18
REMARK                            x       y       z     vdW  Elec       q    Type
REMARK                         _______ _______ _______ _____ _____    ______ ____
ROOT
ATOM      1  N   UNL     1       0.470  11.283  18.603  0.00  0.00    +0.000 NA
ATOM      2  C   UNL     1       1.856  11.199  19.129  0.00  0.00    +0.000 C 
ATOM      3  C   UNL     1       2.618  10.039  18.430  0.00  0.00    +0.000 C 
ATOM      4  N   UNL     1       1.823   8.801  18.308  0.00  0.00    +0.000 N 
ATOM      5  C   UNL     1       2.288   7.551  18.669  0.00  0.00    +0.000 A 
ATOM      6  N   UNL     1       1.724   6.934  19.682  0.00  0.00    +0.000 NA
ATOM      7  C   UNL     1       2.174   5.685  19.998  0.00  0.00    +0.000 A 
ATOM      8  C   UNL     1       1.839   4.816  21.013  0.00  0.00    +0.000 A 
ATOM      9  C   UNL     1       2.641   3.668  20.818  0.00  0.00    +0.000 A 
ATOM     10  C   UNL     1       2.678   2.434  21.641  0.00  0.00    +0.000 C 
ATOM     11  N   UNL     1       3.436   3.792  19.747  0.00  0.00    +0.000 NA
ATOM     12  N   UNL     1       3.150   5.027  19.273  0.00  0.00    +0.000 N 
ATOM     13  C   UNL     1       3.781   5.612  18.170  0.00  0.00    +0.000 A 
ATOM     14  C   UNL     1       4.761   4.948  17.428  0.00  0.00    +0.000 A 
ATOM     15  C   UNL     1       5.343   5.600  16.340  0.00  0.00    +0.000 A 
ATOM     16  C   UNL     1       4.931   6.888  15.990  0.00  0.00    +0.000 A 
ATOM     17  C   UNL     1       3.936   7.534  16.729  0.00  0.00    +0.000 A 
ATOM     18  C   UNL     1       3.371   6.908  17.842  0.00  0.00    +0.000 A 
ATOM     19  C   UNL     1       0.416   8.966  17.918  0.00  0.00    +0.000 C 
ATOM     20  C   UNL     1      -0.258  10.007  18.813  0.00  0.00    +0.000 C 
ENDROOT
BRANCH   1  21
ATOM     21  S   UNL     1      -0.389  12.719  18.603  0.00  0.00    +0.000 S 
ATOM     22  O   UNL     1      -1.360  12.651  17.531  0.00  0.00    +0.000 OA
ATOM     23  O   UNL     1       0.564  13.809  18.673  0.00  0.00    +0.000 OA
BRANCH  21  28
ATOM     24  C   UNL     1      -3.418  12.416  23.857  0.00  0.00    +0.000 C 
ATOM     25  C   UNL     1      -2.684  12.499  22.551  0.00  0.00    +0.000 A 
ATOM     26  C   UNL     1      -3.376  12.616  21.338  0.00  0.00    +0.000 A 
ATOM     27  C   UNL     1      -2.681  12.704  20.129  0.00  0.00    +0.000 A 
ATOM     28  C   UNL     1      -1.284  12.685  20.135  0.00  0.00    +0.000 A 
ATOM     29  C   UNL     1      -0.584  12.535  21.335  0.00  0.00    +0.000 A 
ATOM     30  C   UNL     1      -1.284  12.450  22.540  0.00  0.00    +0.000 A 
ENDBRANCH  21  28
ENDBRANCH   1  21
TORSDOF 2
ENDMDL
MODEL 9
REMARK VINA RESULT:      -6.8      6.583      8.023
REMARK  Name = 
REMARK  4 active torsions:
REMARK  status: ('A' for Active; 'I' for Inactive)
REMARK    1  A    between atoms: C_1  and  C_2
REMARK    2  A    between atoms: C_5  and  S_6
REMARK    3  A    between atoms: S_6  and  N_9
REMARK    4  A    between atoms: C_17  and  C_18
REMARK                            x       y       z     vdW  Elec       q    Type
REMARK                         _______ _______ _______ _____ _____    ______ ____
ROOT
ATOM      1  N   UNL     1       6.697  15.922  18.904  0.00  0.00    +0.000 NA
ATOM      2  C   UNL     1       5.820  15.094  18.037  0.00  0.00    +0.000 C 
ATOM      3  C   UNL     1       4.498  15.855  17.740  0.00  0.00    +0.000 C 
ATOM      4  N   UNL     1       3.916  16.510  18.929  0.00  0.00    +0.000 N 
ATOM      5  C   UNL     1       2.591  16.391  19.299  0.00  0.00    +0.000 A 
ATOM      6  N   UNL     1       2.299  15.766  20.417  0.00  0.00    +0.000 NA
ATOM      7  C   UNL     1       0.987  15.693  20.783  0.00  0.00    +0.000 A 
ATOM      8  C   UNL     1       0.361  15.074  21.843  0.00  0.00    +0.000 A 
ATOM      9  C   UNL     1      -1.017  15.355  21.692  0.00  0.00    +0.000 A 
ATOM     10  C   UNL     1      -2.135  14.915  22.565  0.00  0.00    +0.000 C 
ATOM     11  N   UNL     1      -1.258  16.105  20.610  0.00  0.00    +0.000 NA
ATOM     12  N   UNL     1      -0.033  16.286  20.063  0.00  0.00    +0.000 N 
ATOM     13  C   UNL     1       0.202  16.984  18.874  0.00  0.00    +0.000 A 
ATOM     14  C   UNL     1      -0.824  17.594  18.147  0.00  0.00    +0.000 A 
ATOM     15  C   UNL     1      -0.507  18.274  16.971  0.00  0.00    +0.000 A 
ATOM     16  C   UNL     1       0.820  18.359  16.543  0.00  0.00    +0.000 A 
ATOM     17  C   UNL     1       1.839  17.761  17.289  0.00  0.00    +0.000 A 
ATOM     18  C   UNL     1       1.532  17.046  18.449  0.00  0.00    +0.000 A 
ATOM     19  C   UNL     1       4.859  17.196  19.823  0.00  0.00    +0.000 C 
ATOM     20  C   UNL     1       6.017  16.262  20.179  0.00  0.00    +0.000 C 
ENDROOT
BRANCH   1  21
ATOM     21  S   UNL     1       8.362  15.760  18.888  0.00  0.00    +0.000 S 
ATOM     22  O   UNL     1       8.872  16.341  20.112  0.00  0.00    +0.000 OA
ATOM     23  O   UNL     1       8.841  16.210  17.596  0.00  0.00    +0.000 OA
BRANCH  21  28
ATOM     24  C   UNL     1       9.445   9.795  19.234  0.00  0.00    +0.000 C 
ATOM     25  C   UNL     1       9.169  11.267  19.133  0.00  0.00    +0.000 A 
ATOM     26  C   UNL     1       8.950  11.878  17.890  0.00  0.00    +0.000 A 
ATOM     27  C   UNL     1       8.683  13.247  17.810  0.00  0.00    +0.000 A 
ATOM     28  C   UNL     1       8.624  14.007  18.981  0.00  0.00    +0.000 A 
ATOM     29  C   UNL     1       8.874  13.415  20.222  0.00  0.00    +0.000 A 
ATOM     30  C   UNL     1       9.138  12.047  20.296  0.00  0.00    +0.000 A 
ENDBRANCH  21  28
ENDBRANCH   1  21
TORSDOF 2
ENDMDL
