MODEL 1
REMARK VINA RESULT:      -8.0      0.000      0.000
REMARK  Name = 
REMARK  5 active torsions:
REMARK  status: ('A' for Active; 'I' for Inactive)
REMARK    1  A    between atoms: N_4  and  C_5
REMARK    2  A    between atoms: C_9  and  C_10
REMARK    3  A    between atoms: C_10  and  C_11
REMARK    4  A    between atoms: C_11  and  C_12
REMARK    5  A    between atoms: N_16  and  C_17
REMARK                            x       y       z     vdW  Elec       q    Type
REMARK                         _______ _______ _______ _____ _____    ______ ____
ROOT
ATOM      1  C   UNL     1       5.937   4.982  15.861  0.00  0.00    +0.000 A 
ATOM      2  C   UNL     1       6.993   4.747  16.740  0.00  0.00    +0.000 A 
ATOM      3  C   UNL     1       6.780   4.811  18.114  0.00  0.00    +0.000 A 
ATOM      4  C   UNL     1       5.519   5.142  18.608  0.00  0.00    +0.000 A 
ATOM      5  C   UNL     1       4.450   5.492  17.756  0.00  0.00    +0.000 A 
ATOM      6  C   UNL     1       4.697   5.385  16.374  0.00  0.00    +0.000 A 
ENDROOT
BRANCH   1  10
ATOM      7  C   UNL     1       7.142   3.241  11.731  0.00  0.00    +0.000 C 
ATOM      8  C   UNL     1       6.635   3.876  12.784  0.00  0.00    +0.000 C 
ATOM      9  C   UNL     1       5.399   3.786  13.652  0.00  0.00    +0.000 C 
ATOM     10  N   UNL     1       6.070   4.762  14.492  0.00  0.00    +0.000 N 
ATOM     11  C   UNL     1       7.133   4.931  13.671  0.00  0.00    +0.000 C 
ATOM     12  O   UNL     1       8.156   5.580  13.713  0.00  0.00    +0.000 OA
ENDBRANCH   1  10
BRANCH   5  13
ATOM     13  C   UNL     1       3.059   6.026  18.335  0.00  0.00    +0.000 C 
ATOM     14  C   UNL     1       2.723   7.509  18.017  0.00  0.00    +0.000 C 
ATOM     15  O   UNL     1       2.193   7.699  19.355  0.00  0.00    +0.000 OA
ATOM     16  C   UNL     1       2.956   6.540  19.801  0.00  0.00    +0.000 C 
BRANCH  13  17
ATOM     17  C   UNL     1       1.914   5.052  17.975  0.00  0.00    +0.000 C 
BRANCH  17  18
ATOM     18  C   UNL     1       1.710   3.991  19.009  0.00  0.00    +0.000 A 
ATOM     19  N   UNL     1       0.957   4.104  20.089  0.00  0.00    +0.000 NA
ATOM     20  N   UNL     1       1.023   2.916  20.781  0.00  0.00    +0.000 NA
ATOM     21  C   UNL     1       1.809   2.105  20.113  0.00  0.00    +0.000 A 
ATOM     22  N   UNL     1       2.271   2.738  18.999  0.00  0.00    +0.000 N 
ATOM     23  C   UNL     1       3.157   2.156  18.030  0.00  0.00    +0.000 C 
ENDBRANCH  17  18
ENDBRANCH  13  17
ENDBRANCH   5  13
TORSDOF 4
ENDMDL
MODEL 2
REMARK VINA RESULT:      -7.9      2.519      6.600
REMARK  Name = 
REMARK  5 active torsions:
REMARK  status: ('A' for Active; 'I' for Inactive)
REMARK    1  A    between atoms: N_4  and  C_5
REMARK    2  A    between atoms: C_9  and  C_10
REMARK    3  A    between atoms: C_10  and  C_11
REMARK    4  A    between atoms: C_11  and  C_12
REMARK    5  A    between atoms: N_16  and  C_17
REMARK                            x       y       z     vdW  Elec       q    Type
REMARK                         _______ _______ _______ _____ _____    ______ ____
ROOT
ATOM      1  C   UNL     1       2.905   5.472  18.474  0.00  0.00    +0.000 A 
ATOM      2  C   UNL     1       2.758   6.858  18.453  0.00  0.00    +0.000 A 
ATOM      3  C   UNL     1       3.463   7.616  17.522  0.00  0.00    +0.000 A 
ATOM      4  C   UNL     1       4.337   6.990  16.635  0.00  0.00    +0.000 A 
ATOM      5  C   UNL     1       4.596   5.605  16.690  0.00  0.00    +0.000 A 
ATOM      6  C   UNL     1       3.841   4.870  17.625  0.00  0.00    +0.000 A 
ENDROOT
BRANCH   1  10
ATOM      7  C   UNL     1       1.375   2.502  21.697  0.00  0.00    +0.000 C 
ATOM      8  C   UNL     1       1.573   3.406  20.740  0.00  0.00    +0.000 C 
ATOM      9  C   UNL     1       1.608   4.912  20.621  0.00  0.00    +0.000 C 
ATOM     10  N   UNL     1       2.093   4.670  19.273  0.00  0.00    +0.000 N 
ATOM     11  C   UNL     1       1.966   3.323  19.331  0.00  0.00    +0.000 C 
ATOM     12  O   UNL     1       2.212   2.405  18.579  0.00  0.00    +0.000 OA
ENDBRANCH   1  10
BRANCH   5  13
ATOM     13  C   UNL     1       5.719   4.926  15.777  0.00  0.00    +0.000 C 
ATOM     14  C   UNL     1       5.353   4.755  14.277  0.00  0.00    +0.000 C 
ATOM     15  O   UNL     1       5.976   3.444  14.250  0.00  0.00    +0.000 OA
ATOM     16  C   UNL     1       5.848   3.376  15.701  0.00  0.00    +0.000 C 
BRANCH  13  17
ATOM     17  C   UNL     1       7.083   5.617  15.995  0.00  0.00    +0.000 C 
BRANCH  17  18
ATOM     18  C   UNL     1       7.479   5.674  17.437  0.00  0.00    +0.000 A 
ATOM     19  N   UNL     1       7.614   4.634  18.240  0.00  0.00    +0.000 NA
ATOM     20  N   UNL     1       7.994   5.098  19.478  0.00  0.00    +0.000 NA
ATOM     21  C   UNL     1       8.085   6.404  19.408  0.00  0.00    +0.000 A 
ATOM     22  N   UNL     1       7.763   6.813  18.149  0.00  0.00    +0.000 N 
ATOM     23  C   UNL     1       7.752   8.179  17.704  0.00  0.00    +0.000 C 
ENDBRANCH  17  18
ENDBRANCH  13  17
ENDBRANCH   5  13
TORSDOF 4
ENDMDL
MODEL 3
REMARK VINA RESULT:      -7.9      0.718      1.319
REMARK  Name = 
REMARK  5 active torsions:
REMARK  status: ('A' for Active; 'I' for Inactive)
REMARK    1  A    between atoms: N_4  and  C_5
REMARK    2  A    between atoms: C_9  and  C_10
REMARK    3  A    between atoms: C_10  and  C_11
REMARK    4  A    between atoms: C_11  and  C_12
REMARK    5  A    between atoms: N_16  and  C_17
REMARK                            x       y       z     vdW  Elec       q    Type
REMARK                         _______ _______ _______ _____ _____    ______ ____
ROOT
ATOM      1  C   UNL     1       5.820   5.078  15.976  0.00  0.00    +0.000 A 
ATOM      2  C   UNL     1       6.810   4.762  16.906  0.00  0.00    +0.000 A 
ATOM      3  C   UNL     1       6.526   4.819  18.267  0.00  0.00    +0.000 A 
ATOM      4  C   UNL     1       5.263   5.223  18.698  0.00  0.00    +0.000 A 
ATOM      5  C   UNL     1       4.267   5.654  17.797  0.00  0.00    +0.000 A 
ATOM      6  C   UNL     1       4.583   5.551  16.428  0.00  0.00    +0.000 A 
ENDROOT
BRANCH   1  10
ATOM      7  C   UNL     1       7.156   3.335  11.886  0.00  0.00    +0.000 C 
ATOM      8  C   UNL     1       6.625   3.980  12.922  0.00  0.00    +0.000 C 
ATOM      9  C   UNL     1       5.343   3.939  13.722  0.00  0.00    +0.000 C 
ATOM     10  N   UNL     1       6.015   4.870  14.612  0.00  0.00    +0.000 N 
ATOM     11  C   UNL     1       7.127   4.997  13.850  0.00  0.00    +0.000 C 
ATOM     12  O   UNL     1       8.176   5.594  13.955  0.00  0.00    +0.000 OA
ENDBRANCH   1  10
BRANCH   5  13
ATOM     13  C   UNL     1       2.882   6.267  18.309  0.00  0.00    +0.000 C 
ATOM     14  C   UNL     1       2.682   7.786  18.049  0.00  0.00    +0.000 C 
ATOM     15  O   UNL     1       2.075   7.953  19.356  0.00  0.00    +0.000 OA
ATOM     16  C   UNL     1       2.715   6.718  19.791  0.00  0.00    +0.000 C 
BRANCH  13  17
ATOM     17  C   UNL     1       1.696   5.405  17.822  0.00  0.00    +0.000 C 
BRANCH  17  18
ATOM     18  C   UNL     1       1.890   3.947  18.096  0.00  0.00    +0.000 A 
ATOM     19  N   UNL     1       2.377   3.062  17.245  0.00  0.00    +0.000 NA
ATOM     20  N   UNL     1       2.402   1.837  17.871  0.00  0.00    +0.000 NA
ATOM     21  C   UNL     1       1.933   1.997  19.085  0.00  0.00    +0.000 A 
ATOM     22  N   UNL     1       1.590   3.302  19.271  0.00  0.00    +0.000 N 
ATOM     23  C   UNL     1       1.040   3.845  20.481  0.00  0.00    +0.000 C 
ENDBRANCH  17  18
ENDBRANCH  13  17
ENDBRANCH   5  13
TORSDOF 4
ENDMDL
MODEL 4
REMARK VINA RESULT:      -7.8      2.396      6.833
REMARK  Name = 
REMARK  5 active torsions:
REMARK  status: ('A' for Active; 'I' for Inactive)
REMARK    1  A    between atoms: N_4  and  C_5
REMARK    2  A    between atoms: C_9  and  C_10
REMARK    3  A    between atoms: C_10  and  C_11
REMARK    4  A    between atoms: C_11  and  C_12
REMARK    5  A    between atoms: N_16  and  C_17
REMARK                            x       y       z     vdW  Elec       q    Type
REMARK                         _______ _______ _______ _____ _____    ______ ____
ROOT
ATOM      1  C   UNL     1       2.923   5.574  18.742  0.00  0.00    +0.000 A 
ATOM      2  C   UNL     1       2.743   6.936  18.507  0.00  0.00    +0.000 A 
ATOM      3  C   UNL     1       3.432   7.558  17.470  0.00  0.00    +0.000 A 
ATOM      4  C   UNL     1       4.324   6.825  16.689  0.00  0.00    +0.000 A 
ATOM      5  C   UNL     1       4.617   5.472  16.958  0.00  0.00    +0.000 A 
ATOM      6  C   UNL     1       3.877   4.871  17.995  0.00  0.00    +0.000 A 
ENDROOT
BRANCH   1  10
ATOM      7  C   UNL     1       1.316   2.441  21.767  0.00  0.00    +0.000 C 
ATOM      8  C   UNL     1       1.584   3.478  20.976  0.00  0.00    +0.000 C 
ATOM      9  C   UNL     1       2.228   4.839  21.104  0.00  0.00    +0.000 C 
ATOM     10  N   UNL     1       2.129   4.885  19.656  0.00  0.00    +0.000 N 
ATOM     11  C   UNL     1       1.458   3.716  19.536  0.00  0.00    +0.000 C 
ATOM     12  O   UNL     1       1.043   3.055  18.608  0.00  0.00    +0.000 OA
ENDBRANCH   1  10
BRANCH   5  13
ATOM     13  C   UNL     1       5.759   4.688  16.160  0.00  0.00    +0.000 C 
ATOM     14  C   UNL     1       5.964   5.118  14.682  0.00  0.00    +0.000 C 
ATOM     15  O   UNL     1       6.147   3.736  14.280  0.00  0.00    +0.000 OA
ATOM     16  C   UNL     1       5.460   3.313  15.494  0.00  0.00    +0.000 C 
BRANCH  13  17
ATOM     17  C   UNL     1       7.072   4.669  16.976  0.00  0.00    +0.000 C 
BRANCH  17  18
ATOM     18  C   UNL     1       7.511   6.036  17.396  0.00  0.00    +0.000 A 
ATOM     19  N   UNL     1       7.637   7.083  16.600  0.00  0.00    +0.000 NA
ATOM     20  N   UNL     1       8.055   8.150  17.362  0.00  0.00    +0.000 NA
ATOM     21  C   UNL     1       8.175   7.737  18.601  0.00  0.00    +0.000 A 
ATOM     22  N   UNL     1       7.853   6.415  18.671  0.00  0.00    +0.000 N 
ATOM     23  C   UNL     1       7.871   5.625  19.870  0.00  0.00    +0.000 C 
ENDBRANCH  17  18
ENDBRANCH  13  17
ENDBRANCH   5  13
TORSDOF 4
ENDMDL
MODEL 5
REMARK VINA RESULT:      -7.8      2.154      6.534
REMARK  Name = 
REMARK  5 active torsions:
REMARK  status: ('A' for Active; 'I' for Inactive)
REMARK    1  A    between atoms: N_4  and  C_5
REMARK    2  A    between atoms: C_9  and  C_10
REMARK    3  A    between atoms: C_10  and  C_11
REMARK    4  A    between atoms: C_11  and  C_12
REMARK    5  A    between atoms: N_16  and  C_17
REMARK                            x       y       z     vdW  Elec       q    Type
REMARK                         _______ _______ _______ _____ _____    ______ ____
ROOT
ATOM      1  C   UNL     1       3.016   5.401  18.880  0.00  0.00    +0.000 A 
ATOM      2  C   UNL     1       2.463   6.448  18.145  0.00  0.00    +0.000 A 
ATOM      3  C   UNL     1       3.281   7.241  17.345  0.00  0.00    +0.000 A 
ATOM      4  C   UNL     1       4.655   7.006  17.306  0.00  0.00    +0.000 A 
ATOM      5  C   UNL     1       5.270   6.027  18.114  0.00  0.00    +0.000 A 
ATOM      6  C   UNL     1       4.405   5.227  18.885  0.00  0.00    +0.000 A 
ENDROOT
BRANCH   1  10
ATOM      7  C   UNL     1       1.362   2.362  21.976  0.00  0.00    +0.000 C 
ATOM      8  C   UNL     1       1.606   3.228  20.995  0.00  0.00    +0.000 C 
ATOM      9  C   UNL     1       1.362   4.694  20.716  0.00  0.00    +0.000 C 
ATOM     10  N   UNL     1       2.210   4.486  19.555  0.00  0.00    +0.000 N 
ATOM     11  C   UNL     1       2.351   3.152  19.735  0.00  0.00    +0.000 C 
ATOM     12  O   UNL     1       2.960   2.269  19.171  0.00  0.00    +0.000 OA
ENDBRANCH   1  10
BRANCH   5  13
ATOM     13  C   UNL     1       6.860   5.876  18.183  0.00  0.00    +0.000 C 
ATOM     14  C   UNL     1       7.487   5.993  19.599  0.00  0.00    +0.000 C 
ATOM     15  O   UNL     1       8.597   6.762  19.070  0.00  0.00    +0.000 OA
ATOM     16  C   UNL     1       7.785   7.098  17.907  0.00  0.00    +0.000 C 
BRANCH  13  17
ATOM     17  C   UNL     1       7.316   4.612  17.419  0.00  0.00    +0.000 C 
BRANCH  17  18
ATOM     18  C   UNL     1       6.982   4.664  15.962  0.00  0.00    +0.000 A 
ATOM     19  N   UNL     1       7.669   5.310  15.037  0.00  0.00    +0.000 NA
ATOM     20  N   UNL     1       7.047   5.111  13.826  0.00  0.00    +0.000 NA
ATOM     21  C   UNL     1       5.998   4.351  14.033  0.00  0.00    +0.000 A 
ATOM     22  N   UNL     1       5.910   4.053  15.359  0.00  0.00    +0.000 N 
ATOM     23  C   UNL     1       4.885   3.241  15.954  0.00  0.00    +0.000 C 
ENDBRANCH  17  18
ENDBRANCH  13  17
ENDBRANCH   5  13
TORSDOF 4
ENDMDL
MODEL 6
REMARK VINA RESULT:      -7.8      3.187      7.016
REMARK  Name = 
REMARK  5 active torsions:
REMARK  status: ('A' for Active; 'I' for Inactive)
REMARK    1  A    between atoms: N_4  and  C_5
REMARK    2  A    between atoms: C_9  and  C_10
REMARK    3  A    between atoms: C_10  and  C_11
REMARK    4  A    between atoms: C_11  and  C_12
REMARK    5  A    between atoms: N_16  and  C_17
REMARK                            x       y       z     vdW  Elec       q    Type
REMARK                         _______ _______ _______ _____ _____    ______ ____
ROOT
ATOM      1  C   UNL     1       1.521   8.483  19.906  0.00  0.00    +0.000 A 
ATOM      2  C   UNL     1       1.488   9.436  18.889  0.00  0.00    +0.000 A 
ATOM      3  C   UNL     1       2.099   9.169  17.668  0.00  0.00    +0.000 A 
ATOM      4  C   UNL     1       2.770   7.962  17.476  0.00  0.00    +0.000 A 
ATOM      5  C   UNL     1       2.920   7.015  18.511  0.00  0.00    +0.000 A 
ATOM      6  C   UNL     1       2.261   7.310  19.720  0.00  0.00    +0.000 A 
ENDROOT
BRANCH   1  10
ATOM      7  C   UNL     1      -0.962  10.291  23.387  0.00  0.00    +0.000 C 
ATOM      8  C   UNL     1      -0.317   9.554  22.486  0.00  0.00    +0.000 C 
ATOM      9  C   UNL     1      -0.658   8.770  21.238  0.00  0.00    +0.000 C 
ATOM     10  N   UNL     1       0.780   8.645  21.075  0.00  0.00    +0.000 N 
ATOM     11  C   UNL     1       1.096   9.253  22.242  0.00  0.00    +0.000 C 
ATOM     12  O   UNL     1       2.128   9.557  22.800  0.00  0.00    +0.000 OA
ENDBRANCH   1  10
BRANCH   5  13
ATOM     13  C   UNL     1       3.827   5.712  18.328  0.00  0.00    +0.000 C 
ATOM     14  C   UNL     1       4.481   5.161  19.625  0.00  0.00    +0.000 C 
ATOM     15  O   UNL     1       5.714   4.880  18.913  0.00  0.00    +0.000 OA
ATOM     16  C   UNL     1       5.316   5.837  17.888  0.00  0.00    +0.000 C 
BRANCH  13  17
ATOM     17  C   UNL     1       3.068   4.633  17.525  0.00  0.00    +0.000 C 
BRANCH  17  18
ATOM     18  C   UNL     1       2.275   3.712  18.397  0.00  0.00    +0.000 A 
ATOM     19  N   UNL     1       1.173   4.030  19.052  0.00  0.00    +0.000 NA
ATOM     20  N   UNL     1       0.743   2.914  19.732  0.00  0.00    +0.000 NA
ATOM     21  C   UNL     1       1.586   1.941  19.480  0.00  0.00    +0.000 A 
ATOM     22  N   UNL     1       2.569   2.395  18.655  0.00  0.00    +0.000 N 
ATOM     23  C   UNL     1       3.666   1.606  18.167  0.00  0.00    +0.000 C 
ENDBRANCH  17  18
ENDBRANCH  13  17
ENDBRANCH   5  13
TORSDOF 4
ENDMDL
MODEL 7
REMARK VINA RESULT:      -7.7      2.157      3.423
REMARK  Name = 
REMARK  5 active torsions:
REMARK  status: ('A' for Active; 'I' for Inactive)
REMARK    1  A    between atoms: N_4  and  C_5
REMARK    2  A    between atoms: C_9  and  C_10
REMARK    3  A    between atoms: C_10  and  C_11
REMARK    4  A    between atoms: C_11  and  C_12
REMARK    5  A    between atoms: N_16  and  C_17
REMARK                            x       y       z     vdW  Elec       q    Type
REMARK                         _______ _______ _______ _____ _____    ______ ____
ROOT
ATOM      1  C   UNL     1       5.958   4.997  16.070  0.00  0.00    +0.000 A 
ATOM      2  C   UNL     1       7.086   5.191  16.866  0.00  0.00    +0.000 A 
ATOM      3  C   UNL     1       6.964   5.196  18.253  0.00  0.00    +0.000 A 
ATOM      4  C   UNL     1       5.711   5.038  18.841  0.00  0.00    +0.000 A 
ATOM      5  C   UNL     1       4.530   4.944  18.075  0.00  0.00    +0.000 A 
ATOM      6  C   UNL     1       4.699   4.913  16.677  0.00  0.00    +0.000 A 
ENDROOT
BRANCH   1  10
ATOM      7  C   UNL     1       7.038   3.348  11.867  0.00  0.00    +0.000 C 
ATOM      8  C   UNL     1       6.571   3.968  12.949  0.00  0.00    +0.000 C 
ATOM      9  C   UNL     1       5.344   3.899  13.829  0.00  0.00    +0.000 C 
ATOM     10  N   UNL     1       6.065   4.818  14.693  0.00  0.00    +0.000 N 
ATOM     11  C   UNL     1       7.124   4.970  13.863  0.00  0.00    +0.000 C 
ATOM     12  O   UNL     1       8.173   5.575  13.913  0.00  0.00    +0.000 OA
ENDBRANCH   1  10
BRANCH   5  13
ATOM     13  C   UNL     1       3.086   4.927  18.761  0.00  0.00    +0.000 C 
ATOM     14  C   UNL     1       2.653   3.570  19.383  0.00  0.00    +0.000 C 
ATOM     15  O   UNL     1       1.300   3.750  18.891  0.00  0.00    +0.000 OA
ATOM     16  C   UNL     1       1.805   4.698  17.905  0.00  0.00    +0.000 C 
BRANCH  13  17
ATOM     17  C   UNL     1       2.935   6.118  19.733  0.00  0.00    +0.000 C 
BRANCH  17  18
ATOM     18  C   UNL     1       2.486   7.370  19.050  0.00  0.00    +0.000 A 
ATOM     19  N   UNL     1       2.796   7.728  17.817  0.00  0.00    +0.000 NA
ATOM     20  N   UNL     1       2.187   8.934  17.557  0.00  0.00    +0.000 NA
ATOM     21  C   UNL     1       1.519   9.287  18.629  0.00  0.00    +0.000 A 
ATOM     22  N   UNL     1       1.683   8.342  19.596  0.00  0.00    +0.000 N 
ATOM     23  C   UNL     1       1.098   8.393  20.906  0.00  0.00    +0.000 C 
ENDBRANCH  17  18
ENDBRANCH  13  17
ENDBRANCH   5  13
TORSDOF 4
ENDMDL
MODEL 8
REMARK VINA RESULT:      -7.6      3.260      7.214
REMARK  Name = 
REMARK  5 active torsions:
REMARK  status: ('A' for Active; 'I' for Inactive)
REMARK    1  A    between atoms: N_4  and  C_5
REMARK    2  A    between atoms: C_9  and  C_10
REMARK    3  A    between atoms: C_10  and  C_11
REMARK    4  A    between atoms: C_11  and  C_12
REMARK    5  A    between atoms: N_16  and  C_17
REMARK                            x       y       z     vdW  Elec       q    Type
REMARK                         _______ _______ _______ _____ _____    ______ ____
ROOT
ATOM      1  C   UNL     1       1.262   8.948  19.817  0.00  0.00    +0.000 A 
ATOM      2  C   UNL     1       1.515   9.890  18.821  0.00  0.00    +0.000 A 
ATOM      3  C   UNL     1       2.214   9.519  17.676  0.00  0.00    +0.000 A 
ATOM      4  C   UNL     1       2.686   8.214  17.542  0.00  0.00    +0.000 A 
ATOM      5  C   UNL     1       2.546   7.258  18.570  0.00  0.00    +0.000 A 
ATOM      6  C   UNL     1       1.807   7.664  19.698  0.00  0.00    +0.000 A 
ENDROOT
BRANCH   1  10
ATOM      7  C   UNL     1      -1.078  11.147  23.169  0.00  0.00    +0.000 C 
ATOM      8  C   UNL     1      -0.554  10.324  22.263  0.00  0.00    +0.000 C 
ATOM      9  C   UNL     1      -0.909   9.812  20.886  0.00  0.00    +0.000 C 
ATOM     10  N   UNL     1       0.425   9.237  20.892  0.00  0.00    +0.000 N 
ATOM     11  C   UNL     1       0.716   9.599  22.164  0.00  0.00    +0.000 C 
ATOM     12  O   UNL     1       1.683   9.497  22.886  0.00  0.00    +0.000 OA
ENDBRANCH   1  10
BRANCH   5  13
ATOM     13  C   UNL     1       3.233   5.818  18.472  0.00  0.00    +0.000 C 
ATOM     14  C   UNL     1       4.474   5.601  19.381  0.00  0.00    +0.000 C 
ATOM     15  O   UNL     1       5.151   4.875  18.322  0.00  0.00    +0.000 OA
ATOM     16  C   UNL     1       4.267   5.507  17.350  0.00  0.00    +0.000 C 
BRANCH  13  17
ATOM     17  C   UNL     1       2.172   4.703  18.616  0.00  0.00    +0.000 C 
BRANCH  17  18
ATOM     18  C   UNL     1       2.301   3.943  19.898  0.00  0.00    +0.000 A 
ATOM     19  N   UNL     1       1.856   4.340  21.076  0.00  0.00    +0.000 NA
ATOM     20  N   UNL     1       2.161   3.366  21.998  0.00  0.00    +0.000 NA
ATOM     21  C   UNL     1       2.782   2.397  21.369  0.00  0.00    +0.000 A 
ATOM     22  N   UNL     1       2.901   2.717  20.050  0.00  0.00    +0.000 N 
ATOM     23  C   UNL     1       3.528   1.893  19.055  0.00  0.00    +0.000 C 
ENDBRANCH  17  18
ENDBRANCH  13  17
ENDBRANCH   5  13
TORSDOF 4
ENDMDL
MODEL 9
REMARK VINA RESULT:      -7.5      0.884      1.149
REMARK  Name = 
REMARK  5 active torsions:
REMARK  status: ('A' for Active; 'I' for Inactive)
REMARK    1  A    between atoms: N_4  and  C_5
REMARK    2  A    between atoms: C_9  and  C_10
REMARK    3  A    between atoms: C_10  and  C_11
REMARK    4  A    between atoms: C_11  and  C_12
REMARK    5  A    between atoms: N_16  and  C_17
REMARK                            x       y       z     vdW  Elec       q    Type
REMARK                         _______ _______ _______ _____ _____    ______ ____
ROOT
ATOM      1  C   UNL     1       6.297   4.931  15.741  0.00  0.00    +0.000 A 
ATOM      2  C   UNL     1       7.445   4.746  16.510  0.00  0.00    +0.000 A 
ATOM      3  C   UNL     1       7.369   4.814  17.898  0.00  0.00    +0.000 A 
ATOM      4  C   UNL     1       6.151   5.098  18.514  0.00  0.00    +0.000 A 
ATOM      5  C   UNL     1       4.988   5.396  17.773  0.00  0.00    +0.000 A 
ATOM      6  C   UNL     1       5.100   5.287  16.374  0.00  0.00    +0.000 A 
ENDROOT
BRANCH   1  10
ATOM      7  C   UNL     1       7.158   3.207  11.517  0.00  0.00    +0.000 C 
ATOM      8  C   UNL     1       6.731   3.829  12.614  0.00  0.00    +0.000 C 
ATOM      9  C   UNL     1       5.596   3.690  13.603  0.00  0.00    +0.000 C 
ATOM     10  N   UNL     1       6.302   4.704  14.366  0.00  0.00    +0.000 N 
ATOM     11  C   UNL     1       7.267   4.914  13.441  0.00  0.00    +0.000 C 
ATOM     12  O   UNL     1       8.256   5.610  13.375  0.00  0.00    +0.000 OA
ENDBRANCH   1  10
BRANCH   5  13
ATOM     13  C   UNL     1       3.641   5.879  18.487  0.00  0.00    +0.000 C 
ATOM     14  C   UNL     1       2.321   5.484  17.769  0.00  0.00    +0.000 C 
ATOM     15  O   UNL     1       1.745   6.783  18.065  0.00  0.00    +0.000 OA
ATOM     16  C   UNL     1       3.089   7.315  18.250  0.00  0.00    +0.000 C 
BRANCH  13  17
ATOM     17  C   UNL     1       3.657   5.497  19.984  0.00  0.00    +0.000 C 
BRANCH  17  18
ATOM     18  C   UNL     1       2.716   4.380  20.306  0.00  0.00    +0.000 A 
ATOM     19  N   UNL     1       1.472   4.519  20.729  0.00  0.00    +0.000 NA
ATOM     20  N   UNL     1       0.939   3.263  20.906  0.00  0.00    +0.000 NA
ATOM     21  C   UNL     1       1.861   2.386  20.589  0.00  0.00    +0.000 A 
ATOM     22  N   UNL     1       2.997   3.039  20.215  0.00  0.00    +0.000 N 
ATOM     23  C   UNL     1       4.216   2.401  19.802  0.00  0.00    +0.000 C 
ENDBRANCH  17  18
ENDBRANCH  13  17
ENDBRANCH   5  13
TORSDOF 4
ENDMDL
