MODEL 1
REMARK VINA RESULT:      -9.0      0.000      0.000
REMARK  Name = 
REMARK  2 active torsions:
REMARK  status: ('A' for Active; 'I' for Inactive)
REMARK    1  A    between atoms: C_2  and  C_3
REMARK    2  A    between atoms: C_3  and  C_4
REMARK                            x       y       z     vdW  Elec       q    Type
REMARK                         _______ _______ _______ _____ _____    ______ ____
ROOT
ATOM      1  O   UNL     1       1.535   8.982  17.498  0.00  0.00    +0.000 OA
ATOM      2  C   UNL     1       1.234   9.020  18.702  0.00  0.00    +0.000 C 
ATOM      3  N   UNL     1       0.194   9.848  19.157  0.00  0.00    +0.000 N 
ATOM      4  C   UNL     1      -0.569  10.500  18.077  0.00  0.00    +0.000 C 
ATOM      5  C   UNL     1      -0.729  11.985  18.316  0.00  0.00    +0.000 C 
ATOM      6  C   UNL     1      -1.557  12.173  19.564  0.00  0.00    +0.000 C 
ATOM      7  C   UNL     1      -1.052  11.321  20.706  0.00  0.00    +0.000 A 
ATOM      8  C   UNL     1      -1.456  11.731  21.999  0.00  0.00    +0.000 A 
ATOM      9  C   UNL     1      -1.056  11.030  23.124  0.00  0.00    +0.000 A 
ATOM     10  C   UNL     1      -0.309   9.885  22.950  0.00  0.00    +0.000 A 
ATOM     11  F   UNL     1       0.061   9.178  24.028  0.00  0.00    +0.000 F 
ATOM     12  C   UNL     1       0.057   9.441  21.675  0.00  0.00    +0.000 A 
ATOM     13  F   UNL     1       0.631   8.239  21.656  0.00  0.00    +0.000 F 
ATOM     14  C   UNL     1      -0.246  10.162  20.509  0.00  0.00    +0.000 A 
ENDROOT
BRANCH   2  15
ATOM     15  C   UNL     1       2.072   8.153  19.609  0.00  0.00    +0.000 C 
BRANCH  15  16
ATOM     16  C   UNL     1       2.687   6.965  18.882  0.00  0.00    +0.000 A 
ATOM     17  N   UNL     1       3.538   7.210  17.929  0.00  0.00    +0.000 NA
ATOM     18  N   UNL     1       4.060   6.170  17.231  0.00  0.00    +0.000 N 
ATOM     19  C   UNL     1       3.741   4.848  17.403  0.00  0.00    +0.000 A 
ATOM     20  O   UNL     1       4.221   3.963  16.702  0.00  0.00    +0.000 OA
ATOM     21  C   UNL     1       2.802   4.544  18.489  0.00  0.00    +0.000 A 
ATOM     22  C   UNL     1       2.456   3.214  18.759  0.00  0.00    +0.000 A 
ATOM     23  C   UNL     1       1.595   2.926  19.815  0.00  0.00    +0.000 A 
ATOM     24  C   UNL     1       1.077   3.963  20.592  0.00  0.00    +0.000 A 
ATOM     25  C   UNL     1       1.411   5.294  20.311  0.00  0.00    +0.000 A 
ATOM     26  C   UNL     1       2.281   5.586  19.254  0.00  0.00    +0.000 A 
ATOM     27  H   UNL     1       4.713   6.405  16.491  0.00  0.00    +0.000 HD
ENDBRANCH  15  16
ENDBRANCH   2  15
TORSDOF 2
ENDMDL
MODEL 2
REMARK VINA RESULT:      -9.0      2.533      7.432
REMARK  Name = 
REMARK  2 active torsions:
REMARK  status: ('A' for Active; 'I' for Inactive)
REMARK    1  A    between atoms: C_2  and  C_3
REMARK    2  A    between atoms: C_3  and  C_4
REMARK                            x       y       z     vdW  Elec       q    Type
REMARK                         _______ _______ _______ _____ _____    ______ ____
ROOT
ATOM      1  O   UNL     1       1.072   5.745  20.613  0.00  0.00    +0.000 OA
ATOM      2  C   UNL     1       1.947   5.967  19.760  0.00  0.00    +0.000 C 
ATOM      3  N   UNL     1       2.326   4.972  18.843  0.00  0.00    +0.000 N 
ATOM      4  C   UNL     1       1.491   3.758  18.897  0.00  0.00    +0.000 C 
ATOM      5  C   UNL     1       2.328   2.500  18.967  0.00  0.00    +0.000 C 
ATOM      6  C   UNL     1       3.118   2.389  17.685  0.00  0.00    +0.000 C 
ATOM      7  C   UNL     1       3.813   3.686  17.341  0.00  0.00    +0.000 A 
ATOM      8  C   UNL     1       4.897   3.577  16.437  0.00  0.00    +0.000 A 
ATOM      9  C   UNL     1       5.613   4.697  16.047  0.00  0.00    +0.000 A 
ATOM     10  C   UNL     1       5.202   5.929  16.507  0.00  0.00    +0.000 A 
ATOM     11  F   UNL     1       5.865   7.026  16.114  0.00  0.00    +0.000 F 
ATOM     12  C   UNL     1       4.102   6.056  17.362  0.00  0.00    +0.000 A 
ATOM     13  F   UNL     1       3.726   7.315  17.588  0.00  0.00    +0.000 F 
ATOM     14  C   UNL     1       3.399   4.948  17.859  0.00  0.00    +0.000 A 
ENDROOT
BRANCH   2  15
ATOM     15  C   UNL     1       2.568   7.341  19.808  0.00  0.00    +0.000 C 
BRANCH  15  16
ATOM     16  C   UNL     1       1.570   8.448  19.496  0.00  0.00    +0.000 A 
ATOM     17  N   UNL     1       1.390   8.770  18.248  0.00  0.00    +0.000 NA
ATOM     18  N   UNL     1       0.546   9.789  17.947  0.00  0.00    +0.000 N 
ATOM     19  C   UNL     1      -0.126  10.567  18.853  0.00  0.00    +0.000 A 
ATOM     20  O   UNL     1      -0.841  11.504  18.508  0.00  0.00    +0.000 OA
ATOM     21  C   UNL     1       0.041  10.208  20.267  0.00  0.00    +0.000 A 
ATOM     22  C   UNL     1      -0.645  10.927  21.254  0.00  0.00    +0.000 A 
ATOM     23  C   UNL     1      -0.515  10.559  22.590  0.00  0.00    +0.000 A 
ATOM     24  C   UNL     1       0.303   9.482  22.938  0.00  0.00    +0.000 A 
ATOM     25  C   UNL     1       1.001   8.774  21.951  0.00  0.00    +0.000 A 
ATOM     26  C   UNL     1       0.867   9.138  20.607  0.00  0.00    +0.000 A 
ATOM     27  H   UNL     1       0.440  10.012  16.963  0.00  0.00    +0.000 HD
ENDBRANCH  15  16
ENDBRANCH   2  15
TORSDOF 2
ENDMDL
MODEL 3
REMARK VINA RESULT:      -8.7      2.370      7.309
REMARK  Name = 
REMARK  2 active torsions:
REMARK  status: ('A' for Active; 'I' for Inactive)
REMARK    1  A    between atoms: C_2  and  C_3
REMARK    2  A    between atoms: C_3  and  C_4
REMARK                            x       y       z     vdW  Elec       q    Type
REMARK                         _______ _______ _______ _____ _____    ______ ____
ROOT
ATOM      1  O   UNL     1       3.493   8.696  17.618  0.00  0.00    +0.000 OA
ATOM      2  C   UNL     1       2.987   7.588  17.861  0.00  0.00    +0.000 C 
ATOM      3  N   UNL     1       3.733   6.408  17.707  0.00  0.00    +0.000 N 
ATOM      4  C   UNL     1       5.159   6.635  17.405  0.00  0.00    +0.000 C 
ATOM      5  C   UNL     1       5.625   5.809  16.227  0.00  0.00    +0.000 C 
ATOM      6  C   UNL     1       5.520   4.351  16.605  0.00  0.00    +0.000 C 
ATOM      7  C   UNL     1       4.176   4.025  17.213  0.00  0.00    +0.000 A 
ATOM      8  C   UNL     1       3.814   2.656  17.196  0.00  0.00    +0.000 A 
ATOM      9  C   UNL     1       2.605   2.234  17.723  0.00  0.00    +0.000 A 
ATOM     10  C   UNL     1       1.791   3.169  18.325  0.00  0.00    +0.000 A 
ATOM     11  F   UNL     1       0.631   2.771  18.867  0.00  0.00    +0.000 F 
ATOM     12  C   UNL     1       2.159   4.517  18.393  0.00  0.00    +0.000 A 
ATOM     13  F   UNL     1       1.355   5.268  19.146  0.00  0.00    +0.000 F 
ATOM     14  C   UNL     1       3.329   5.012  17.795  0.00  0.00    +0.000 A 
ENDROOT
BRANCH   2  15
ATOM     15  C   UNL     1       1.542   7.615  18.293  0.00  0.00    +0.000 C 
BRANCH  15  16
ATOM     16  C   UNL     1       1.337   8.344  19.613  0.00  0.00    +0.000 A 
ATOM     17  N   UNL     1       1.862   7.824  20.684  0.00  0.00    +0.000 NA
ATOM     18  N   UNL     1       1.649   8.426  21.880  0.00  0.00    +0.000 N 
ATOM     19  C   UNL     1       0.878   9.539  22.092  0.00  0.00    +0.000 A 
ATOM     20  O   UNL     1       0.693  10.004  23.213  0.00  0.00    +0.000 OA
ATOM     21  C   UNL     1       0.294  10.160  20.897  0.00  0.00    +0.000 A 
ATOM     22  C   UNL     1      -0.473  11.325  21.021  0.00  0.00    +0.000 A 
ATOM     23  C   UNL     1      -0.993  11.933  19.881  0.00  0.00    +0.000 A 
ATOM     24  C   UNL     1      -0.753  11.375  18.625  0.00  0.00    +0.000 A 
ATOM     25  C   UNL     1       0.001  10.201  18.504  0.00  0.00    +0.000 A 
ATOM     26  C   UNL     1       0.530   9.591  19.646  0.00  0.00    +0.000 A 
ATOM     27  H   UNL     1       2.070   7.983  22.690  0.00  0.00    +0.000 HD
ENDBRANCH  15  16
ENDBRANCH   2  15
TORSDOF 2
ENDMDL
MODEL 4
REMARK VINA RESULT:      -8.6      1.859      7.036
REMARK  Name = 
REMARK  2 active torsions:
REMARK  status: ('A' for Active; 'I' for Inactive)
REMARK    1  A    between atoms: C_2  and  C_3
REMARK    2  A    between atoms: C_3  and  C_4
REMARK                            x       y       z     vdW  Elec       q    Type
REMARK                         _______ _______ _______ _____ _____    ______ ____
ROOT
ATOM      1  O   UNL     1       3.427   8.165  18.104  0.00  0.00    +0.000 OA
ATOM      2  C   UNL     1       2.972   7.176  18.701  0.00  0.00    +0.000 C 
ATOM      3  N   UNL     1       3.455   5.886  18.426  0.00  0.00    +0.000 N 
ATOM      4  C   UNL     1       4.619   5.861  17.522  0.00  0.00    +0.000 C 
ATOM      5  C   UNL     1       4.439   4.868  16.396  0.00  0.00    +0.000 C 
ATOM      6  C   UNL     1       4.367   3.485  16.996  0.00  0.00    +0.000 C 
ATOM      7  C   UNL     1       3.399   3.427  18.156  0.00  0.00    +0.000 A 
ATOM      8  C   UNL     1       2.933   2.135  18.499  0.00  0.00    +0.000 A 
ATOM      9  C   UNL     1       2.042   1.954  19.543  0.00  0.00    +0.000 A 
ATOM     10  C   UNL     1       1.671   3.055  20.284  0.00  0.00    +0.000 A 
ATOM     11  F   UNL     1       0.832   2.893  21.318  0.00  0.00    +0.000 F 
ATOM     12  C   UNL     1       2.162   4.331  19.987  0.00  0.00    +0.000 A 
ATOM     13  F   UNL     1       1.847   5.263  20.886  0.00  0.00    +0.000 F 
ATOM     14  C   UNL     1       2.995   4.582  18.885  0.00  0.00    +0.000 A 
ENDROOT
BRANCH   2  15
ATOM     15  C   UNL     1       1.872   7.464  19.692  0.00  0.00    +0.000 C 
BRANCH  15  16
ATOM     16  C   UNL     1       1.203   8.811  19.452  0.00  0.00    +0.000 A 
ATOM     17  N   UNL     1       1.256   9.311  18.252  0.00  0.00    +0.000 NA
ATOM     18  N   UNL     1       0.714  10.533  18.025  0.00  0.00    +0.000 N 
ATOM     19  C   UNL     1       0.136  11.343  18.968  0.00  0.00    +0.000 A 
ATOM     20  O   UNL     1      -0.294  12.460  18.698  0.00  0.00    +0.000 OA
ATOM     21  C   UNL     1       0.043  10.792  20.326  0.00  0.00    +0.000 A 
ATOM     22  C   UNL     1      -0.572  11.537  21.340  0.00  0.00    +0.000 A 
ATOM     23  C   UNL     1      -0.693  10.995  22.617  0.00  0.00    +0.000 A 
ATOM     24  C   UNL     1      -0.196   9.717  22.880  0.00  0.00    +0.000 A 
ATOM     25  C   UNL     1       0.433   8.980  21.869  0.00  0.00    +0.000 A 
ATOM     26  C   UNL     1       0.551   9.519  20.583  0.00  0.00    +0.000 A 
ATOM     27  H   UNL     1       0.783  10.889  17.077  0.00  0.00    +0.000 HD
ENDBRANCH  15  16
ENDBRANCH   2  15
TORSDOF 2
ENDMDL
MODEL 5
REMARK VINA RESULT:      -8.5      4.240      6.941
REMARK  Name = 
REMARK  2 active torsions:
REMARK  status: ('A' for Active; 'I' for Inactive)
REMARK    1  A    between atoms: C_2  and  C_3
REMARK    2  A    between atoms: C_3  and  C_4
REMARK                            x       y       z     vdW  Elec       q    Type
REMARK                         _______ _______ _______ _____ _____    ______ ____
ROOT
ATOM      1  O   UNL     1       4.573   6.828  16.572  0.00  0.00    +0.000 OA
ATOM      2  C   UNL     1       4.144   5.752  17.022  0.00  0.00    +0.000 C 
ATOM      3  N   UNL     1       3.132   5.733  17.995  0.00  0.00    +0.000 N 
ATOM      4  C   UNL     1       2.548   7.057  18.280  0.00  0.00    +0.000 C 
ATOM      5  C   UNL     1       2.485   7.338  19.765  0.00  0.00    +0.000 C 
ATOM      6  C   UNL     1       1.542   6.340  20.392  0.00  0.00    +0.000 C 
ATOM      7  C   UNL     1       1.847   4.927  19.950  0.00  0.00    +0.000 A 
ATOM      8  C   UNL     1       1.336   3.902  20.783  0.00  0.00    +0.000 A 
ATOM      9  C   UNL     1       1.551   2.568  20.482  0.00  0.00    +0.000 A 
ATOM     10  C   UNL     1       2.217   2.260  19.315  0.00  0.00    +0.000 A 
ATOM     11  F   UNL     1       2.406   0.972  18.994  0.00  0.00    +0.000 F 
ATOM     12  C   UNL     1       2.683   3.261  18.458  0.00  0.00    +0.000 A 
ATOM     13  F   UNL     1       3.157   2.812  17.295  0.00  0.00    +0.000 F 
ATOM     14  C   UNL     1       2.572   4.627  18.760  0.00  0.00    +0.000 A 
ENDROOT
BRANCH   2  15
ATOM     15  C   UNL     1       4.803   4.510  16.474  0.00  0.00    +0.000 C 
BRANCH  15  16
ATOM     16  C   UNL     1       5.981   4.824  15.562  0.00  0.00    +0.000 A 
ATOM     17  N   UNL     1       6.945   5.554  16.043  0.00  0.00    +0.000 NA
ATOM     18  N   UNL     1       7.980   5.891  15.234  0.00  0.00    +0.000 N 
ATOM     19  C   UNL     1       8.100   5.569  13.908  0.00  0.00    +0.000 A 
ATOM     20  O   UNL     1       9.047   5.948  13.225  0.00  0.00    +0.000 OA
ATOM     21  C   UNL     1       7.038   4.725  13.347  0.00  0.00    +0.000 A 
ATOM     22  C   UNL     1       7.106   4.315  12.010  0.00  0.00    +0.000 A 
ATOM     23  C   UNL     1       6.117   3.483  11.492  0.00  0.00    +0.000 A 
ATOM     24  C   UNL     1       5.061   3.069  12.307  0.00  0.00    +0.000 A 
ATOM     25  C   UNL     1       4.986   3.492  13.639  0.00  0.00    +0.000 A 
ATOM     26  C   UNL     1       5.982   4.324  14.164  0.00  0.00    +0.000 A 
ATOM     27  H   UNL     1       8.706   6.468  15.647  0.00  0.00    +0.000 HD
ENDBRANCH  15  16
ENDBRANCH   2  15
TORSDOF 2
ENDMDL
MODEL 6
REMARK VINA RESULT:      -8.4      2.776      7.668
REMARK  Name = 
REMARK  2 active torsions:
REMARK  status: ('A' for Active; 'I' for Inactive)
REMARK    1  A    between atoms: C_2  and  C_3
REMARK    2  A    between atoms: C_3  and  C_4
REMARK                            x       y       z     vdW  Elec       q    Type
REMARK                         _______ _______ _______ _____ _____    ______ ____
ROOT
ATOM      1  O   UNL     1       1.006   5.934  20.892  0.00  0.00    +0.000 OA
ATOM      2  C   UNL     1       1.798   6.140  19.957  0.00  0.00    +0.000 C 
ATOM      3  N   UNL     1       2.230   5.086  19.136  0.00  0.00    +0.000 N 
ATOM      4  C   UNL     1       1.543   3.806  19.390  0.00  0.00    +0.000 C 
ATOM      5  C   UNL     1       2.519   2.662  19.543  0.00  0.00    +0.000 C 
ATOM      6  C   UNL     1       3.237   2.478  18.228  0.00  0.00    +0.000 C 
ATOM      7  C   UNL     1       3.760   3.789  17.687  0.00  0.00    +0.000 A 
ATOM      8  C   UNL     1       4.793   3.684  16.725  0.00  0.00    +0.000 A 
ATOM      9  C   UNL     1       5.354   4.816  16.157  0.00  0.00    +0.000 A 
ATOM     10  C   UNL     1       4.835   6.045  16.502  0.00  0.00    +0.000 A 
ATOM     11  F   UNL     1       5.346   7.149  15.937  0.00  0.00    +0.000 F 
ATOM     12  C   UNL     1       3.781   6.161  17.414  0.00  0.00    +0.000 A 
ATOM     13  F   UNL     1       3.279   7.391  17.520  0.00  0.00    +0.000 F 
ATOM     14  C   UNL     1       3.239   5.054  18.085  0.00  0.00    +0.000 A 
ENDROOT
BRANCH   2  15
ATOM     15  C   UNL     1       2.262   7.567  19.801  0.00  0.00    +0.000 C 
BRANCH  15  16
ATOM     16  C   UNL     1       1.477   8.538  20.674  0.00  0.00    +0.000 A 
ATOM     17  N   UNL     1       1.641   8.466  21.963  0.00  0.00    +0.000 NA
ATOM     18  N   UNL     1       0.914   9.284  22.764  0.00  0.00    +0.000 N 
ATOM     19  C   UNL     1      -0.037  10.178  22.347  0.00  0.00    +0.000 A 
ATOM     20  O   UNL     1      -0.689  10.856  23.135  0.00  0.00    +0.000 OA
ATOM     21  C   UNL     1      -0.223  10.297  20.895  0.00  0.00    +0.000 A 
ATOM     22  C   UNL     1      -1.145  11.218  20.383  0.00  0.00    +0.000 A 
ATOM     23  C   UNL     1      -1.291  11.355  19.005  0.00  0.00    +0.000 A 
ATOM     24  C   UNL     1      -0.523  10.569  18.144  0.00  0.00    +0.000 A 
ATOM     25  C   UNL     1       0.387   9.637  18.657  0.00  0.00    +0.000 A 
ATOM     26  C   UNL     1       0.541   9.501  20.041  0.00  0.00    +0.000 A 
ATOM     27  H   UNL     1       1.066   9.190  23.763  0.00  0.00    +0.000 HD
ENDBRANCH  15  16
ENDBRANCH   2  15
TORSDOF 2
ENDMDL
MODEL 7
REMARK VINA RESULT:      -8.4      1.352      2.287
REMARK  Name = 
REMARK  2 active torsions:
REMARK  status: ('A' for Active; 'I' for Inactive)
REMARK    1  A    between atoms: C_2  and  C_3
REMARK    2  A    between atoms: C_3  and  C_4
REMARK                            x       y       z     vdW  Elec       q    Type
REMARK                         _______ _______ _______ _____ _____    ______ ____
ROOT
ATOM      1  O   UNL     1       1.633   8.854  17.435  0.00  0.00    +0.000 OA
ATOM      2  C   UNL     1       1.368   8.909  18.647  0.00  0.00    +0.000 C 
ATOM      3  N   UNL     1       0.297   9.689  19.113  0.00  0.00    +0.000 N 
ATOM      4  C   UNL     1      -0.536  10.267  18.041  0.00  0.00    +0.000 C 
ATOM      5  C   UNL     1      -0.773  11.746  18.247  0.00  0.00    +0.000 C 
ATOM      6  C   UNL     1      -1.572  11.923  19.515  0.00  0.00    +0.000 C 
ATOM      7  C   UNL     1      -0.983  11.133  20.662  0.00  0.00    +0.000 A 
ATOM      8  C   UNL     1      -1.371  11.555  21.957  0.00  0.00    +0.000 A 
ATOM      9  C   UNL     1      -0.896  10.909  23.086  0.00  0.00    +0.000 A 
ATOM     10  C   UNL     1      -0.091   9.804  22.919  0.00  0.00    +0.000 A 
ATOM     11  F   UNL     1       0.352   9.149  24.002  0.00  0.00    +0.000 F 
ATOM     12  C   UNL     1       0.260   9.346  21.645  0.00  0.00    +0.000 A 
ATOM     13  F   UNL     1       0.902   8.178  21.638  0.00  0.00    +0.000 F 
ATOM     14  C   UNL     1      -0.119  10.016  20.470  0.00  0.00    +0.000 A 
ENDROOT
BRANCH   2  15
ATOM     15  C   UNL     1       2.281   8.117  19.549  0.00  0.00    +0.000 C 
BRANCH  15  16
ATOM     16  C   UNL     1       2.356   6.645  19.163  0.00  0.00    +0.000 A 
ATOM     17  N   UNL     1       1.565   5.814  19.777  0.00  0.00    +0.000 NA
ATOM     18  N   UNL     1       1.650   4.492  19.489  0.00  0.00    +0.000 N 
ATOM     19  C   UNL     1       2.540   3.915  18.621  0.00  0.00    +0.000 A 
ATOM     20  O   UNL     1       2.589   2.702  18.443  0.00  0.00    +0.000 OA
ATOM     21  C   UNL     1       3.427   4.834  17.897  0.00  0.00    +0.000 A 
ATOM     22  C   UNL     1       4.338   4.330  16.960  0.00  0.00    +0.000 A 
ATOM     23  C   UNL     1       5.151   5.207  16.248  0.00  0.00    +0.000 A 
ATOM     24  C   UNL     1       5.058   6.581  16.476  0.00  0.00    +0.000 A 
ATOM     25  C   UNL     1       4.158   7.083  17.424  0.00  0.00    +0.000 A 
ATOM     26  C   UNL     1       3.335   6.204  18.138  0.00  0.00    +0.000 A 
ATOM     27  H   UNL     1       1.020   3.878  19.995  0.00  0.00    +0.000 HD
ENDBRANCH  15  16
ENDBRANCH   2  15
TORSDOF 2
ENDMDL
MODEL 8
REMARK VINA RESULT:      -8.4      2.018      3.046
REMARK  Name = 
REMARK  2 active torsions:
REMARK  status: ('A' for Active; 'I' for Inactive)
REMARK    1  A    between atoms: C_2  and  C_3
REMARK    2  A    between atoms: C_3  and  C_4
REMARK                            x       y       z     vdW  Elec       q    Type
REMARK                         _______ _______ _______ _____ _____    ______ ____
ROOT
ATOM      1  O   UNL     1       2.286   7.142  20.747  0.00  0.00    +0.000 OA
ATOM      2  C   UNL     1       1.633   7.974  20.096  0.00  0.00    +0.000 C 
ATOM      3  N   UNL     1       1.017   9.062  20.736  0.00  0.00    +0.000 N 
ATOM      4  C   UNL     1       1.358   9.190  22.165  0.00  0.00    +0.000 C 
ATOM      5  C   UNL     1       0.126   9.370  23.025  0.00  0.00    +0.000 C 
ATOM      6  C   UNL     1      -0.524  10.679  22.647  0.00  0.00    +0.000 C 
ATOM      7  C   UNL     1      -0.678  10.817  21.150  0.00  0.00    +0.000 A 
ATOM      8  C   UNL     1      -1.638  11.764  20.720  0.00  0.00    +0.000 A 
ATOM      9  C   UNL     1      -1.870  11.979  19.371  0.00  0.00    +0.000 A 
ATOM     10  C   UNL     1      -1.096  11.297  18.458  0.00  0.00    +0.000 A 
ATOM     11  F   UNL     1      -1.286  11.517  17.149  0.00  0.00    +0.000 F 
ATOM     12  C   UNL     1      -0.110  10.395  18.870  0.00  0.00    +0.000 A 
ATOM     13  F   UNL     1       0.665   9.940  17.884  0.00  0.00    +0.000 F 
ATOM     14  C   UNL     1       0.104  10.073  20.219  0.00  0.00    +0.000 A 
ENDROOT
BRANCH   2  15
ATOM     15  C   UNL     1       1.538   7.710  18.614  0.00  0.00    +0.000 C 
BRANCH  15  16
ATOM     16  C   UNL     1       2.726   6.922  18.080  0.00  0.00    +0.000 A 
ATOM     17  N   UNL     1       3.786   7.587  17.723  0.00  0.00    +0.000 NA
ATOM     18  N   UNL     1       4.838   6.913  17.195  0.00  0.00    +0.000 N 
ATOM     19  C   UNL     1       4.886   5.565  16.951  0.00  0.00    +0.000 A 
ATOM     20  O   UNL     1       5.858   5.029  16.427  0.00  0.00    +0.000 OA
ATOM     21  C   UNL     1       3.712   4.788  17.367  0.00  0.00    +0.000 A 
ATOM     22  C   UNL     1       3.697   3.399  17.193  0.00  0.00    +0.000 A 
ATOM     23  C   UNL     1       2.598   2.661  17.624  0.00  0.00    +0.000 A 
ATOM     24  C   UNL     1       1.517   3.310  18.221  0.00  0.00    +0.000 A 
ATOM     25  C   UNL     1       1.526   4.701  18.382  0.00  0.00    +0.000 A 
ATOM     26  C   UNL     1       2.631   5.445  17.954  0.00  0.00    +0.000 A 
ATOM     27  H   UNL     1       5.641   7.470  16.923  0.00  0.00    +0.000 HD
ENDBRANCH  15  16
ENDBRANCH   2  15
TORSDOF 2
ENDMDL
MODEL 9
REMARK VINA RESULT:      -8.2      3.839      6.900
REMARK  Name = 
REMARK  2 active torsions:
REMARK  status: ('A' for Active; 'I' for Inactive)
REMARK    1  A    between atoms: C_2  and  C_3
REMARK    2  A    between atoms: C_3  and  C_4
REMARK                            x       y       z     vdW  Elec       q    Type
REMARK                         _______ _______ _______ _____ _____    ______ ____
ROOT
ATOM      1  O   UNL     1       4.688   2.649  16.987  0.00  0.00    +0.000 OA
ATOM      2  C   UNL     1       4.252   3.794  17.193  0.00  0.00    +0.000 C 
ATOM      3  N   UNL     1       3.855   4.191  18.480  0.00  0.00    +0.000 N 
ATOM      4  C   UNL     1       4.159   3.204  19.533  0.00  0.00    +0.000 C 
ATOM      5  C   UNL     1       2.961   2.933  20.415  0.00  0.00    +0.000 C 
ATOM      6  C   UNL     1       2.617   4.208  21.147  0.00  0.00    +0.000 C 
ATOM      7  C   UNL     1       2.554   5.392  20.209  0.00  0.00    +0.000 A 
ATOM      8  C   UNL     1       1.833   6.513  20.688  0.00  0.00    +0.000 A 
ATOM      9  C   UNL     1       1.705   7.657  19.918  0.00  0.00    +0.000 A 
ATOM     10  C   UNL     1       2.353   7.704  18.703  0.00  0.00    +0.000 A 
ATOM     11  F   UNL     1       2.264   8.816  17.959  0.00  0.00    +0.000 F 
ATOM     12  C   UNL     1       3.109   6.623  18.239  0.00  0.00    +0.000 A 
ATOM     13  F   UNL     1       3.808   6.876  17.133  0.00  0.00    +0.000 F 
ATOM     14  C   UNL     1       3.197   5.408  18.937  0.00  0.00    +0.000 A 
ENDROOT
BRANCH   2  15
ATOM     15  C   UNL     1       4.160   4.682  15.977  0.00  0.00    +0.000 C 
BRANCH  15  16
ATOM     16  C   UNL     1       5.506   4.879  15.291  0.00  0.00    +0.000 A 
ATOM     17  N   UNL     1       6.409   5.581  15.912  0.00  0.00    +0.000 NA
ATOM     18  N   UNL     1       7.596   5.815  15.300  0.00  0.00    +0.000 N 
ATOM     19  C   UNL     1       7.939   5.413  14.035  0.00  0.00    +0.000 A 
ATOM     20  O   UNL     1       9.018   5.701  13.527  0.00  0.00    +0.000 OA
ATOM     21  C   UNL     1       6.947   4.599  13.322  0.00  0.00    +0.000 A 
ATOM     22  C   UNL     1       7.236   4.112  12.041  0.00  0.00    +0.000 A 
ATOM     23  C   UNL     1       6.308   3.308  11.384  0.00  0.00    +0.000 A 
ATOM     24  C   UNL     1       5.095   3.000  12.001  0.00  0.00    +0.000 A 
ATOM     25  C   UNL     1       4.801   3.500  13.275  0.00  0.00    +0.000 A 
ATOM     26  C   UNL     1       5.733   4.303  13.942  0.00  0.00    +0.000 A 
ATOM     27  H   UNL     1       8.268   6.372  15.816  0.00  0.00    +0.000 HD
ENDBRANCH  15  16
ENDBRANCH   2  15
TORSDOF 2
ENDMDL
