MODEL 1
REMARK VINA RESULT:      -9.6      0.000      0.000
REMARK  Name = 
REMARK  5 active torsions:
REMARK  status: ('A' for Active; 'I' for Inactive)
REMARK    1  A    between atoms: C_1  and  O_2
REMARK    2  A    between atoms: O_2  and  C_3
REMARK    3  A    between atoms: C_7  and  C_8
REMARK    4  A    between atoms: C_11  and  C_12
REMARK    5  A    between atoms: C_12  and  N_13
REMARK                            x       y       z     vdW  Elec       q    Type
REMARK                         _______ _______ _______ _____ _____    ______ ____
ROOT
ATOM      1  N   UNL     1       5.864   5.925  17.867  0.00  0.00    +0.000 N 
ATOM      2  C   UNL     1       4.778   6.465  17.215  0.00  0.00    +0.000 C 
ATOM      3  O   UNL     1       4.776   7.177  16.225  0.00  0.00    +0.000 OA
ATOM      4  N   UNL     1       3.619   5.900  17.754  0.00  0.00    +0.000 N 
ATOM      5  C   UNL     1       3.961   4.622  18.347  0.00  0.00    +0.000 C 
ATOM      6  C   UNL     1       4.318   3.595  17.223  0.00  0.00    +0.000 C 
ATOM      7  C   UNL     1       3.440   2.410  16.943  0.00  0.00    +0.000 C 
ATOM      8  C   UNL     1       2.540   1.956  18.057  0.00  0.00    +0.000 C 
ATOM      9  C   UNL     1       2.376   2.857  19.241  0.00  0.00    +0.000 A 
ATOM     10  C   UNL     1       1.539   2.348  20.253  0.00  0.00    +0.000 A 
ATOM     11  C   UNL     1       1.356   3.034  21.443  0.00  0.00    +0.000 A 
ATOM     12  C   UNL     1       2.000   4.247  21.631  0.00  0.00    +0.000 A 
ATOM     13  C   UNL     1       2.816   4.781  20.620  0.00  0.00    +0.000 A 
ATOM     14  C   UNL     1       3.028   4.093  19.407  0.00  0.00    +0.000 A 
ATOM     15  C   UNL     1       5.344   5.077  18.831  0.00  0.00    +0.000 C 
ATOM     16  O   UNL     1       6.005   4.565  19.730  0.00  0.00    +0.000 OA
ATOM     17  H   UNL     1       2.751   6.052  17.256  0.00  0.00    +0.000 HD
ENDROOT
BRANCH   1  18
ATOM     18  C   UNL     1       6.889   5.274  17.076  0.00  0.00    +0.000 C 
BRANCH  18  22
ATOM     19  C   UNL     1       6.664   4.340  13.729  0.00  0.00    +0.000 A 
ATOM     20  N   UNL     1       7.730   5.153  13.644  0.00  0.00    +0.000 NA
ATOM     21  O   UNL     1       7.793   5.745  14.905  0.00  0.00    +0.000 OA
ATOM     22  C   UNL     1       6.758   5.227  15.622  0.00  0.00    +0.000 A 
ATOM     23  N   UNL     1       6.028   4.375  14.942  0.00  0.00    +0.000 NA
BRANCH  19  28
ATOM     24  C   UNL     1       4.435   2.810  11.134  0.00  0.00    +0.000 A 
ATOM     25  C   UNL     1       5.306   1.900  10.537  0.00  0.00    +0.000 A 
ATOM     26  C   UNL     1       6.608   1.744  11.023  0.00  0.00    +0.000 A 
ATOM     27  C   UNL     1       7.054   2.518  12.092  0.00  0.00    +0.000 A 
ATOM     28  C   UNL     1       6.203   3.462  12.671  0.00  0.00    +0.000 A 
ATOM     29  C   UNL     1       4.887   3.583  12.201  0.00  0.00    +0.000 A 
BRANCH  24  31
ATOM     30  C   UNL     1       2.986   4.011   9.696  0.00  0.00    +0.000 C 
ATOM     31  O   UNL     1       3.151   3.071  10.748  0.00  0.00    +0.000 OA
ENDBRANCH  24  31
ENDBRANCH  19  28
ENDBRANCH  18  22
ENDBRANCH   1  18
TORSDOF 4
ENDMDL
MODEL 2
REMARK VINA RESULT:      -9.2      6.012      7.684
REMARK  Name = 
REMARK  5 active torsions:
REMARK  status: ('A' for Active; 'I' for Inactive)
REMARK    1  A    between atoms: C_1  and  O_2
REMARK    2  A    between atoms: O_2  and  C_3
REMARK    3  A    between atoms: C_7  and  C_8
REMARK    4  A    between atoms: C_11  and  C_12
REMARK    5  A    between atoms: C_12  and  N_13
REMARK                            x       y       z     vdW  Elec       q    Type
REMARK                         _______ _______ _______ _____ _____    ______ ____
ROOT
ATOM      1  N   UNL     1       1.268   9.813  19.069  0.00  0.00    +0.000 N 
ATOM      2  C   UNL     1       1.514  10.937  18.312  0.00  0.00    +0.000 C 
ATOM      3  O   UNL     1       2.446  11.140  17.553  0.00  0.00    +0.000 OA
ATOM      4  N   UNL     1       0.395  11.769  18.391  0.00  0.00    +0.000 N 
ATOM      5  C   UNL     1      -0.761  10.960  18.728  0.00  0.00    +0.000 C 
ATOM      6  C   UNL     1      -1.136  10.042  17.520  0.00  0.00    +0.000 C 
ATOM      7  C   UNL     1      -2.410  10.245  16.753  0.00  0.00    +0.000 C 
ATOM      8  C   UNL     1      -3.519  10.970  17.462  0.00  0.00    +0.000 C 
ATOM      9  C   UNL     1      -3.195  11.668  18.746  0.00  0.00    +0.000 A 
ATOM     10  C   UNL     1      -4.292  12.300  19.362  0.00  0.00    +0.000 A 
ATOM     11  C   UNL     1      -4.162  12.919  20.595  0.00  0.00    +0.000 A 
ATOM     12  C   UNL     1      -2.927  12.923  21.223  0.00  0.00    +0.000 A 
ATOM     13  C   UNL     1      -1.816  12.322  20.609  0.00  0.00    +0.000 A 
ATOM     14  C   UNL     1      -1.928  11.674  19.361  0.00  0.00    +0.000 A 
ATOM     15  C   UNL     1       0.021  10.005  19.640  0.00  0.00    +0.000 C 
ATOM     16  O   UNL     1      -0.449   9.300  20.528  0.00  0.00    +0.000 OA
ATOM     17  H   UNL     1       0.343  12.544  17.740  0.00  0.00    +0.000 HD
ENDROOT
BRANCH   1  18
ATOM     18  C   UNL     1       1.372   8.516  18.432  0.00  0.00    +0.000 C 
BRANCH  18  22
ATOM     19  C   UNL     1       4.006   6.239  18.395  0.00  0.00    +0.000 A 
ATOM     20  N   UNL     1       3.221   5.629  19.298  0.00  0.00    +0.000 NA
ATOM     21  O   UNL     1       2.214   6.561  19.540  0.00  0.00    +0.000 OA
ATOM     22  C   UNL     1       2.495   7.640  18.757  0.00  0.00    +0.000 A 
ATOM     23  N   UNL     1       3.591   7.498  18.050  0.00  0.00    +0.000 NA
BRANCH  19  28
ATOM     24  C   UNL     1       6.446   5.132  15.775  0.00  0.00    +0.000 A 
ATOM     25  C   UNL     1       7.495   4.664  16.567  0.00  0.00    +0.000 A 
ATOM     26  C   UNL     1       7.378   4.656  17.960  0.00  0.00    +0.000 A 
ATOM     27  C   UNL     1       6.223   5.141  18.570  0.00  0.00    +0.000 A 
ATOM     28  C   UNL     1       5.184   5.651  17.787  0.00  0.00    +0.000 A 
ATOM     29  C   UNL     1       5.295   5.618  16.389  0.00  0.00    +0.000 A 
BRANCH  24  31
ATOM     30  C   UNL     1       6.197   3.999  13.709  0.00  0.00    +0.000 C 
ATOM     31  O   UNL     1       6.438   5.210  14.411  0.00  0.00    +0.000 OA
ENDBRANCH  24  31
ENDBRANCH  19  28
ENDBRANCH  18  22
ENDBRANCH   1  18
TORSDOF 4
ENDMDL
MODEL 3
REMARK VINA RESULT:      -9.1      6.745      8.559
REMARK  Name = 
REMARK  5 active torsions:
REMARK  status: ('A' for Active; 'I' for Inactive)
REMARK    1  A    between atoms: C_1  and  O_2
REMARK    2  A    between atoms: O_2  and  C_3
REMARK    3  A    between atoms: C_7  and  C_8
REMARK    4  A    between atoms: C_11  and  C_12
REMARK    5  A    between atoms: C_12  and  N_13
REMARK                            x       y       z     vdW  Elec       q    Type
REMARK                         _______ _______ _______ _____ _____    ______ ____
ROOT
ATOM      1  N   UNL     1       0.772  10.937  19.406  0.00  0.00    +0.000 N 
ATOM      2  C   UNL     1       0.840  12.230  18.936  0.00  0.00    +0.000 C 
ATOM      3  O   UNL     1       1.669  12.711  18.184  0.00  0.00    +0.000 OA
ATOM      4  N   UNL     1      -0.336  12.890  19.305  0.00  0.00    +0.000 N 
ATOM      5  C   UNL     1      -1.374  11.900  19.516  0.00  0.00    +0.000 C 
ATOM      6  C   UNL     1      -1.787  11.263  18.149  0.00  0.00    +0.000 C 
ATOM      7  C   UNL     1      -3.144  11.502  17.556  0.00  0.00    +0.000 C 
ATOM      8  C   UNL     1      -4.236  11.908  18.505  0.00  0.00    +0.000 C 
ATOM      9  C   UNL     1      -3.847  12.309  19.895  0.00  0.00    +0.000 A 
ATOM     10  C   UNL     1      -4.929  12.649  20.730  0.00  0.00    +0.000 A 
ATOM     11  C   UNL     1      -4.731  12.964  22.064  0.00  0.00    +0.000 A 
ATOM     12  C   UNL     1      -3.444  12.954  22.578  0.00  0.00    +0.000 A 
ATOM     13  C   UNL     1      -2.352  12.645  21.751  0.00  0.00    +0.000 A 
ATOM     14  C   UNL     1      -2.531  12.308  20.394  0.00  0.00    +0.000 A 
ATOM     15  C   UNL     1      -0.423  10.847  20.100  0.00  0.00    +0.000 C 
ATOM     16  O   UNL     1      -0.737   9.902  20.817  0.00  0.00    +0.000 OA
ATOM     17  H   UNL     1      -0.521  13.787  18.873  0.00  0.00    +0.000 HD
ENDROOT
BRANCH   1  18
ATOM     18  C   UNL     1       0.926   9.850  18.460  0.00  0.00    +0.000 C 
BRANCH  18  22
ATOM     19  C   UNL     1       2.965   7.029  18.383  0.00  0.00    +0.000 A 
ATOM     20  N   UNL     1       2.497   6.910  19.636  0.00  0.00    +0.000 NA
ATOM     21  O   UNL     1       1.814   8.106  19.847  0.00  0.00    +0.000 OA
ATOM     22  C   UNL     1       1.940   8.825  18.697  0.00  0.00    +0.000 A 
ATOM     23  N   UNL     1       2.649   8.216  17.778  0.00  0.00    +0.000 NA
BRANCH  19  28
ATOM     24  C   UNL     1       4.108   3.654  17.222  0.00  0.00    +0.000 A 
ATOM     25  C   UNL     1       5.037   4.008  16.245  0.00  0.00    +0.000 A 
ATOM     26  C   UNL     1       5.334   5.353  16.006  0.00  0.00    +0.000 A 
ATOM     27  C   UNL     1       4.682   6.353  16.726  0.00  0.00    +0.000 A 
ATOM     28  C   UNL     1       3.719   6.010  17.678  0.00  0.00    +0.000 A 
ATOM     29  C   UNL     1       3.457   4.657  17.937  0.00  0.00    +0.000 A 
BRANCH  24  31
ATOM     30  C   UNL     1       3.432   2.135  18.910  0.00  0.00    +0.000 C 
ATOM     31  O   UNL     1       3.715   2.384  17.541  0.00  0.00    +0.000 OA
ENDBRANCH  24  31
ENDBRANCH  19  28
ENDBRANCH  18  22
ENDBRANCH   1  18
TORSDOF 4
ENDMDL
MODEL 4
REMARK VINA RESULT:      -9.1      4.564      7.507
REMARK  Name = 
REMARK  5 active torsions:
REMARK  status: ('A' for Active; 'I' for Inactive)
REMARK    1  A    between atoms: C_1  and  O_2
REMARK    2  A    between atoms: O_2  and  C_3
REMARK    3  A    between atoms: C_7  and  C_8
REMARK    4  A    between atoms: C_11  and  C_12
REMARK    5  A    between atoms: C_12  and  N_13
REMARK                            x       y       z     vdW  Elec       q    Type
REMARK                         _______ _______ _______ _____ _____    ______ ____
ROOT
ATOM      1  N   UNL     1       6.021   5.770  17.297  0.00  0.00    +0.000 N 
ATOM      2  C   UNL     1       6.284   4.604  16.612  0.00  0.00    +0.000 C 
ATOM      3  O   UNL     1       7.305   4.296  16.023  0.00  0.00    +0.000 OA
ATOM      4  N   UNL     1       5.242   3.707  16.862  0.00  0.00    +0.000 N 
ATOM      5  C   UNL     1       4.609   4.071  18.115  0.00  0.00    +0.000 C 
ATOM      6  C   UNL     1       5.577   3.770  19.306  0.00  0.00    +0.000 C 
ATOM      7  C   UNL     1       5.273   2.690  20.303  0.00  0.00    +0.000 C 
ATOM      8  C   UNL     1       3.834   2.280  20.440  0.00  0.00    +0.000 C 
ATOM      9  C   UNL     1       2.864   2.762  19.406  0.00  0.00    +0.000 A 
ATOM     10  C   UNL     1       1.532   2.358  19.619  0.00  0.00    +0.000 A 
ATOM     11  C   UNL     1       0.510   2.791  18.790  0.00  0.00    +0.000 A 
ATOM     12  C   UNL     1       0.812   3.628  17.726  0.00  0.00    +0.000 A 
ATOM     13  C   UNL     1       2.139   4.017  17.483  0.00  0.00    +0.000 A 
ATOM     14  C   UNL     1       3.192   3.598  18.323  0.00  0.00    +0.000 A 
ATOM     15  C   UNL     1       4.794   5.581  17.912  0.00  0.00    +0.000 C 
ATOM     16  O   UNL     1       4.148   6.472  18.454  0.00  0.00    +0.000 OA
ATOM     17  H   UNL     1       5.381   2.743  16.585  0.00  0.00    +0.000 HD
ENDROOT
BRANCH   1  18
ATOM     18  C   UNL     1       7.016   6.263  18.227  0.00  0.00    +0.000 C 
BRANCH  18  22
ATOM     19  C   UNL     1       8.577   9.375  18.300  0.00  0.00    +0.000 A 
ATOM     20  N   UNL     1       7.684   9.616  17.326  0.00  0.00    +0.000 NA
ATOM     21  O   UNL     1       7.126   8.364  17.074  0.00  0.00    +0.000 OA
ATOM     22  C   UNL     1       7.742   7.494  17.923  0.00  0.00    +0.000 A 
ATOM     23  N   UNL     1       8.648   8.062  18.681  0.00  0.00    +0.000 NA
BRANCH  19  28
ATOM     24  C   UNL     1      11.052  12.153  18.741  0.00  0.00    +0.000 A 
ATOM     25  C   UNL     1      10.896  12.437  20.098  0.00  0.00    +0.000 A 
ATOM     26  C   UNL     1      10.023  11.678  20.882  0.00  0.00    +0.000 A 
ATOM     27  C   UNL     1       9.280  10.649  20.308  0.00  0.00    +0.000 A 
ATOM     28  C   UNL     1       9.397  10.383  18.942  0.00  0.00    +0.000 A 
ATOM     29  C   UNL     1      10.306  11.125  18.172  0.00  0.00    +0.000 A 
BRANCH  24  31
ATOM     30  C   UNL     1      11.373  14.077  17.397  0.00  0.00    +0.000 C 
ATOM     31  O   UNL     1      11.855  12.825  17.863  0.00  0.00    +0.000 OA
ENDBRANCH  24  31
ENDBRANCH  19  28
ENDBRANCH  18  22
ENDBRANCH   1  18
TORSDOF 4
ENDMDL
MODEL 5
REMARK VINA RESULT:      -9.1      6.792      8.619
REMARK  Name = 
REMARK  5 active torsions:
REMARK  status: ('A' for Active; 'I' for Inactive)
REMARK    1  A    between atoms: C_1  and  O_2
REMARK    2  A    between atoms: O_2  and  C_3
REMARK    3  A    between atoms: C_7  and  C_8
REMARK    4  A    between atoms: C_11  and  C_12
REMARK    5  A    between atoms: C_12  and  N_13
REMARK                            x       y       z     vdW  Elec       q    Type
REMARK                         _______ _______ _______ _____ _____    ______ ____
ROOT
ATOM      1  N   UNL     1       0.811  10.971  19.825  0.00  0.00    +0.000 N 
ATOM      2  C   UNL     1       0.891  12.259  19.342  0.00  0.00    +0.000 C 
ATOM      3  O   UNL     1       1.657  12.697  18.501  0.00  0.00    +0.000 OA
ATOM      4  N   UNL     1      -0.203  12.977  19.830  0.00  0.00    +0.000 N 
ATOM      5  C   UNL     1      -1.261  12.042  20.160  0.00  0.00    +0.000 C 
ATOM      6  C   UNL     1      -1.850  11.424  18.849  0.00  0.00    +0.000 C 
ATOM      7  C   UNL     1      -3.250  11.729  18.404  0.00  0.00    +0.000 C 
ATOM      8  C   UNL     1      -4.211  12.191  19.462  0.00  0.00    +0.000 C 
ATOM      9  C   UNL     1      -3.656  12.574  20.798  0.00  0.00    +0.000 A 
ATOM     10  C   UNL     1      -4.623  12.970  21.743  0.00  0.00    +0.000 A 
ATOM     11  C   UNL     1      -4.267  13.277  23.046  0.00  0.00    +0.000 A 
ATOM     12  C   UNL     1      -2.934  13.203  23.419  0.00  0.00    +0.000 A 
ATOM     13  C   UNL     1      -1.954  12.838  22.481  0.00  0.00    +0.000 A 
ATOM     14  C   UNL     1      -2.295  12.508  21.153  0.00  0.00    +0.000 A 
ATOM     15  C   UNL     1      -0.307  10.943  20.645  0.00  0.00    +0.000 C 
ATOM     16  O   UNL     1      -0.588  10.015  21.398  0.00  0.00    +0.000 OA
ATOM     17  H   UNL     1      -0.390  13.882  19.415  0.00  0.00    +0.000 HD
ENDROOT
BRANCH   1  18
ATOM     18  C   UNL     1       0.807   9.877  18.876  0.00  0.00    +0.000 C 
BRANCH  18  22
ATOM     19  C   UNL     1       2.737   6.997  18.545  0.00  0.00    +0.000 A 
ATOM     20  N   UNL     1       2.360   6.845  19.825  0.00  0.00    +0.000 NA
ATOM     21  O   UNL     1       1.735   8.053  20.129  0.00  0.00    +0.000 OA
ATOM     22  C   UNL     1       1.800   8.812  19.000  0.00  0.00    +0.000 A 
ATOM     23  N   UNL     1       2.418   8.217  18.008  0.00  0.00    +0.000 NA
BRANCH  19  28
ATOM     24  C   UNL     1       5.203   5.383  16.231  0.00  0.00    +0.000 A 
ATOM     25  C   UNL     1       4.809   4.048  16.310  0.00  0.00    +0.000 A 
ATOM     26  C   UNL     1       3.698   3.683  17.075  0.00  0.00    +0.000 A 
ATOM     27  C   UNL     1       2.990   4.649  17.787  0.00  0.00    +0.000 A 
ATOM     28  C   UNL     1       3.401   5.984  17.749  0.00  0.00    +0.000 A 
ATOM     29  C   UNL     1       4.494   6.344  16.947  0.00  0.00    +0.000 A 
BRANCH  24  31
ATOM     30  C   UNL     1       7.059   4.914  14.835  0.00  0.00    +0.000 C 
ATOM     31  O   UNL     1       6.276   5.869  15.537  0.00  0.00    +0.000 OA
ENDBRANCH  24  31
ENDBRANCH  19  28
ENDBRANCH  18  22
ENDBRANCH   1  18
TORSDOF 4
ENDMDL
MODEL 6
REMARK VINA RESULT:      -9.0      6.888      8.930
REMARK  Name = 
REMARK  5 active torsions:
REMARK  status: ('A' for Active; 'I' for Inactive)
REMARK    1  A    between atoms: C_1  and  O_2
REMARK    2  A    between atoms: O_2  and  C_3
REMARK    3  A    between atoms: C_7  and  C_8
REMARK    4  A    between atoms: C_11  and  C_12
REMARK    5  A    between atoms: C_12  and  N_13
REMARK                            x       y       z     vdW  Elec       q    Type
REMARK                         _______ _______ _______ _____ _____    ______ ____
ROOT
ATOM      1  N   UNL     1       0.558  11.121  19.239  0.00  0.00    +0.000 N 
ATOM      2  C   UNL     1       0.581  12.405  18.741  0.00  0.00    +0.000 C 
ATOM      3  O   UNL     1       1.437  12.924  18.044  0.00  0.00    +0.000 OA
ATOM      4  N   UNL     1      -0.660  12.994  18.996  0.00  0.00    +0.000 N 
ATOM      5  C   UNL     1      -1.648  11.943  19.150  0.00  0.00    +0.000 C 
ATOM      6  C   UNL     1      -1.905  11.250  17.772  0.00  0.00    +0.000 C 
ATOM      7  C   UNL     1      -3.222  11.386  17.065  0.00  0.00    +0.000 C 
ATOM      8  C   UNL     1      -4.411  11.740  17.912  0.00  0.00    +0.000 C 
ATOM      9  C   UNL     1      -4.164  12.196  19.317  0.00  0.00    +0.000 A 
ATOM     10  C   UNL     1      -5.330  12.482  20.053  0.00  0.00    +0.000 A 
ATOM     11  C   UNL     1      -5.263  12.839  21.390  0.00  0.00    +0.000 A 
ATOM     12  C   UNL     1      -4.024  12.926  22.006  0.00  0.00    +0.000 A 
ATOM     13  C   UNL     1      -2.850  12.671  21.278  0.00  0.00    +0.000 A 
ATOM     14  C   UNL     1      -2.896  12.293  19.920  0.00  0.00    +0.000 A 
ATOM     15  C   UNL     1      -0.682  10.968  19.837  0.00  0.00    +0.000 C 
ATOM     16  O   UNL     1      -0.992  10.020  20.552  0.00  0.00    +0.000 OA
ATOM     17  H   UNL     1      -0.867  13.868  18.526  0.00  0.00    +0.000 HD
ENDROOT
BRANCH   1  18
ATOM     18  C   UNL     1       0.859  10.027  18.338  0.00  0.00    +0.000 C 
BRANCH  18  22
ATOM     19  C   UNL     1       2.542   7.022  18.851  0.00  0.00    +0.000 A 
ATOM     20  N   UNL     1       2.140   7.250  20.112  0.00  0.00    +0.000 NA
ATOM     21  O   UNL     1       1.616   8.540  20.062  0.00  0.00    +0.000 OA
ATOM     22  C   UNL     1       1.757   8.959  18.774  0.00  0.00    +0.000 A 
ATOM     23  N   UNL     1       2.332   8.073  17.998  0.00  0.00    +0.000 NA
BRANCH  19  28
ATOM     24  C   UNL     1       5.079   4.347  18.179  0.00  0.00    +0.000 A 
ATOM     25  C   UNL     1       4.278   3.355  17.616  0.00  0.00    +0.000 A 
ATOM     26  C   UNL     1       2.916   3.583  17.401  0.00  0.00    +0.000 A 
ATOM     27  C   UNL     1       2.342   4.797  17.773  0.00  0.00    +0.000 A 
ATOM     28  C   UNL     1       3.126   5.783  18.376  0.00  0.00    +0.000 A 
ATOM     29  C   UNL     1       4.500   5.558  18.552  0.00  0.00    +0.000 A 
BRANCH  24  31
ATOM     30  C   UNL     1       7.146   5.463  18.487  0.00  0.00    +0.000 C 
ATOM     31  O   UNL     1       6.413   4.247  18.457  0.00  0.00    +0.000 OA
ENDBRANCH  24  31
ENDBRANCH  19  28
ENDBRANCH  18  22
ENDBRANCH   1  18
TORSDOF 4
ENDMDL
MODEL 7
REMARK VINA RESULT:      -9.0      1.633      2.670
REMARK  Name = 
REMARK  5 active torsions:
REMARK  status: ('A' for Active; 'I' for Inactive)
REMARK    1  A    between atoms: C_1  and  O_2
REMARK    2  A    between atoms: O_2  and  C_3
REMARK    3  A    between atoms: C_7  and  C_8
REMARK    4  A    between atoms: C_11  and  C_12
REMARK    5  A    between atoms: C_12  and  N_13
REMARK                            x       y       z     vdW  Elec       q    Type
REMARK                         _______ _______ _______ _____ _____    ______ ____
ROOT
ATOM      1  N   UNL     1       6.279   5.037  17.605  0.00  0.00    +0.000 N 
ATOM      2  C   UNL     1       6.749   5.420  18.842  0.00  0.00    +0.000 C 
ATOM      3  O   UNL     1       7.746   6.074  19.094  0.00  0.00    +0.000 OA
ATOM      4  N   UNL     1       5.777   5.105  19.795  0.00  0.00    +0.000 N 
ATOM      5  C   UNL     1       4.488   5.036  19.135  0.00  0.00    +0.000 C 
ATOM      6  C   UNL     1       4.042   6.468  18.692  0.00  0.00    +0.000 C 
ATOM      7  C   UNL     1       2.867   7.150  19.330  0.00  0.00    +0.000 C 
ATOM      8  C   UNL     1       1.849   6.267  19.994  0.00  0.00    +0.000 C 
ATOM      9  C   UNL     1       2.204   4.829  20.217  0.00  0.00    +0.000 A 
ATOM     10  C   UNL     1       1.189   4.061  20.820  0.00  0.00    +0.000 A 
ATOM     11  C   UNL     1       1.343   2.699  21.016  0.00  0.00    +0.000 A 
ATOM     12  C   UNL     1       2.522   2.087  20.621  0.00  0.00    +0.000 A 
ATOM     13  C   UNL     1       3.556   2.844  20.045  0.00  0.00    +0.000 A 
ATOM     14  C   UNL     1       3.415   4.229  19.822  0.00  0.00    +0.000 A 
ATOM     15  C   UNL     1       5.047   4.446  17.834  0.00  0.00    +0.000 C 
ATOM     16  O   UNL     1       4.416   3.816  16.991  0.00  0.00    +0.000 OA
ATOM     17  H   UNL     1       5.892   5.494  20.723  0.00  0.00    +0.000 HD
ENDROOT
BRANCH   1  18
ATOM     18  C   UNL     1       6.209   6.034  16.555  0.00  0.00    +0.000 C 
BRANCH  18  22
ATOM     19  C   UNL     1       6.312   4.374  13.496  0.00  0.00    +0.000 A 
ATOM     20  N   UNL     1       7.630   4.566  13.669  0.00  0.00    +0.000 NA
ATOM     21  O   UNL     1       7.696   5.404  14.781  0.00  0.00    +0.000 OA
ATOM     22  C   UNL     1       6.409   5.632  15.165  0.00  0.00    +0.000 A 
ATOM     23  N   UNL     1       5.526   5.037  14.400  0.00  0.00    +0.000 NA
BRANCH  19  28
ATOM     24  C   UNL     1       5.807   1.476  11.174  0.00  0.00    +0.000 A 
ATOM     25  C   UNL     1       4.566   1.790  10.621  0.00  0.00    +0.000 A 
ATOM     26  C   UNL     1       3.920   2.982  10.965  0.00  0.00    +0.000 A 
ATOM     27  C   UNL     1       4.501   3.854  11.884  0.00  0.00    +0.000 A 
ATOM     28  C   UNL     1       5.724   3.529  12.475  0.00  0.00    +0.000 A 
ATOM     29  C   UNL     1       6.382   2.350  12.094  0.00  0.00    +0.000 A 
BRANCH  24  31
ATOM     30  C   UNL     1       5.930  -0.885  11.323  0.00  0.00    +0.000 C 
ATOM     31  O   UNL     1       6.532   0.342  10.938  0.00  0.00    +0.000 OA
ENDBRANCH  24  31
ENDBRANCH  19  28
ENDBRANCH  18  22
ENDBRANCH   1  18
TORSDOF 4
ENDMDL
MODEL 8
REMARK VINA RESULT:      -8.9      6.205      8.158
REMARK  Name = 
REMARK  5 active torsions:
REMARK  status: ('A' for Active; 'I' for Inactive)
REMARK    1  A    between atoms: C_1  and  O_2
REMARK    2  A    between atoms: O_2  and  C_3
REMARK    3  A    between atoms: C_7  and  C_8
REMARK    4  A    between atoms: C_11  and  C_12
REMARK    5  A    between atoms: C_12  and  N_13
REMARK                            x       y       z     vdW  Elec       q    Type
REMARK                         _______ _______ _______ _____ _____    ______ ____
ROOT
ATOM      1  N   UNL     1       1.191  10.111  19.164  0.00  0.00    +0.000 N 
ATOM      2  C   UNL     1       1.431  11.346  18.602  0.00  0.00    +0.000 C 
ATOM      3  O   UNL     1       2.368  11.679  17.898  0.00  0.00    +0.000 OA
ATOM      4  N   UNL     1       0.300  12.143  18.801  0.00  0.00    +0.000 N 
ATOM      5  C   UNL     1      -0.848  11.278  18.989  0.00  0.00    +0.000 C 
ATOM      6  C   UNL     1      -1.200  10.563  17.643  0.00  0.00    +0.000 C 
ATOM      7  C   UNL     1      -2.468  10.875  16.904  0.00  0.00    +0.000 C 
ATOM      8  C   UNL     1      -3.593  11.464  17.707  0.00  0.00    +0.000 C 
ATOM      9  C   UNL     1      -3.291  11.948  19.092  0.00  0.00    +0.000 A 
ATOM     10  C   UNL     1      -4.402  12.460  19.789  0.00  0.00    +0.000 A 
ATOM     11  C   UNL     1      -4.293  12.872  21.107  0.00  0.00    +0.000 A 
ATOM     12  C   UNL     1      -3.064  12.788  21.742  0.00  0.00    +0.000 A 
ATOM     13  C   UNL     1      -1.939  12.306  21.052  0.00  0.00    +0.000 A 
ATOM     14  C   UNL     1      -2.031  11.868  19.714  0.00  0.00    +0.000 A 
ATOM     15  C   UNL     1      -0.064  10.196  19.744  0.00  0.00    +0.000 C 
ATOM     16  O   UNL     1      -0.535   9.351  20.500  0.00  0.00    +0.000 OA
ATOM     17  H   UNL     1       0.246  13.012  18.284  0.00  0.00    +0.000 HD
ENDROOT
BRANCH   1  18
ATOM     18  C   UNL     1       1.318   8.936  18.327  0.00  0.00    +0.000 C 
BRANCH  18  22
ATOM     19  C   UNL     1       3.747   6.447  18.162  0.00  0.00    +0.000 A 
ATOM     20  N   UNL     1       2.959   5.903  19.104  0.00  0.00    +0.000 NA
ATOM     21  O   UNL     1       2.047   6.915  19.395  0.00  0.00    +0.000 OA
ATOM     22  C   UNL     1       2.378   7.968  18.597  0.00  0.00    +0.000 A 
ATOM     23  N   UNL     1       3.421   7.737  17.837  0.00  0.00    +0.000 NA
BRANCH  19  28
ATOM     24  C   UNL     1       7.082   4.829  17.610  0.00  0.00    +0.000 A 
ATOM     25  C   UNL     1       6.924   4.326  16.320  0.00  0.00    +0.000 A 
ATOM     26  C   UNL     1       5.747   4.567  15.606  0.00  0.00    +0.000 A 
ATOM     27  C   UNL     1       4.709   5.291  16.190  0.00  0.00    +0.000 A 
ATOM     28  C   UNL     1       4.840   5.764  17.498  0.00  0.00    +0.000 A 
ATOM     29  C   UNL     1       6.040   5.549  18.191  0.00  0.00    +0.000 A 
BRANCH  24  31
ATOM     30  C   UNL     1       8.179   5.385  19.634  0.00  0.00    +0.000 C 
ATOM     31  O   UNL     1       8.169   4.651  18.419  0.00  0.00    +0.000 OA
ENDBRANCH  24  31
ENDBRANCH  19  28
ENDBRANCH  18  22
ENDBRANCH   1  18
TORSDOF 4
ENDMDL
MODEL 9
REMARK VINA RESULT:      -8.9      1.288      2.159
REMARK  Name = 
REMARK  5 active torsions:
REMARK  status: ('A' for Active; 'I' for Inactive)
REMARK    1  A    between atoms: C_1  and  O_2
REMARK    2  A    between atoms: O_2  and  C_3
REMARK    3  A    between atoms: C_7  and  C_8
REMARK    4  A    between atoms: C_11  and  C_12
REMARK    5  A    between atoms: C_12  and  N_13
REMARK                            x       y       z     vdW  Elec       q    Type
REMARK                         _______ _______ _______ _____ _____    ______ ____
ROOT
ATOM      1  N   UNL     1       6.314   4.788  17.639  0.00  0.00    +0.000 N 
ATOM      2  C   UNL     1       6.739   5.002  18.932  0.00  0.00    +0.000 C 
ATOM      3  O   UNL     1       7.782   5.515  19.302  0.00  0.00    +0.000 OA
ATOM      4  N   UNL     1       5.678   4.714  19.794  0.00  0.00    +0.000 N 
ATOM      5  C   UNL     1       4.435   4.851  19.059  0.00  0.00    +0.000 C 
ATOM      6  C   UNL     1       4.175   6.358  18.733  0.00  0.00    +0.000 C 
ATOM      7  C   UNL     1       3.040   7.108  19.366  0.00  0.00    +0.000 C 
ATOM      8  C   UNL     1       1.892   6.288  19.884  0.00  0.00    +0.000 C 
ATOM      9  C   UNL     1       2.076   4.805  19.986  0.00  0.00    +0.000 A 
ATOM     10  C   UNL     1       0.947   4.106  20.454  0.00  0.00    +0.000 A 
ATOM     11  C   UNL     1       0.941   2.723  20.526  0.00  0.00    +0.000 A 
ATOM     12  C   UNL     1       2.072   2.020  20.140  0.00  0.00    +0.000 A 
ATOM     13  C   UNL     1       3.216   2.704  19.698  0.00  0.00    +0.000 A 
ATOM     14  C   UNL     1       3.240   4.111  19.604  0.00  0.00    +0.000 A 
ATOM     15  C   UNL     1       5.013   4.321  17.740  0.00  0.00    +0.000 C 
ATOM     16  O   UNL     1       4.376   3.844  16.806  0.00  0.00    +0.000 OA
ATOM     17  H   UNL     1       5.772   5.002  20.760  0.00  0.00    +0.000 HD
ENDROOT
BRANCH   1  18
ATOM     18  C   UNL     1       6.421   5.876  16.689  0.00  0.00    +0.000 C 
BRANCH  18  22
ATOM     19  C   UNL     1       6.613   4.388  13.546  0.00  0.00    +0.000 A 
ATOM     20  N   UNL     1       7.856   4.893  13.611  0.00  0.00    +0.000 NA
ATOM     21  O   UNL     1       7.830   5.686  14.756  0.00  0.00    +0.000 OA
ATOM     22  C   UNL     1       6.571   5.579  15.266  0.00  0.00    +0.000 A 
ATOM     23  N   UNL     1       5.785   4.810  14.553  0.00  0.00    +0.000 NA
BRANCH  19  28
ATOM     24  C   UNL     1       4.379   2.739  11.029  0.00  0.00    +0.000 A 
ATOM     25  C   UNL     1       5.241   1.784  10.492  0.00  0.00    +0.000 A 
ATOM     26  C   UNL     1       6.537   1.639  10.996  0.00  0.00    +0.000 A 
ATOM     27  C   UNL     1       6.987   2.468  12.022  0.00  0.00    +0.000 A 
ATOM     28  C   UNL     1       6.146   3.457  12.538  0.00  0.00    +0.000 A 
ATOM     29  C   UNL     1       4.835   3.567  12.052  0.00  0.00    +0.000 A 
BRANCH  24  31
ATOM     30  C   UNL     1       2.940   4.028   9.659  0.00  0.00    +0.000 C 
ATOM     31  O   UNL     1       3.101   2.995  10.619  0.00  0.00    +0.000 OA
ENDBRANCH  24  31
ENDBRANCH  19  28
ENDBRANCH  18  22
ENDBRANCH   1  18
TORSDOF 4
ENDMDL
