MODEL 1
REMARK VINA RESULT:      -8.8      0.000      0.000
REMARK  Name = 
REMARK  9 active torsions:
REMARK  status: ('A' for Active; 'I' for Inactive)
REMARK    1  A    between atoms: C_1  and  C_2
REMARK    2  A    between atoms: C_2  and  C_3
REMARK    3  A    between atoms: C_2  and  C_4
REMARK    4  A    between atoms: C_4  and  C_5
REMARK    5  A    between atoms: C_8  and  C_9
REMARK    6  A    between atoms: C_9  and  N_10
REMARK    7  A    between atoms: C_14  and  C_15
REMARK    8  A    between atoms: C_14  and  C_22
REMARK    9  A    between atoms: C_15  and  C_16
REMARK                            x       y       z     vdW  Elec       q    Type
REMARK                         _______ _______ _______ _____ _____    ______ ____
ROOT
ATOM      1  N   UNL     1       5.018   6.664  17.970  0.00  0.00    +0.000 N 
ATOM      2  C   UNL     1       4.925   5.911  19.092  0.00  0.00    +0.000 C 
ATOM      3  O   UNL     1       5.840   5.419  19.731  0.00  0.00    +0.000 OA
ATOM      4  N   UNL     1       3.604   5.814  19.447  0.00  0.00    +0.000 N 
ATOM      5  C   UNL     1       2.713   6.564  18.577  0.00  0.00    +0.000 C 
ATOM      6  C   UNL     1       3.779   7.083  17.569  0.00  0.00    +0.000 C 
ATOM      7  O   UNL     1       3.554   7.766  16.575  0.00  0.00    +0.000 OA
ATOM      8  H   UNL     1       3.325   5.400  20.331  0.00  0.00    +0.000 HD
ENDROOT
BRANCH   5   9
ATOM      9  C   UNL     1       2.065   7.737  19.322  0.00  0.00    +0.000 A 
ATOM     10  C   UNL     1       1.708   8.918  18.641  0.00  0.00    +0.000 A 
ATOM     11  C   UNL     1       1.099   9.985  19.306  0.00  0.00    +0.000 A 
ATOM     12  C   UNL     1       0.828   9.896  20.667  0.00  0.00    +0.000 A 
ATOM     13  C   UNL     1       1.164   8.740  21.361  0.00  0.00    +0.000 A 
ATOM     14  C   UNL     1       1.763   7.670  20.693  0.00  0.00    +0.000 A 
ENDBRANCH   5   9
BRANCH   1  15
ATOM     15  C   UNL     1       6.258   6.918  17.272  0.00  0.00    +0.000 C 
BRANCH  15  19
ATOM     16  C   UNL     1       6.354   4.457  14.699  0.00  0.00    +0.000 A 
ATOM     17  N   UNL     1       7.581   4.972  14.543  0.00  0.00    +0.000 NA
ATOM     18  O   UNL     1       7.631   5.973  15.514  0.00  0.00    +0.000 OA
ATOM     19  C   UNL     1       6.424   5.954  16.154  0.00  0.00    +0.000 A 
ATOM     20  N   UNL     1       5.601   5.042  15.683  0.00  0.00    +0.000 NA
BRANCH  16  21
ATOM     21  C   UNL     1       5.830   3.356  13.848  0.00  0.00    +0.000 C 
BRANCH  21  23
ATOM     22  C   UNL     1       7.045   2.931  11.659  0.00  0.00    +0.000 C 
ATOM     23  C   UNL     1       5.899   3.679  12.344  0.00  0.00    +0.000 C 
ATOM     24  C   UNL     1       4.574   3.335  11.660  0.00  0.00    +0.000 C 
ENDBRANCH  21  23
ENDBRANCH  16  21
ENDBRANCH  15  19
ENDBRANCH   1  15
BRANCH   5  25
ATOM     25  C   UNL     1       1.753   5.624  17.789  0.00  0.00    +0.000 C 
BRANCH  25  26
ATOM     26  C   UNL     1       1.794   4.147  18.146  0.00  0.00    +0.000 A 
ATOM     27  C   UNL     1       2.597   3.253  17.418  0.00  0.00    +0.000 A 
ATOM     28  C   UNL     1       2.668   1.904  17.776  0.00  0.00    +0.000 A 
ATOM     29  C   UNL     1       1.945   1.430  18.867  0.00  0.00    +0.000 A 
ATOM     30  C   UNL     1       1.149   2.306  19.600  0.00  0.00    +0.000 A 
ATOM     31  C   UNL     1       1.082   3.655  19.248  0.00  0.00    +0.000 A 
ENDBRANCH  25  26
ENDBRANCH   5  25
TORSDOF 7
ENDMDL
MODEL 2
REMARK VINA RESULT:      -8.8      0.879      1.173
REMARK  Name = 
REMARK  9 active torsions:
REMARK  status: ('A' for Active; 'I' for Inactive)
REMARK    1  A    between atoms: C_1  and  C_2
REMARK    2  A    between atoms: C_2  and  C_3
REMARK    3  A    between atoms: C_2  and  C_4
REMARK    4  A    between atoms: C_4  and  C_5
REMARK    5  A    between atoms: C_8  and  C_9
REMARK    6  A    between atoms: C_9  and  N_10
REMARK    7  A    between atoms: C_14  and  C_15
REMARK    8  A    between atoms: C_14  and  C_22
REMARK    9  A    between atoms: C_15  and  C_16
REMARK                            x       y       z     vdW  Elec       q    Type
REMARK                         _______ _______ _______ _____ _____    ______ ____
ROOT
ATOM      1  N   UNL     1       5.305   6.290  17.763  0.00  0.00    +0.000 N 
ATOM      2  C   UNL     1       5.155   5.784  19.011  0.00  0.00    +0.000 C 
ATOM      3  O   UNL     1       6.034   5.403  19.766  0.00  0.00    +0.000 OA
ATOM      4  N   UNL     1       3.823   5.807  19.336  0.00  0.00    +0.000 N 
ATOM      5  C   UNL     1       2.984   6.393  18.303  0.00  0.00    +0.000 C 
ATOM      6  C   UNL     1       4.094   6.659  17.246  0.00  0.00    +0.000 C 
ATOM      7  O   UNL     1       3.921   7.133  16.128  0.00  0.00    +0.000 OA
ATOM      8  H   UNL     1       3.506   5.591  20.276  0.00  0.00    +0.000 HD
ENDROOT
BRANCH   5   9
ATOM      9  C   UNL     1       2.365   7.715  18.773  0.00  0.00    +0.000 A 
ATOM     10  C   UNL     1       2.240   8.809  17.894  0.00  0.00    +0.000 A 
ATOM     11  C   UNL     1       1.660  10.011  18.307  0.00  0.00    +0.000 A 
ATOM     12  C   UNL     1       1.185  10.146  19.607  0.00  0.00    +0.000 A 
ATOM     13  C   UNL     1       1.289   9.081  20.492  0.00  0.00    +0.000 A 
ATOM     14  C   UNL     1       1.860   7.877  20.076  0.00  0.00    +0.000 A 
ENDBRANCH   5   9
BRANCH   1  15
ATOM     15  C   UNL     1       6.572   6.354  17.069  0.00  0.00    +0.000 C 
BRANCH  15  19
ATOM     16  C   UNL     1       6.597   4.362  14.116  0.00  0.00    +0.000 A 
ATOM     17  N   UNL     1       6.332   3.404  15.014  0.00  0.00    +0.000 NA
ATOM     18  O   UNL     1       6.318   4.098  16.224  0.00  0.00    +0.000 OA
ATOM     19  C   UNL     1       6.578   5.405  15.925  0.00  0.00    +0.000 A 
ATOM     20  N   UNL     1       6.765   5.618  14.641  0.00  0.00    +0.000 NA
BRANCH  16  21
ATOM     21  C   UNL     1       6.737   4.086  12.662  0.00  0.00    +0.000 C 
BRANCH  21  23
ATOM     22  C   UNL     1       4.598   3.303  11.539  0.00  0.00    +0.000 C 
ATOM     23  C   UNL     1       5.908   2.872  12.202  0.00  0.00    +0.000 C 
ATOM     24  C   UNL     1       6.717   2.006  11.234  0.00  0.00    +0.000 C 
ENDBRANCH  21  23
ENDBRANCH  16  21
ENDBRANCH  15  19
ENDBRANCH   1  15
BRANCH   5  25
ATOM     25  C   UNL     1       2.007   5.345  17.692  0.00  0.00    +0.000 C 
BRANCH  25  26
ATOM     26  C   UNL     1       1.842   4.038  18.450  0.00  0.00    +0.000 A 
ATOM     27  C   UNL     1       2.424   2.851  17.973  0.00  0.00    +0.000 A 
ATOM     28  C   UNL     1       2.309   1.660  18.694  0.00  0.00    +0.000 A 
ATOM     29  C   UNL     1       1.619   1.637  19.903  0.00  0.00    +0.000 A 
ATOM     30  C   UNL     1       1.043   2.807  20.391  0.00  0.00    +0.000 A 
ATOM     31  C   UNL     1       1.162   3.999  19.674  0.00  0.00    +0.000 A 
ENDBRANCH  25  26
ENDBRANCH   5  25
TORSDOF 7
ENDMDL
MODEL 3
REMARK VINA RESULT:      -8.8      3.043      5.021
REMARK  Name = 
REMARK  9 active torsions:
REMARK  status: ('A' for Active; 'I' for Inactive)
REMARK    1  A    between atoms: C_1  and  C_2
REMARK    2  A    between atoms: C_2  and  C_3
REMARK    3  A    between atoms: C_2  and  C_4
REMARK    4  A    between atoms: C_4  and  C_5
REMARK    5  A    between atoms: C_8  and  C_9
REMARK    6  A    between atoms: C_9  and  N_10
REMARK    7  A    between atoms: C_14  and  C_15
REMARK    8  A    between atoms: C_14  and  C_22
REMARK    9  A    between atoms: C_15  and  C_16
REMARK                            x       y       z     vdW  Elec       q    Type
REMARK                         _______ _______ _______ _____ _____    ______ ____
ROOT
ATOM      1  N   UNL     1       6.334   6.251  17.825  0.00  0.00    +0.000 N 
ATOM      2  C   UNL     1       6.076   5.622  18.997  0.00  0.00    +0.000 C 
ATOM      3  O   UNL     1       6.876   5.326  19.870  0.00  0.00    +0.000 OA
ATOM      4  N   UNL     1       4.727   5.397  19.087  0.00  0.00    +0.000 N 
ATOM      5  C   UNL     1       3.975   5.925  17.959  0.00  0.00    +0.000 C 
ATOM      6  C   UNL     1       5.176   6.460  17.128  0.00  0.00    +0.000 C 
ATOM      7  O   UNL     1       5.105   6.994  16.026  0.00  0.00    +0.000 OA
ATOM      8  H   UNL     1       4.305   5.051  19.943  0.00  0.00    +0.000 HD
ENDROOT
BRANCH   5   9
ATOM      9  C   UNL     1       3.064   7.080  18.390  0.00  0.00    +0.000 A 
ATOM     10  C   UNL     1       2.768   8.136  17.505  0.00  0.00    +0.000 A 
ATOM     11  C   UNL     1       1.923   9.184  17.881  0.00  0.00    +0.000 A 
ATOM     12  C   UNL     1       1.351   9.199  19.149  0.00  0.00    +0.000 A 
ATOM     13  C   UNL     1       1.622   8.166  20.038  0.00  0.00    +0.000 A 
ATOM     14  C   UNL     1       2.457   7.115  19.658  0.00  0.00    +0.000 A 
ENDBRANCH   5   9
BRANCH   1  15
ATOM     15  C   UNL     1       7.664   6.583  17.366  0.00  0.00    +0.000 C 
BRANCH  15  19
ATOM     16  C   UNL     1       8.720   9.672  18.790  0.00  0.00    +0.000 A 
ATOM     17  N   UNL     1       7.974  10.149  17.785  0.00  0.00    +0.000 NA
ATOM     18  O   UNL     1       7.522   8.992  17.149  0.00  0.00    +0.000 OA
ATOM     19  C   UNL     1       8.048   7.938  17.841  0.00  0.00    +0.000 A 
ATOM     20  N   UNL     1       8.799   8.305  18.857  0.00  0.00    +0.000 NA
BRANCH  16  21
ATOM     21  C   UNL     1       9.442  10.555  19.745  0.00  0.00    +0.000 C 
BRANCH  21  23
ATOM     22  C   UNL     1       9.686  13.015  19.163  0.00  0.00    +0.000 C 
ATOM     23  C   UNL     1      10.303  11.619  19.040  0.00  0.00    +0.000 C 
ATOM     24  C   UNL     1      11.721  11.629  19.614  0.00  0.00    +0.000 C 
ENDBRANCH  21  23
ENDBRANCH  16  21
ENDBRANCH  15  19
ENDBRANCH   1  15
BRANCH   5  25
ATOM     25  C   UNL     1       3.310   4.787  17.128  0.00  0.00    +0.000 C 
BRANCH  25  26
ATOM     26  C   UNL     1       2.613   3.685  17.910  0.00  0.00    +0.000 A 
ATOM     27  C   UNL     1       3.268   2.474  18.188  0.00  0.00    +0.000 A 
ATOM     28  C   UNL     1       2.641   1.480  18.944  0.00  0.00    +0.000 A 
ATOM     29  C   UNL     1       1.356   1.684  19.440  0.00  0.00    +0.000 A 
ATOM     30  C   UNL     1       0.697   2.881  19.177  0.00  0.00    +0.000 A 
ATOM     31  C   UNL     1       1.324   3.877  18.426  0.00  0.00    +0.000 A 
ENDBRANCH  25  26
ENDBRANCH   5  25
TORSDOF 7
ENDMDL
MODEL 4
REMARK VINA RESULT:      -8.7      3.050      5.118
REMARK  Name = 
REMARK  9 active torsions:
REMARK  status: ('A' for Active; 'I' for Inactive)
REMARK    1  A    between atoms: C_1  and  C_2
REMARK    2  A    between atoms: C_2  and  C_3
REMARK    3  A    between atoms: C_2  and  C_4
REMARK    4  A    between atoms: C_4  and  C_5
REMARK    5  A    between atoms: C_8  and  C_9
REMARK    6  A    between atoms: C_9  and  N_10
REMARK    7  A    between atoms: C_14  and  C_15
REMARK    8  A    between atoms: C_14  and  C_22
REMARK    9  A    between atoms: C_15  and  C_16
REMARK                            x       y       z     vdW  Elec       q    Type
REMARK                         _______ _______ _______ _____ _____    ______ ____
ROOT
ATOM      1  N   UNL     1       6.390   6.264  17.861  0.00  0.00    +0.000 N 
ATOM      2  C   UNL     1       6.121   5.656  19.042  0.00  0.00    +0.000 C 
ATOM      3  O   UNL     1       6.909   5.396  19.936  0.00  0.00    +0.000 OA
ATOM      4  N   UNL     1       4.775   5.408  19.111  0.00  0.00    +0.000 N 
ATOM      5  C   UNL     1       4.035   5.895  17.957  0.00  0.00    +0.000 C 
ATOM      6  C   UNL     1       5.242   6.434  17.137  0.00  0.00    +0.000 C 
ATOM      7  O   UNL     1       5.182   6.942  16.022  0.00  0.00    +0.000 OA
ATOM      8  H   UNL     1       4.343   5.073  19.966  0.00  0.00    +0.000 HD
ENDROOT
BRANCH   5   9
ATOM      9  C   UNL     1       3.095   7.042  18.344  0.00  0.00    +0.000 A 
ATOM     10  C   UNL     1       2.492   7.086  19.617  0.00  0.00    +0.000 A 
ATOM     11  C   UNL     1       1.649   8.137  19.987  0.00  0.00    +0.000 A 
ATOM     12  C   UNL     1       1.392   9.173  19.095  0.00  0.00    +0.000 A 
ATOM     13  C   UNL     1       1.979   9.158  17.835  0.00  0.00    +0.000 A 
ATOM     14  C   UNL     1       2.830   8.112  17.471  0.00  0.00    +0.000 A 
ENDBRANCH   5   9
BRANCH   1  15
ATOM     15  C   UNL     1       7.722   6.610  17.420  0.00  0.00    +0.000 C 
BRANCH  15  19
ATOM     16  C   UNL     1       8.693   9.778  18.727  0.00  0.00    +0.000 A 
ATOM     17  N   UNL     1       7.874  10.195  17.753  0.00  0.00    +0.000 NA
ATOM     18  O   UNL     1       7.449   9.003  17.163  0.00  0.00    +0.000 OA
ATOM     19  C   UNL     1       8.061   7.992  17.848  0.00  0.00    +0.000 A 
ATOM     20  N   UNL     1       8.843   8.418  18.816  0.00  0.00    +0.000 NA
BRANCH  16  21
ATOM     21  C   UNL     1       9.417  10.716  19.626  0.00  0.00    +0.000 C 
BRANCH  21  23
ATOM     22  C   UNL     1      10.243  12.567  18.096  0.00  0.00    +0.000 C 
ATOM     23  C   UNL     1      10.642  11.363  18.953  0.00  0.00    +0.000 C 
ATOM     24  C   UNL     1      11.667  11.793  20.004  0.00  0.00    +0.000 C 
ENDBRANCH  21  23
ENDBRANCH  16  21
ENDBRANCH  15  19
ENDBRANCH   1  15
BRANCH   5  25
ATOM     25  C   UNL     1       3.408   4.726  17.140  0.00  0.00    +0.000 C 
BRANCH  25  26
ATOM     26  C   UNL     1       2.654   3.667  17.927  0.00  0.00    +0.000 A 
ATOM     27  C   UNL     1       1.314   3.866  18.302  0.00  0.00    +0.000 A 
ATOM     28  C   UNL     1       0.609   2.872  18.986  0.00  0.00    +0.000 A 
ATOM     29  C   UNL     1       1.228   1.665  19.300  0.00  0.00    +0.000 A 
ATOM     30  C   UNL     1       2.553   1.452  18.930  0.00  0.00    +0.000 A 
ATOM     31  C   UNL     1       3.257   2.442  18.241  0.00  0.00    +0.000 A 
ENDBRANCH  25  26
ENDBRANCH   5  25
TORSDOF 7
ENDMDL
MODEL 5
REMARK VINA RESULT:      -8.7      2.931      4.865
REMARK  Name = 
REMARK  9 active torsions:
REMARK  status: ('A' for Active; 'I' for Inactive)
REMARK    1  A    between atoms: C_1  and  C_2
REMARK    2  A    between atoms: C_2  and  C_3
REMARK    3  A    between atoms: C_2  and  C_4
REMARK    4  A    between atoms: C_4  and  C_5
REMARK    5  A    between atoms: C_8  and  C_9
REMARK    6  A    between atoms: C_9  and  N_10
REMARK    7  A    between atoms: C_14  and  C_15
REMARK    8  A    between atoms: C_14  and  C_22
REMARK    9  A    between atoms: C_15  and  C_16
REMARK                            x       y       z     vdW  Elec       q    Type
REMARK                         _______ _______ _______ _____ _____    ______ ____
ROOT
ATOM      1  N   UNL     1       6.140   6.193  17.806  0.00  0.00    +0.000 N 
ATOM      2  C   UNL     1       5.891   5.613  19.004  0.00  0.00    +0.000 C 
ATOM      3  O   UNL     1       6.701   5.326  19.870  0.00  0.00    +0.000 OA
ATOM      4  N   UNL     1       4.538   5.432  19.131  0.00  0.00    +0.000 N 
ATOM      5  C   UNL     1       3.776   5.941  18.002  0.00  0.00    +0.000 C 
ATOM      6  C   UNL     1       4.973   6.410  17.126  0.00  0.00    +0.000 C 
ATOM      7  O   UNL     1       4.892   6.906  16.007  0.00  0.00    +0.000 OA
ATOM      8  H   UNL     1       4.126   5.129  20.008  0.00  0.00    +0.000 HD
ENDROOT
BRANCH   5   9
ATOM      9  C   UNL     1       2.909   7.137  18.410  0.00  0.00    +0.000 A 
ATOM     10  C   UNL     1       2.368   7.230  19.708  0.00  0.00    +0.000 A 
ATOM     11  C   UNL     1       1.593   8.325  20.096  0.00  0.00    +0.000 A 
ATOM     12  C   UNL     1       1.343   9.357  19.198  0.00  0.00    +0.000 A 
ATOM     13  C   UNL     1       1.870   9.294  17.914  0.00  0.00    +0.000 A 
ATOM     14  C   UNL     1       2.653   8.204  17.531  0.00  0.00    +0.000 A 
ENDBRANCH   5   9
BRANCH   1  15
ATOM     15  C   UNL     1       7.468   6.468  17.306  0.00  0.00    +0.000 C 
BRANCH  15  19
ATOM     16  C   UNL     1       8.460   9.792  18.115  0.00  0.00    +0.000 A 
ATOM     17  N   UNL     1       9.013   9.149  19.152  0.00  0.00    +0.000 NA
ATOM     18  O   UNL     1       8.658   7.818  18.927  0.00  0.00    +0.000 OA
ATOM     19  C   UNL     1       7.926   7.802  17.774  0.00  0.00    +0.000 A 
ATOM     20  N   UNL     1       7.770   8.994  17.240  0.00  0.00    +0.000 NA
BRANCH  16  21
ATOM     21  C   UNL     1       8.554  11.265  17.940  0.00  0.00    +0.000 C 
BRANCH  21  23
ATOM     22  C   UNL     1      11.003  11.895  17.700  0.00  0.00    +0.000 C 
ATOM     23  C   UNL     1       9.788  11.873  18.632  0.00  0.00    +0.000 C 
ATOM     24  C   UNL     1       9.486  13.291  19.121  0.00  0.00    +0.000 C 
ENDBRANCH  21  23
ENDBRANCH  16  21
ENDBRANCH  15  19
ENDBRANCH   1  15
BRANCH   5  25
ATOM     25  C   UNL     1       3.060   4.794  17.227  0.00  0.00    +0.000 C 
BRANCH  25  26
ATOM     26  C   UNL     1       2.448   3.681  18.062  0.00  0.00    +0.000 A 
ATOM     27  C   UNL     1       3.090   2.437  18.186  0.00  0.00    +0.000 A 
ATOM     28  C   UNL     1       2.548   1.431  18.990  0.00  0.00    +0.000 A 
ATOM     29  C   UNL     1       1.364   1.653  19.686  0.00  0.00    +0.000 A 
ATOM     30  C   UNL     1       0.719   2.883  19.577  0.00  0.00    +0.000 A 
ATOM     31  C   UNL     1       1.263   3.891  18.779  0.00  0.00    +0.000 A 
ENDBRANCH  25  26
ENDBRANCH   5  25
TORSDOF 7
ENDMDL
MODEL 6
REMARK VINA RESULT:      -8.7      0.092      1.246
REMARK  Name = 
REMARK  9 active torsions:
REMARK  status: ('A' for Active; 'I' for Inactive)
REMARK    1  A    between atoms: C_1  and  C_2
REMARK    2  A    between atoms: C_2  and  C_3
REMARK    3  A    between atoms: C_2  and  C_4
REMARK    4  A    between atoms: C_4  and  C_5
REMARK    5  A    between atoms: C_8  and  C_9
REMARK    6  A    between atoms: C_9  and  N_10
REMARK    7  A    between atoms: C_14  and  C_15
REMARK    8  A    between atoms: C_14  and  C_22
REMARK    9  A    between atoms: C_15  and  C_16
REMARK                            x       y       z     vdW  Elec       q    Type
REMARK                         _______ _______ _______ _____ _____    ______ ____
ROOT
ATOM      1  N   UNL     1       4.986   6.759  17.938  0.00  0.00    +0.000 N 
ATOM      2  C   UNL     1       4.939   5.998  19.058  0.00  0.00    +0.000 C 
ATOM      3  O   UNL     1       5.882   5.529  19.675  0.00  0.00    +0.000 OA
ATOM      4  N   UNL     1       3.630   5.863  19.442  0.00  0.00    +0.000 N 
ATOM      5  C   UNL     1       2.700   6.592  18.595  0.00  0.00    +0.000 C 
ATOM      6  C   UNL     1       3.728   7.144  17.567  0.00  0.00    +0.000 C 
ATOM      7  O   UNL     1       3.463   7.826  16.582  0.00  0.00    +0.000 OA
ATOM      8  H   UNL     1       3.382   5.437  20.329  0.00  0.00    +0.000 HD
ENDROOT
BRANCH   5   9
ATOM      9  C   UNL     1       2.036   7.743  19.360  0.00  0.00    +0.000 A 
ATOM     10  C   UNL     1       1.793   7.646  20.744  0.00  0.00    +0.000 A 
ATOM     11  C   UNL     1       1.206   8.696  21.455  0.00  0.00    +0.000 A 
ATOM     12  C   UNL     1       0.853   9.871  20.799  0.00  0.00    +0.000 A 
ATOM     13  C   UNL     1       1.088   9.995  19.436  0.00  0.00    +0.000 A 
ATOM     14  C   UNL     1       1.684   8.949  18.729  0.00  0.00    +0.000 A 
ENDBRANCH   5   9
BRANCH   1  15
ATOM     15  C   UNL     1       6.204   7.050  17.214  0.00  0.00    +0.000 C 
BRANCH  15  19
ATOM     16  C   UNL     1       6.401   4.500  14.736  0.00  0.00    +0.000 A 
ATOM     17  N   UNL     1       7.644   4.989  14.634  0.00  0.00    +0.000 NA
ATOM     18  O   UNL     1       7.657   6.022  15.572  0.00  0.00    +0.000 OA
ATOM     19  C   UNL     1       6.415   6.045  16.141  0.00  0.00    +0.000 A 
ATOM     20  N   UNL     1       5.603   5.132  15.654  0.00  0.00    +0.000 NA
BRANCH  16  21
ATOM     21  C   UNL     1       5.906   3.379  13.893  0.00  0.00    +0.000 C 
BRANCH  21  23
ATOM     22  C   UNL     1       7.046   2.962  11.663  0.00  0.00    +0.000 C 
ATOM     23  C   UNL     1       5.924   3.709  12.389  0.00  0.00    +0.000 C 
ATOM     24  C   UNL     1       4.577   3.370  11.748  0.00  0.00    +0.000 C 
ENDBRANCH  21  23
ENDBRANCH  16  21
ENDBRANCH  15  19
ENDBRANCH   1  15
BRANCH   5  25
ATOM     25  C   UNL     1       1.748   5.629  17.824  0.00  0.00    +0.000 C 
BRANCH  25  26
ATOM     26  C   UNL     1       1.803   4.159  18.207  0.00  0.00    +0.000 A 
ATOM     27  C   UNL     1       1.046   3.667  19.283  0.00  0.00    +0.000 A 
ATOM     28  C   UNL     1       1.063   2.307  19.605  0.00  0.00    +0.000 A 
ATOM     29  C   UNL     1       1.829   1.419  18.854  0.00  0.00    +0.000 A 
ATOM     30  C   UNL     1       2.579   1.892  17.781  0.00  0.00    +0.000 A 
ATOM     31  C   UNL     1       2.558   3.249  17.455  0.00  0.00    +0.000 A 
ENDBRANCH  25  26
ENDBRANCH   5  25
TORSDOF 7
ENDMDL
MODEL 7
REMARK VINA RESULT:      -8.6      3.040      4.914
REMARK  Name = 
REMARK  9 active torsions:
REMARK  status: ('A' for Active; 'I' for Inactive)
REMARK    1  A    between atoms: C_1  and  C_2
REMARK    2  A    between atoms: C_2  and  C_3
REMARK    3  A    between atoms: C_2  and  C_4
REMARK    4  A    between atoms: C_4  and  C_5
REMARK    5  A    between atoms: C_8  and  C_9
REMARK    6  A    between atoms: C_9  and  N_10
REMARK    7  A    between atoms: C_14  and  C_15
REMARK    8  A    between atoms: C_14  and  C_22
REMARK    9  A    between atoms: C_15  and  C_16
REMARK                            x       y       z     vdW  Elec       q    Type
REMARK                         _______ _______ _______ _____ _____    ______ ____
ROOT
ATOM      1  N   UNL     1       6.440   6.307  17.875  0.00  0.00    +0.000 N 
ATOM      2  C   UNL     1       6.174   5.662  19.036  0.00  0.00    +0.000 C 
ATOM      3  O   UNL     1       6.963   5.373  19.921  0.00  0.00    +0.000 OA
ATOM      4  N   UNL     1       4.827   5.412  19.100  0.00  0.00    +0.000 N 
ATOM      5  C   UNL     1       4.086   5.936  17.964  0.00  0.00    +0.000 C 
ATOM      6  C   UNL     1       5.291   6.501  17.159  0.00  0.00    +0.000 C 
ATOM      7  O   UNL     1       5.230   7.044  16.061  0.00  0.00    +0.000 OA
ATOM      8  H   UNL     1       4.397   5.050  19.945  0.00  0.00    +0.000 HD
ENDROOT
BRANCH   5   9
ATOM      9  C   UNL     1       3.147   7.071  18.389  0.00  0.00    +0.000 A 
ATOM     10  C   UNL     1       2.816   8.110  17.496  0.00  0.00    +0.000 A 
ATOM     11  C   UNL     1       1.946   9.138  17.867  0.00  0.00    +0.000 A 
ATOM     12  C   UNL     1       1.381   9.150  19.138  0.00  0.00    +0.000 A 
ATOM     13  C   UNL     1       1.685   8.134  20.035  0.00  0.00    +0.000 A 
ATOM     14  C   UNL     1       2.546   7.102  19.660  0.00  0.00    +0.000 A 
ENDBRANCH   5   9
BRANCH   1  15
ATOM     15  C   UNL     1       7.772   6.667  17.443  0.00  0.00    +0.000 C 
BRANCH  15  19
ATOM     16  C   UNL     1       8.435  10.099  18.127  0.00  0.00    +0.000 A 
ATOM     17  N   UNL     1       8.986   9.557  19.221  0.00  0.00    +0.000 NA
ATOM     18  O   UNL     1       8.757   8.191  19.048  0.00  0.00    +0.000 OA
ATOM     19  C   UNL     1       8.090   8.056  17.864  0.00  0.00    +0.000 A 
ATOM     20  N   UNL     1       7.861   9.204  17.262  0.00  0.00    +0.000 NA
BRANCH  16  21
ATOM     21  C   UNL     1       8.412  11.565  17.881  0.00  0.00    +0.000 C 
BRANCH  21  23
ATOM     22  C   UNL     1      10.941  11.667  17.669  0.00  0.00    +0.000 C 
ATOM     23  C   UNL     1       9.703  12.269  18.339  0.00  0.00    +0.000 C 
ATOM     24  C   UNL     1       9.632  13.768  18.042  0.00  0.00    +0.000 C 
ENDBRANCH  21  23
ENDBRANCH  16  21
ENDBRANCH  15  19
ENDBRANCH   1  15
BRANCH   5  25
ATOM     25  C   UNL     1       3.456   4.794  17.111  0.00  0.00    +0.000 C 
BRANCH  25  26
ATOM     26  C   UNL     1       2.722   3.699  17.867  0.00  0.00    +0.000 A 
ATOM     27  C   UNL     1       1.368   3.846  18.213  0.00  0.00    +0.000 A 
ATOM     28  C   UNL     1       0.683   2.820  18.869  0.00  0.00    +0.000 A 
ATOM     29  C   UNL     1       1.336   1.630  19.181  0.00  0.00    +0.000 A 
ATOM     30  C   UNL     1       2.676   1.468  18.838  0.00  0.00    +0.000 A 
ATOM     31  C   UNL     1       3.360   2.491  18.179  0.00  0.00    +0.000 A 
ENDBRANCH  25  26
ENDBRANCH   5  25
TORSDOF 7
ENDMDL
MODEL 8
REMARK VINA RESULT:      -8.5      0.840      1.654
REMARK  Name = 
REMARK  9 active torsions:
REMARK  status: ('A' for Active; 'I' for Inactive)
REMARK    1  A    between atoms: C_1  and  C_2
REMARK    2  A    between atoms: C_2  and  C_3
REMARK    3  A    between atoms: C_2  and  C_4
REMARK    4  A    between atoms: C_4  and  C_5
REMARK    5  A    between atoms: C_8  and  C_9
REMARK    6  A    between atoms: C_9  and  N_10
REMARK    7  A    between atoms: C_14  and  C_15
REMARK    8  A    between atoms: C_14  and  C_22
REMARK    9  A    between atoms: C_15  and  C_16
REMARK                            x       y       z     vdW  Elec       q    Type
REMARK                         _______ _______ _______ _____ _____    ______ ____
ROOT
ATOM      1  N   UNL     1       5.191   6.403  17.750  0.00  0.00    +0.000 N 
ATOM      2  C   UNL     1       5.070   5.885  18.995  0.00  0.00    +0.000 C 
ATOM      3  O   UNL     1       5.968   5.507  19.730  0.00  0.00    +0.000 OA
ATOM      4  N   UNL     1       3.745   5.888  19.345  0.00  0.00    +0.000 N 
ATOM      5  C   UNL     1       2.879   6.473  18.333  0.00  0.00    +0.000 C 
ATOM      6  C   UNL     1       3.966   6.763  17.258  0.00  0.00    +0.000 C 
ATOM      7  O   UNL     1       3.766   7.244  16.148  0.00  0.00    +0.000 OA
ATOM      8  H   UNL     1       3.447   5.660  20.289  0.00  0.00    +0.000 HD
ENDROOT
BRANCH   5   9
ATOM      9  C   UNL     1       2.253   7.782  18.828  0.00  0.00    +0.000 A 
ATOM     10  C   UNL     1       1.837   7.926  20.166  0.00  0.00    +0.000 A 
ATOM     11  C   UNL     1       1.283   9.121  20.632  0.00  0.00    +0.000 A 
ATOM     12  C   UNL     1       1.135  10.203  19.772  0.00  0.00    +0.000 A 
ATOM     13  C   UNL     1       1.543  10.091  18.448  0.00  0.00    +0.000 A 
ATOM     14  C   UNL     1       2.106   8.900  17.987  0.00  0.00    +0.000 A 
ENDBRANCH   5   9
BRANCH   1  15
ATOM     15  C   UNL     1       6.443   6.490  17.032  0.00  0.00    +0.000 C 
BRANCH  15  19
ATOM     16  C   UNL     1       6.506   4.370  14.170  0.00  0.00    +0.000 A 
ATOM     17  N   UNL     1       6.313   3.441  15.116  0.00  0.00    +0.000 NA
ATOM     18  O   UNL     1       6.291   4.187  16.295  0.00  0.00    +0.000 OA
ATOM     19  C   UNL     1       6.473   5.492  15.932  0.00  0.00    +0.000 A 
ATOM     20  N   UNL     1       6.618   5.655  14.634  0.00  0.00    +0.000 NA
BRANCH  16  21
ATOM     21  C   UNL     1       6.626   4.036  12.726  0.00  0.00    +0.000 C 
BRANCH  21  23
ATOM     22  C   UNL     1       4.435   3.481  11.569  0.00  0.00    +0.000 C 
ATOM     23  C   UNL     1       5.662   2.917  12.290  0.00  0.00    +0.000 C 
ATOM     24  C   UNL     1       6.378   1.914  11.383  0.00  0.00    +0.000 C 
ENDBRANCH  21  23
ENDBRANCH  16  21
ENDBRANCH  15  19
ENDBRANCH   1  15
BRANCH   5  25
ATOM     25  C   UNL     1       1.904   5.419  17.731  0.00  0.00    +0.000 C 
BRANCH  25  26
ATOM     26  C   UNL     1       1.786   4.094  18.467  0.00  0.00    +0.000 A 
ATOM     27  C   UNL     1       1.170   4.023  19.728  0.00  0.00    +0.000 A 
ATOM     28  C   UNL     1       1.023   2.797  20.383  0.00  0.00    +0.000 A 
ATOM     29  C   UNL     1       1.481   1.626  19.786  0.00  0.00    +0.000 A 
ATOM     30  C   UNL     1       2.089   1.680  18.534  0.00  0.00    +0.000 A 
ATOM     31  C   UNL     1       2.231   2.903  17.877  0.00  0.00    +0.000 A 
ENDBRANCH  25  26
ENDBRANCH   5  25
TORSDOF 7
ENDMDL
MODEL 9
REMARK VINA RESULT:      -8.5      1.319      4.346
REMARK  Name = 
REMARK  9 active torsions:
REMARK  status: ('A' for Active; 'I' for Inactive)
REMARK    1  A    between atoms: C_1  and  C_2
REMARK    2  A    between atoms: C_2  and  C_3
REMARK    3  A    between atoms: C_2  and  C_4
REMARK    4  A    between atoms: C_4  and  C_5
REMARK    5  A    between atoms: C_8  and  C_9
REMARK    6  A    between atoms: C_9  and  N_10
REMARK    7  A    between atoms: C_14  and  C_15
REMARK    8  A    between atoms: C_14  and  C_22
REMARK    9  A    between atoms: C_15  and  C_16
REMARK                            x       y       z     vdW  Elec       q    Type
REMARK                         _______ _______ _______ _____ _____    ______ ____
ROOT
ATOM      1  N   UNL     1       5.625   5.028  17.305  0.00  0.00    +0.000 N 
ATOM      2  C   UNL     1       4.764   5.710  16.513  0.00  0.00    +0.000 C 
ATOM      3  O   UNL     1       4.933   6.046  15.352  0.00  0.00    +0.000 OA
ATOM      4  N   UNL     1       3.609   5.939  17.215  0.00  0.00    +0.000 N 
ATOM      5  C   UNL     1       3.618   5.360  18.549  0.00  0.00    +0.000 C 
ATOM      6  C   UNL     1       5.063   4.787  18.529  0.00  0.00    +0.000 C 
ATOM      7  O   UNL     1       5.617   4.203  19.454  0.00  0.00    +0.000 OA
ATOM      8  H   UNL     1       2.785   6.324  16.765  0.00  0.00    +0.000 HD
ENDROOT
BRANCH   5   9
ATOM      9  C   UNL     1       2.594   4.226  18.670  0.00  0.00    +0.000 A 
ATOM     10  C   UNL     1       2.627   3.124  17.791  0.00  0.00    +0.000 A 
ATOM     11  C   UNL     1       1.711   2.075  17.904  0.00  0.00    +0.000 A 
ATOM     12  C   UNL     1       0.742   2.100  18.901  0.00  0.00    +0.000 A 
ATOM     13  C   UNL     1       0.690   3.171  19.785  0.00  0.00    +0.000 A 
ATOM     14  C   UNL     1       1.613   4.213  19.677  0.00  0.00    +0.000 A 
ENDBRANCH   5   9
BRANCH   1  15
ATOM     15  C   UNL     1       6.971   4.675  16.913  0.00  0.00    +0.000 C 
BRANCH  15  19
ATOM     16  C   UNL     1       7.128   4.392  13.366  0.00  0.00    +0.000 A 
ATOM     17  N   UNL     1       7.850   5.510  13.519  0.00  0.00    +0.000 NA
ATOM     18  O   UNL     1       7.831   5.714  14.900  0.00  0.00    +0.000 OA
ATOM     19  C   UNL     1       7.095   4.692  15.432  0.00  0.00    +0.000 A 
ATOM     20  N   UNL     1       6.635   3.856  14.527  0.00  0.00    +0.000 NA
BRANCH  16  21
ATOM     21  C   UNL     1       6.848   3.792  12.034  0.00  0.00    +0.000 C 
BRANCH  21  23
ATOM     22  C   UNL     1       4.400   3.312  11.559  0.00  0.00    +0.000 C 
ATOM     23  C   UNL     1       5.723   2.742  12.077  0.00  0.00    +0.000 C 
ATOM     24  C   UNL     1       6.109   1.507  11.260  0.00  0.00    +0.000 C 
ENDBRANCH  21  23
ENDBRANCH  16  21
ENDBRANCH  15  19
ENDBRANCH   1  15
BRANCH   5  25
ATOM     25  C   UNL     1       3.572   6.459  19.653  0.00  0.00    +0.000 C 
BRANCH  25  26
ATOM     26  C   UNL     1       2.579   7.591  19.453  0.00  0.00    +0.000 A 
ATOM     27  C   UNL     1       2.450   8.224  18.205  0.00  0.00    +0.000 A 
ATOM     28  C   UNL     1       1.504   9.235  18.012  0.00  0.00    +0.000 A 
ATOM     29  C   UNL     1       0.671   9.623  19.056  0.00  0.00    +0.000 A 
ATOM     30  C   UNL     1       0.784   9.001  20.297  0.00  0.00    +0.000 A 
ATOM     31  C   UNL     1       1.723   7.987  20.490  0.00  0.00    +0.000 A 
ENDBRANCH  25  26
ENDBRANCH   5  25
TORSDOF 7
ENDMDL
