MODEL 1
REMARK VINA RESULT:      -8.3      0.000      0.000
REMARK  Name = 
REMARK  4 active torsions:
REMARK  status: ('A' for Active; 'I' for Inactive)
REMARK    1  A    between atoms: C_1  and  C_2
REMARK    2  A    between atoms: C_2  and  N_3
REMARK    3  A    between atoms: C_2  and  C_17
REMARK    4  A    between atoms: C_4  and  C_6
REMARK                            x       y       z     vdW  Elec       q    Type
REMARK                         _______ _______ _______ _____ _____    ______ ____
ROOT
ATOM      1  N   UNL     1       5.310   5.674  18.418  0.00  0.00    +0.000 N 
ATOM      2  C   UNL     1       4.195   5.025  18.905  0.00  0.00    +0.000 C 
ATOM      3  O   UNL     1       4.115   3.799  18.866  0.00  0.00    +0.000 OA
ATOM      4  H   UNL     1       5.464   6.662  18.556  0.00  0.00    +0.000 HD
ENDROOT
BRANCH   2   5
ATOM      5  C   UNL     1       3.088   5.862  19.504  0.00  0.00    +0.000 A 
ATOM      6  C   UNL     1       2.528   5.472  20.666  0.00  0.00    +0.000 A 
ATOM      7  N   UNL     1       1.574   6.210  21.317  0.00  0.00    +0.000 N 
ATOM      8  C   UNL     1       1.115   7.434  20.899  0.00  0.00    +0.000 A 
ATOM      9  O   UNL     1       0.274   8.057  21.537  0.00  0.00    +0.000 OA
ATOM     10  C   UNL     1       1.702   7.953  19.640  0.00  0.00    +0.000 A 
ATOM     11  C   UNL     1       1.289   9.214  19.179  0.00  0.00    +0.000 A 
ATOM     12  C   UNL     1       1.815   9.731  18.000  0.00  0.00    +0.000 A 
ATOM     13  C   UNL     1       2.739   8.980  17.280  0.00  0.00    +0.000 A 
ATOM     14  C   UNL     1       3.145   7.719  17.741  0.00  0.00    +0.000 A 
ATOM     15  C   UNL     1       2.652   7.180  18.942  0.00  0.00    +0.000 A 
ATOM     16  H   UNL     1       1.181   5.882  22.191  0.00  0.00    +0.000 HD
ENDBRANCH   2   5
BRANCH   1  18
ATOM     17  C   UNL     1       7.764   5.544  18.357  0.00  0.00    +0.000 C 
ATOM     18  C   UNL     1       6.443   4.904  17.936  0.00  0.00    +0.000 C 
BRANCH  18  19
ATOM     19  C   UNL     1       6.394   4.734  16.452  0.00  0.00    +0.000 A 
ATOM     20  C   UNL     1       5.585   3.932  15.668  0.00  0.00    +0.000 A 
ATOM     21  C   UNL     1       6.059   4.041  14.342  0.00  0.00    +0.000 A 
ATOM     22  C   UNL     1       5.720   3.451  13.112  0.00  0.00    +0.000 A 
ATOM     23  C   UNL     1       6.454   3.801  11.973  0.00  0.00    +0.000 A 
ATOM     24  C   UNL     1       7.496   4.728  12.049  0.00  0.00    +0.000 A 
ATOM     25  C   UNL     1       7.850   5.329  13.267  0.00  0.00    +0.000 A 
ATOM     26  C   UNL     1       7.113   4.948  14.388  0.00  0.00    +0.000 A 
ATOM     27  O   UNL     1       7.318   5.376  15.672  0.00  0.00    +0.000 OA
ENDBRANCH  18  19
ENDBRANCH   1  18
TORSDOF 3
ENDMDL
MODEL 2
REMARK VINA RESULT:      -8.2      3.205      8.170
REMARK  Name = 
REMARK  4 active torsions:
REMARK  status: ('A' for Active; 'I' for Inactive)
REMARK    1  A    between atoms: C_1  and  C_2
REMARK    2  A    between atoms: C_2  and  N_3
REMARK    3  A    between atoms: C_2  and  C_17
REMARK    4  A    between atoms: C_4  and  C_6
REMARK                            x       y       z     vdW  Elec       q    Type
REMARK                         _______ _______ _______ _____ _____    ______ ____
ROOT
ATOM      1  N   UNL     1       1.308   8.684  19.660  0.00  0.00    +0.000 N 
ATOM      2  C   UNL     1       2.231   8.210  18.751  0.00  0.00    +0.000 C 
ATOM      3  O   UNL     1       2.634   8.925  17.835  0.00  0.00    +0.000 OA
ATOM      4  H   UNL     1       1.059   8.173  20.494  0.00  0.00    +0.000 HD
ENDROOT
BRANCH   2   5
ATOM      5  C   UNL     1       2.744   6.799  18.925  0.00  0.00    +0.000 A 
ATOM      6  C   UNL     1       2.242   6.037  19.915  0.00  0.00    +0.000 A 
ATOM      7  N   UNL     1       2.593   4.725  20.096  0.00  0.00    +0.000 N 
ATOM      8  C   UNL     1       3.447   4.026  19.279  0.00  0.00    +0.000 A 
ATOM      9  O   UNL     1       3.707   2.845  19.480  0.00  0.00    +0.000 OA
ATOM     10  C   UNL     1       4.024   4.784  18.142  0.00  0.00    +0.000 A 
ATOM     11  C   UNL     1       4.884   4.112  17.258  0.00  0.00    +0.000 A 
ATOM     12  C   UNL     1       5.447   4.792  16.183  0.00  0.00    +0.000 A 
ATOM     13  C   UNL     1       5.162   6.142  16.007  0.00  0.00    +0.000 A 
ATOM     14  C   UNL     1       4.308   6.811  16.895  0.00  0.00    +0.000 A 
ATOM     15  C   UNL     1       3.701   6.146  17.975  0.00  0.00    +0.000 A 
ATOM     16  H   UNL     1       2.190   4.186  20.852  0.00  0.00    +0.000 HD
ENDBRANCH   2   5
BRANCH   1  18
ATOM     17  C   UNL     1       0.718  10.663  20.993  0.00  0.00    +0.000 C 
ATOM     18  C   UNL     1       0.873  10.068  19.596  0.00  0.00    +0.000 C 
BRANCH  18  19
ATOM     19  C   UNL     1      -0.401  10.203  18.826  0.00  0.00    +0.000 A 
ATOM     20  C   UNL     1      -0.735   9.756  17.561  0.00  0.00    +0.000 A 
ATOM     21  C   UNL     1      -2.009  10.285  17.261  0.00  0.00    +0.000 A 
ATOM     22  C   UNL     1      -2.862  10.255  16.143  0.00  0.00    +0.000 A 
ATOM     23  C   UNL     1      -4.082  10.938  16.209  0.00  0.00    +0.000 A 
ATOM     24  C   UNL     1      -4.455  11.626  17.365  0.00  0.00    +0.000 A 
ATOM     25  C   UNL     1      -3.619  11.669  18.492  0.00  0.00    +0.000 A 
ATOM     26  C   UNL     1      -2.402  10.994  18.391  0.00  0.00    +0.000 A 
ATOM     27  O   UNL     1      -1.426  10.943  19.350  0.00  0.00    +0.000 OA
ENDBRANCH  18  19
ENDBRANCH   1  18
TORSDOF 3
ENDMDL
MODEL 3
REMARK VINA RESULT:      -8.0      1.937      3.024
REMARK  Name = 
REMARK  4 active torsions:
REMARK  status: ('A' for Active; 'I' for Inactive)
REMARK    1  A    between atoms: C_1  and  C_2
REMARK    2  A    between atoms: C_2  and  N_3
REMARK    3  A    between atoms: C_2  and  C_17
REMARK    4  A    between atoms: C_4  and  C_6
REMARK                            x       y       z     vdW  Elec       q    Type
REMARK                         _______ _______ _______ _____ _____    ______ ____
ROOT
ATOM      1  N   UNL     1       4.119   6.451  17.979  0.00  0.00    +0.000 N 
ATOM      2  C   UNL     1       2.812   6.606  18.392  0.00  0.00    +0.000 C 
ATOM      3  O   UNL     1       2.108   5.625  18.629  0.00  0.00    +0.000 OA
ATOM      4  H   UNL     1       4.758   7.229  17.906  0.00  0.00    +0.000 HD
ENDROOT
BRANCH   2   5
ATOM      5  C   UNL     1       2.279   8.010  18.563  0.00  0.00    +0.000 A 
ATOM      6  C   UNL     1       2.381   8.879  17.539  0.00  0.00    +0.000 A 
ATOM      7  N   UNL     1       1.858  10.144  17.581  0.00  0.00    +0.000 N 
ATOM      8  C   UNL     1       1.136  10.656  18.631  0.00  0.00    +0.000 A 
ATOM      9  O   UNL     1       0.674  11.790  18.601  0.00  0.00    +0.000 OA
ATOM     10  C   UNL     1       0.949   9.752  19.793  0.00  0.00    +0.000 A 
ATOM     11  C   UNL     1       0.197  10.213  20.885  0.00  0.00    +0.000 A 
ATOM     12  C   UNL     1       0.005   9.395  21.993  0.00  0.00    +0.000 A 
ATOM     13  C   UNL     1       0.577   8.127  22.010  0.00  0.00    +0.000 A 
ATOM     14  C   UNL     1       1.333   7.672  20.920  0.00  0.00    +0.000 A 
ATOM     15  C   UNL     1       1.523   8.464  19.775  0.00  0.00    +0.000 A 
ATOM     16  H   UNL     1       1.955  10.765  16.787  0.00  0.00    +0.000 HD
ENDBRANCH   2   5
BRANCH   1  18
ATOM     17  C   UNL     1       5.638   4.870  19.090  0.00  0.00    +0.000 C 
ATOM     18  C   UNL     1       4.704   5.124  17.909  0.00  0.00    +0.000 C 
BRANCH  18  19
ATOM     19  C   UNL     1       5.426   4.915  16.617  0.00  0.00    +0.000 A 
ATOM     20  C   UNL     1       6.579   5.502  16.130  0.00  0.00    +0.000 A 
ATOM     21  C   UNL     1       6.736   5.058  14.798  0.00  0.00    +0.000 A 
ATOM     22  C   UNL     1       7.647   5.323  13.761  0.00  0.00    +0.000 A 
ATOM     23  C   UNL     1       7.464   4.689  12.526  0.00  0.00    +0.000 A 
ATOM     24  C   UNL     1       6.405   3.800  12.328  0.00  0.00    +0.000 A 
ATOM     25  C   UNL     1       5.485   3.521  13.350  0.00  0.00    +0.000 A 
ATOM     26  C   UNL     1       5.682   4.180  14.564  0.00  0.00    +0.000 A 
ATOM     27  O   UNL     1       4.883   4.087  15.672  0.00  0.00    +0.000 OA
ENDBRANCH  18  19
ENDBRANCH   1  18
TORSDOF 3
ENDMDL
MODEL 4
REMARK VINA RESULT:      -8.0      3.265      8.069
REMARK  Name = 
REMARK  4 active torsions:
REMARK  status: ('A' for Active; 'I' for Inactive)
REMARK    1  A    between atoms: C_1  and  C_2
REMARK    2  A    between atoms: C_2  and  N_3
REMARK    3  A    between atoms: C_2  and  C_17
REMARK    4  A    between atoms: C_4  and  C_6
REMARK                            x       y       z     vdW  Elec       q    Type
REMARK                         _______ _______ _______ _____ _____    ______ ____
ROOT
ATOM      1  N   UNL     1       1.312   8.937  19.512  0.00  0.00    +0.000 N 
ATOM      2  C   UNL     1       2.201   8.420  18.593  0.00  0.00    +0.000 C 
ATOM      3  O   UNL     1       2.661   9.127  17.698  0.00  0.00    +0.000 OA
ATOM      4  H   UNL     1       1.021   8.423  20.331  0.00  0.00    +0.000 HD
ENDROOT
BRANCH   2   5
ATOM      5  C   UNL     1       2.605   6.970  18.728  0.00  0.00    +0.000 A 
ATOM      6  C   UNL     1       1.997   6.204  19.655  0.00  0.00    +0.000 A 
ATOM      7  N   UNL     1       2.247   4.865  19.795  0.00  0.00    +0.000 N 
ATOM      8  C   UNL     1       3.094   4.141  18.992  0.00  0.00    +0.000 A 
ATOM      9  O   UNL     1       3.260   2.937  19.152  0.00  0.00    +0.000 OA
ATOM     10  C   UNL     1       3.784   4.902  17.922  0.00  0.00    +0.000 A 
ATOM     11  C   UNL     1       4.642   4.208  17.054  0.00  0.00    +0.000 A 
ATOM     12  C   UNL     1       5.309   4.891  16.042  0.00  0.00    +0.000 A 
ATOM     13  C   UNL     1       5.128   6.263  15.912  0.00  0.00    +0.000 A 
ATOM     14  C   UNL     1       4.274   6.954  16.785  0.00  0.00    +0.000 A 
ATOM     15  C   UNL     1       3.565   6.290  17.801  0.00  0.00    +0.000 A 
ATOM     16  H   UNL     1       1.766   4.325  20.504  0.00  0.00    +0.000 HD
ENDBRANCH   2   5
BRANCH   1  18
ATOM     17  C   UNL     1       0.937  10.933  20.895  0.00  0.00    +0.000 C 
ATOM     18  C   UNL     1       0.983  10.351  19.484  0.00  0.00    +0.000 C 
BRANCH  18  19
ATOM     19  C   UNL     1      -0.310  10.596  18.775  0.00  0.00    +0.000 A 
ATOM     20  C   UNL     1      -1.429  11.305  19.171  0.00  0.00    +0.000 A 
ATOM     21  C   UNL     1      -2.421  11.090  18.189  0.00  0.00    +0.000 A 
ATOM     22  C   UNL     1      -3.765  11.471  18.031  0.00  0.00    +0.000 A 
ATOM     23  C   UNL     1      -4.459  11.034  16.897  0.00  0.00    +0.000 A 
ATOM     24  C   UNL     1      -3.830  10.245  15.932  0.00  0.00    +0.000 A 
ATOM     25  C   UNL     1      -2.489   9.853  16.070  0.00  0.00    +0.000 A 
ATOM     26  C   UNL     1      -1.828  10.289  17.218  0.00  0.00    +0.000 A 
ATOM     27  O   UNL     1      -0.539   9.989  17.570  0.00  0.00    +0.000 OA
ENDBRANCH  18  19
ENDBRANCH   1  18
TORSDOF 3
ENDMDL
MODEL 5
REMARK VINA RESULT:      -8.0      4.491      6.688
REMARK  Name = 
REMARK  4 active torsions:
REMARK  status: ('A' for Active; 'I' for Inactive)
REMARK    1  A    between atoms: C_1  and  C_2
REMARK    2  A    between atoms: C_2  and  N_3
REMARK    3  A    between atoms: C_2  and  C_17
REMARK    4  A    between atoms: C_4  and  C_6
REMARK                            x       y       z     vdW  Elec       q    Type
REMARK                         _______ _______ _______ _____ _____    ______ ____
ROOT
ATOM      1  N   UNL     1       1.190   8.813  19.243  0.00  0.00    +0.000 N 
ATOM      2  C   UNL     1       1.036  10.157  18.975  0.00  0.00    +0.000 C 
ATOM      3  O   UNL     1       1.954  10.807  18.479  0.00  0.00    +0.000 OA
ATOM      4  H   UNL     1       0.418   8.226  19.524  0.00  0.00    +0.000 HD
ENDROOT
BRANCH   2   5
ATOM      5  C   UNL     1      -0.295  10.800  19.290  0.00  0.00    +0.000 A 
ATOM      6  C   UNL     1      -0.403  11.581  20.382  0.00  0.00    +0.000 A 
ATOM      7  N   UNL     1      -1.549  12.262  20.700  0.00  0.00    +0.000 N 
ATOM      8  C   UNL     1      -2.689  12.272  19.935  0.00  0.00    +0.000 A 
ATOM      9  O   UNL     1      -3.677  12.919  20.261  0.00  0.00    +0.000 OA
ATOM     10  C   UNL     1      -2.645  11.460  18.694  0.00  0.00    +0.000 A 
ATOM     11  C   UNL     1      -3.774  11.453  17.859  0.00  0.00    +0.000 A 
ATOM     12  C   UNL     1      -3.771  10.700  16.690  0.00  0.00    +0.000 A 
ATOM     13  C   UNL     1      -2.647   9.945  16.370  0.00  0.00    +0.000 A 
ATOM     14  C   UNL     1      -1.524   9.949  17.209  0.00  0.00    +0.000 A 
ATOM     15  C   UNL     1      -1.486  10.721  18.383  0.00  0.00    +0.000 A 
ATOM     16  H   UNL     1      -1.587  12.841  21.530  0.00  0.00    +0.000 HD
ENDBRANCH   2   5
BRANCH   1  18
ATOM     17  C   UNL     1       2.782   8.448  17.407  0.00  0.00    +0.000 C 
ATOM     18  C   UNL     1       2.413   8.132  18.854  0.00  0.00    +0.000 C 
BRANCH  18  19
ATOM     19  C   UNL     1       2.301   6.655  19.055  0.00  0.00    +0.000 A 
ATOM     20  C   UNL     1       2.234   5.628  18.132  0.00  0.00    +0.000 A 
ATOM     21  C   UNL     1       1.983   4.441  18.855  0.00  0.00    +0.000 A 
ATOM     22  C   UNL     1       1.754   3.097  18.513  0.00  0.00    +0.000 A 
ATOM     23  C   UNL     1       1.512   2.174  19.537  0.00  0.00    +0.000 A 
ATOM     24  C   UNL     1       1.509   2.575  20.875  0.00  0.00    +0.000 A 
ATOM     25  C   UNL     1       1.735   3.911  21.238  0.00  0.00    +0.000 A 
ATOM     26  C   UNL     1       1.956   4.811  20.195  0.00  0.00    +0.000 A 
ATOM     27  O   UNL     1       2.154   6.160  20.322  0.00  0.00    +0.000 OA
ENDBRANCH  18  19
ENDBRANCH   1  18
TORSDOF 3
ENDMDL
MODEL 6
REMARK VINA RESULT:      -8.0      3.271      8.360
REMARK  Name = 
REMARK  4 active torsions:
REMARK  status: ('A' for Active; 'I' for Inactive)
REMARK    1  A    between atoms: C_1  and  C_2
REMARK    2  A    between atoms: C_2  and  N_3
REMARK    3  A    between atoms: C_2  and  C_17
REMARK    4  A    between atoms: C_4  and  C_6
REMARK                            x       y       z     vdW  Elec       q    Type
REMARK                         _______ _______ _______ _____ _____    ______ ____
ROOT
ATOM      1  N   UNL     1       1.773   9.013  17.941  0.00  0.00    +0.000 N 
ATOM      2  C   UNL     1       2.259   7.945  18.667  0.00  0.00    +0.000 C 
ATOM      3  O   UNL     1       1.965   7.806  19.853  0.00  0.00    +0.000 OA
ATOM      4  H   UNL     1       1.886   9.082  16.940  0.00  0.00    +0.000 HD
ENDROOT
BRANCH   2   5
ATOM      5  C   UNL     1       3.144   6.945  17.960  0.00  0.00    +0.000 A 
ATOM      6  C   UNL     1       4.330   7.353  17.466  0.00  0.00    +0.000 A 
ATOM      7  N   UNL     1       5.226   6.499  16.880  0.00  0.00    +0.000 N 
ATOM      8  C   UNL     1       5.053   5.142  16.768  0.00  0.00    +0.000 A 
ATOM      9  O   UNL     1       5.902   4.425  16.251  0.00  0.00    +0.000 OA
ATOM     10  C   UNL     1       3.784   4.602  17.315  0.00  0.00    +0.000 A 
ATOM     11  C   UNL     1       3.564   3.216  17.252  0.00  0.00    +0.000 A 
ATOM     12  C   UNL     1       2.383   2.675  17.751  0.00  0.00    +0.000 A 
ATOM     13  C   UNL     1       1.424   3.522  18.295  0.00  0.00    +0.000 A 
ATOM     14  C   UNL     1       1.644   4.906  18.351  0.00  0.00    +0.000 A 
ATOM     15  C   UNL     1       2.837   5.481  17.880  0.00  0.00    +0.000 A 
ATOM     16  H   UNL     1       6.108   6.847  16.523  0.00  0.00    +0.000 HD
ENDBRANCH   2   5
BRANCH   1  18
ATOM     17  C   UNL     1      -0.566   9.767  17.959  0.00  0.00    +0.000 C 
ATOM     18  C   UNL     1       0.831   9.934  18.552  0.00  0.00    +0.000 C 
BRANCH  18  19
ATOM     19  C   UNL     1       1.290  11.350  18.417  0.00  0.00    +0.000 A 
ATOM     20  C   UNL     1       2.520  11.862  18.047  0.00  0.00    +0.000 A 
ATOM     21  C   UNL     1       2.457  13.260  18.232  0.00  0.00    +0.000 A 
ATOM     22  C   UNL     1       3.365  14.325  18.098  0.00  0.00    +0.000 A 
ATOM     23  C   UNL     1       2.933  15.621  18.403  0.00  0.00    +0.000 A 
ATOM     24  C   UNL     1       1.621  15.858  18.820  0.00  0.00    +0.000 A 
ATOM     25  C   UNL     1       0.699  14.810  18.960  0.00  0.00    +0.000 A 
ATOM     26  C   UNL     1       1.162  13.528  18.666  0.00  0.00    +0.000 A 
ATOM     27  O   UNL     1       0.446  12.366  18.776  0.00  0.00    +0.000 OA
ENDBRANCH  18  19
ENDBRANCH   1  18
TORSDOF 3
ENDMDL
MODEL 7
REMARK VINA RESULT:      -7.9      2.461      4.533
REMARK  Name = 
REMARK  4 active torsions:
REMARK  status: ('A' for Active; 'I' for Inactive)
REMARK    1  A    between atoms: C_1  and  C_2
REMARK    2  A    between atoms: C_2  and  N_3
REMARK    3  A    between atoms: C_2  and  C_17
REMARK    4  A    between atoms: C_4  and  C_6
REMARK                            x       y       z     vdW  Elec       q    Type
REMARK                         _______ _______ _______ _____ _____    ______ ____
ROOT
ATOM      1  N   UNL     1       2.205   6.829  19.959  0.00  0.00    +0.000 N 
ATOM      2  C   UNL     1       1.855   7.643  18.901  0.00  0.00    +0.000 C 
ATOM      3  O   UNL     1       1.749   7.184  17.765  0.00  0.00    +0.000 OA
ATOM      4  H   UNL     1       2.170   7.144  20.917  0.00  0.00    +0.000 HD
ENDROOT
BRANCH   2   5
ATOM      5  C   UNL     1       1.588   9.103  19.182  0.00  0.00    +0.000 A 
ATOM      6  C   UNL     1       1.911  10.020  18.249  0.00  0.00    +0.000 A 
ATOM      7  N   UNL     1       1.634  11.354  18.389  0.00  0.00    +0.000 N 
ATOM      8  C   UNL     1       0.964  11.905  19.453  0.00  0.00    +0.000 A 
ATOM      9  O   UNL     1       0.727  13.106  19.511  0.00  0.00    +0.000 OA
ATOM     10  C   UNL     1       0.544  10.959  20.515  0.00  0.00    +0.000 A 
ATOM     11  C   UNL     1      -0.168  11.464  21.616  0.00  0.00    +0.000 A 
ATOM     12  C   UNL     1      -0.575  10.607  22.634  0.00  0.00    +0.000 A 
ATOM     13  C   UNL     1      -0.254   9.256  22.554  0.00  0.00    +0.000 A 
ATOM     14  C   UNL     1       0.462   8.757  21.457  0.00  0.00    +0.000 A 
ATOM     15  C   UNL     1       0.864   9.591  20.399  0.00  0.00    +0.000 A 
ATOM     16  H   UNL     1       1.892  12.010  17.661  0.00  0.00    +0.000 HD
ENDBRANCH   2   5
BRANCH   1  18
ATOM     17  C   UNL     1       2.309   4.643  21.077  0.00  0.00    +0.000 C 
ATOM     18  C   UNL     1       2.362   5.400  19.752  0.00  0.00    +0.000 C 
BRANCH  18  19
ATOM     19  C   UNL     1       3.630   5.091  19.024  0.00  0.00    +0.000 A 
ATOM     20  C   UNL     1       4.947   5.297  19.391  0.00  0.00    +0.000 A 
ATOM     21  C   UNL     1       5.742   4.965  18.272  0.00  0.00    +0.000 A 
ATOM     22  C   UNL     1       7.116   5.009  17.979  0.00  0.00    +0.000 A 
ATOM     23  C   UNL     1       7.547   4.606  16.710  0.00  0.00    +0.000 A 
ATOM     24  C   UNL     1       6.634   4.156  15.754  0.00  0.00    +0.000 A 
ATOM     25  C   UNL     1       5.259   4.104  16.026  0.00  0.00    +0.000 A 
ATOM     26  C   UNL     1       4.857   4.529  17.292  0.00  0.00    +0.000 A 
ATOM     27  O   UNL     1       3.568   4.600  17.748  0.00  0.00    +0.000 OA
ENDBRANCH  18  19
ENDBRANCH   1  18
TORSDOF 3
ENDMDL
MODEL 8
REMARK VINA RESULT:      -7.9      4.317      6.830
REMARK  Name = 
REMARK  4 active torsions:
REMARK  status: ('A' for Active; 'I' for Inactive)
REMARK    1  A    between atoms: C_1  and  C_2
REMARK    2  A    between atoms: C_2  and  N_3
REMARK    3  A    between atoms: C_2  and  C_17
REMARK    4  A    between atoms: C_4  and  C_6
REMARK                            x       y       z     vdW  Elec       q    Type
REMARK                         _______ _______ _______ _____ _____    ______ ____
ROOT
ATOM      1  N   UNL     1       0.843   8.998  19.324  0.00  0.00    +0.000 N 
ATOM      2  C   UNL     1       0.682  10.362  19.197  0.00  0.00    +0.000 C 
ATOM      3  O   UNL     1       1.640  11.085  18.932  0.00  0.00    +0.000 OA
ATOM      4  H   UNL     1       0.060   8.366  19.408  0.00  0.00    +0.000 HD
ENDROOT
BRANCH   2   5
ATOM      5  C   UNL     1      -0.706  10.936  19.372  0.00  0.00    +0.000 A 
ATOM      6  C   UNL     1      -0.968  11.699  20.450  0.00  0.00    +0.000 A 
ATOM      7  N   UNL     1      -2.172  12.320  20.648  0.00  0.00    +0.000 N 
ATOM      8  C   UNL     1      -3.224  12.283  19.766  0.00  0.00    +0.000 A 
ATOM      9  O   UNL     1      -4.272  12.878  19.988  0.00  0.00    +0.000 OA
ATOM     10  C   UNL     1      -3.009  11.487  18.533  0.00  0.00    +0.000 A 
ATOM     11  C   UNL     1      -4.042  11.434  17.582  0.00  0.00    +0.000 A 
ATOM     12  C   UNL     1      -3.877  10.694  16.416  0.00  0.00    +0.000 A 
ATOM     13  C   UNL     1      -2.690   9.998  16.213  0.00  0.00    +0.000 A 
ATOM     14  C   UNL     1      -1.663  10.048  17.167  0.00  0.00    +0.000 A 
ATOM     15  C   UNL     1      -1.788  10.808  18.343  0.00  0.00    +0.000 A 
ATOM     16  H   UNL     1      -2.327  12.888  21.472  0.00  0.00    +0.000 HD
ENDBRANCH   2   5
BRANCH   1  18
ATOM     17  C   UNL     1       2.502   8.511  17.578  0.00  0.00    +0.000 C 
ATOM     18  C   UNL     1       2.136   8.393  19.055  0.00  0.00    +0.000 C 
BRANCH  18  19
ATOM     19  C   UNL     1       2.170   6.964  19.491  0.00  0.00    +0.000 A 
ATOM     20  C   UNL     1       1.707   6.369  20.650  0.00  0.00    +0.000 A 
ATOM     21  C   UNL     1       2.129   5.022  20.618  0.00  0.00    +0.000 A 
ATOM     22  C   UNL     1       2.037   3.929  21.497  0.00  0.00    +0.000 A 
ATOM     23  C   UNL     1       2.615   2.711  21.119  0.00  0.00    +0.000 A 
ATOM     24  C   UNL     1       3.261   2.577  19.889  0.00  0.00    +0.000 A 
ATOM     25  C   UNL     1       3.364   3.656  18.997  0.00  0.00    +0.000 A 
ATOM     26  C   UNL     1       2.794   4.861  19.407  0.00  0.00    +0.000 A 
ATOM     27  O   UNL     1       2.817   6.041  18.714  0.00  0.00    +0.000 OA
ENDBRANCH  18  19
ENDBRANCH   1  18
TORSDOF 3
ENDMDL
MODEL 9
REMARK VINA RESULT:      -7.9      3.319      8.298
REMARK  Name = 
REMARK  4 active torsions:
REMARK  status: ('A' for Active; 'I' for Inactive)
REMARK    1  A    between atoms: C_1  and  C_2
REMARK    2  A    between atoms: C_2  and  N_3
REMARK    3  A    between atoms: C_2  and  C_17
REMARK    4  A    between atoms: C_4  and  C_6
REMARK                            x       y       z     vdW  Elec       q    Type
REMARK                         _______ _______ _______ _____ _____    ______ ____
ROOT
ATOM      1  N   UNL     1       1.615   8.716  18.626  0.00  0.00    +0.000 N 
ATOM      2  C   UNL     1       2.234   7.629  19.206  0.00  0.00    +0.000 C 
ATOM      3  O   UNL     1       2.225   7.478  20.427  0.00  0.00    +0.000 OA
ATOM      4  H   UNL     1       1.490   8.798  17.628  0.00  0.00    +0.000 HD
ENDROOT
BRANCH   2   5
ATOM      5  C   UNL     1       2.906   6.623  18.300  0.00  0.00    +0.000 A 
ATOM      6  C   UNL     1       3.947   7.018  17.541  0.00  0.00    +0.000 A 
ATOM      7  N   UNL     1       4.660   6.156  16.751  0.00  0.00    +0.000 N 
ATOM      8  C   UNL     1       4.440   4.803  16.673  0.00  0.00    +0.000 A 
ATOM      9  O   UNL     1       5.128   4.079  15.963  0.00  0.00    +0.000 OA
ATOM     10  C   UNL     1       3.329   4.277  17.504  0.00  0.00    +0.000 A 
ATOM     11  C   UNL     1       3.074   2.896  17.484  0.00  0.00    +0.000 A 
ATOM     12  C   UNL     1       2.038   2.369  18.247  0.00  0.00    +0.000 A 
ATOM     13  C   UNL     1       1.252   3.224  19.011  0.00  0.00    +0.000 A 
ATOM     14  C   UNL     1       1.505   4.604  19.024  0.00  0.00    +0.000 A 
ATOM     15  C   UNL     1       2.562   5.165  18.286  0.00  0.00    +0.000 A 
ATOM     16  H   UNL     1       5.438   6.494  16.196  0.00  0.00    +0.000 HD
ENDBRANCH   2   5
BRANCH   1  18
ATOM     17  C   UNL     1       0.482   9.014  20.787  0.00  0.00    +0.000 C 
ATOM     18  C   UNL     1       0.863   9.646  19.451  0.00  0.00    +0.000 C 
BRANCH  18  19
ATOM     19  C   UNL     1      -0.354  10.142  18.740  0.00  0.00    +0.000 A 
ATOM     20  C   UNL     1      -1.370  10.973  19.176  0.00  0.00    +0.000 A 
ATOM     21  C   UNL     1      -2.349  10.995  18.159  0.00  0.00    +0.000 A 
ATOM     22  C   UNL     1      -3.616  11.585  18.008  0.00  0.00    +0.000 A 
ATOM     23  C   UNL     1      -4.328  11.358  16.825  0.00  0.00    +0.000 A 
ATOM     24  C   UNL     1      -3.788  10.572  15.805  0.00  0.00    +0.000 A 
ATOM     25  C   UNL     1      -2.525   9.974  15.934  0.00  0.00    +0.000 A 
ATOM     26  C   UNL     1      -1.846  10.203  17.131  0.00  0.00    +0.000 A 
ATOM     27  O   UNL     1      -0.628   9.685  17.480  0.00  0.00    +0.000 OA
ENDBRANCH  18  19
ENDBRANCH   1  18
TORSDOF 3
ENDMDL
