MODEL 1
REMARK VINA RESULT:      -9.2      0.000      0.000
REMARK  Name = 
REMARK  4 active torsions:
REMARK  status: ('A' for Active; 'I' for Inactive)
REMARK    1  A    between atoms: C_1  and  C_2
REMARK    2  A    between atoms: C_4  and  C_5
REMARK    3  A    between atoms: C_14  and  N_15
REMARK    4  A    between atoms: C_24  and  C_25
REMARK                            x       y       z     vdW  Elec       q    Type
REMARK                         _______ _______ _______ _____ _____    ______ ____
ROOT
ATOM      1  N   UNL     1      -0.123  10.260  20.019  0.00  0.00    +0.000 N 
ATOM      2  C   UNL     1       0.152  11.338  20.841  0.00  0.00    +0.000 C 
ATOM      3  O   UNL     1       1.276  11.730  21.140  0.00  0.00    +0.000 OA
ATOM      4  N   UNL     1      -0.979  11.890  21.432  0.00  0.00    +0.000 N 
ATOM      5  C   UNL     1      -0.777  12.900  22.539  0.00  0.00    +0.000 C 
ATOM      6  C   UNL     1      -2.191  13.283  22.211  0.00  0.00    +0.000 C 
ATOM      7  C   UNL     1      -3.243  12.610  23.076  0.00  0.00    +0.000 C 
ATOM      8  C   UNL     1      -3.405  13.985  23.776  0.00  0.00    +0.000 C 
ATOM      9  C   UNL     1      -2.744  14.642  22.536  0.00  0.00    +0.000 C 
ATOM     10  C   UNL     1      -1.909  12.874  20.779  0.00  0.00    +0.000 C 
ATOM     11  H   UNL     1      -1.056  10.236  19.638  0.00  0.00    +0.000 HD
ENDROOT
BRANCH   1  18
ATOM     12  C   UNL     1       1.009   8.196  21.789  0.00  0.00    +0.000 C 
ATOM     13  C   UNL     1       1.376   8.340  20.338  0.00  0.00    +0.000 A 
ATOM     14  C   UNL     1       2.282   7.405  19.786  0.00  0.00    +0.000 A 
ATOM     15  C   UNL     1       2.655   7.453  18.436  0.00  0.00    +0.000 A 
ATOM     16  C   UNL     1       2.207   8.512  17.654  0.00  0.00    +0.000 A 
ATOM     17  C   UNL     1       1.299   9.437  18.187  0.00  0.00    +0.000 A 
ATOM     18  C   UNL     1       0.839   9.347  19.511  0.00  0.00    +0.000 A 
BRANCH  15  19
ATOM     19  C   UNL     1       3.533   6.364  17.906  0.00  0.00    +0.000 C 
ATOM     20  O   UNL     1       4.731   6.604  17.788  0.00  0.00    +0.000 OA
ATOM     21  N   UNL     1       2.999   5.107  17.648  0.00  0.00    +0.000 N 
ATOM     22  C   UNL     1       1.639   4.630  17.827  0.00  0.00    +0.000 C 
ATOM     23  C   UNL     1       1.811   3.177  18.230  0.00  0.00    +0.000 C 
ATOM     24  C   UNL     1       3.039   2.736  17.449  0.00  0.00    +0.000 C 
ATOM     25  C   UNL     1       3.890   3.999  17.335  0.00  0.00    +0.000 C 
ENDBRANCH  15  19
ENDBRANCH   1  18
BRANCH  10  26
ATOM     26  C   UNL     1      -3.116  12.466  19.851  0.00  0.00    +0.000 A 
ATOM     27  C   UNL     1      -2.850  11.817  18.619  0.00  0.00    +0.000 A 
ATOM     28  C   UNL     1      -3.862  11.434  17.734  0.00  0.00    +0.000 A 
ATOM     29  C   UNL     1      -5.185  11.689  18.061  0.00  0.00    +0.000 A 
ATOM     30  C   UNL     1      -5.488  12.343  19.251  0.00  0.00    +0.000 A 
ATOM     31  C   UNL     1      -4.466  12.733  20.127  0.00  0.00    +0.000 A 
ENDBRANCH  10  26
TORSDOF 3
ENDMDL
MODEL 2
REMARK VINA RESULT:      -8.8      1.920      2.942
REMARK  Name = 
REMARK  4 active torsions:
REMARK  status: ('A' for Active; 'I' for Inactive)
REMARK    1  A    between atoms: C_1  and  C_2
REMARK    2  A    between atoms: C_4  and  C_5
REMARK    3  A    between atoms: C_14  and  N_15
REMARK    4  A    between atoms: C_24  and  C_25
REMARK                            x       y       z     vdW  Elec       q    Type
REMARK                         _______ _______ _______ _____ _____    ______ ____
ROOT
ATOM      1  N   UNL     1       0.480   9.949  20.613  0.00  0.00    +0.000 N 
ATOM      2  C   UNL     1       0.016  10.157  21.900  0.00  0.00    +0.000 C 
ATOM      3  O   UNL     1       0.247   9.431  22.861  0.00  0.00    +0.000 OA
ATOM      4  N   UNL     1      -0.876  11.219  22.005  0.00  0.00    +0.000 N 
ATOM      5  C   UNL     1      -1.638  11.377  23.301  0.00  0.00    +0.000 C 
ATOM      6  C   UNL     1      -1.835  12.783  22.812  0.00  0.00    +0.000 C 
ATOM      7  C   UNL     1      -3.139  13.015  22.068  0.00  0.00    +0.000 C 
ATOM      8  C   UNL     1      -3.617  13.764  23.339  0.00  0.00    +0.000 C 
ATOM      9  C   UNL     1      -2.129  13.919  23.751  0.00  0.00    +0.000 C 
ATOM     10  C   UNL     1      -0.492  12.668  22.118  0.00  0.00    +0.000 C 
ATOM     11  H   UNL     1       0.454  10.757  20.010  0.00  0.00    +0.000 HD
ENDROOT
BRANCH   1  18
ATOM     12  C   UNL     1       1.716   9.928  17.940  0.00  0.00    +0.000 C 
ATOM     13  C   UNL     1       1.787   8.772  18.899  0.00  0.00    +0.000 A 
ATOM     14  C   UNL     1       2.525   7.630  18.509  0.00  0.00    +0.000 A 
ATOM     15  C   UNL     1       2.662   6.521  19.354  0.00  0.00    +0.000 A 
ATOM     16  C   UNL     1       1.963   6.504  20.556  0.00  0.00    +0.000 A 
ATOM     17  C   UNL     1       1.240   7.634  20.959  0.00  0.00    +0.000 A 
ATOM     18  C   UNL     1       1.171   8.792  20.166  0.00  0.00    +0.000 A 
BRANCH  15  19
ATOM     19  C   UNL     1       3.547   5.399  18.911  0.00  0.00    +0.000 C 
ATOM     20  O   UNL     1       4.754   5.517  19.099  0.00  0.00    +0.000 OA
ATOM     21  N   UNL     1       2.986   4.241  18.387  0.00  0.00    +0.000 N 
ATOM     22  C   UNL     1       1.588   3.901  18.192  0.00  0.00    +0.000 C 
ATOM     23  C   UNL     1       1.537   2.404  18.444  0.00  0.00    +0.000 C 
ATOM     24  C   UNL     1       2.875   1.911  17.916  0.00  0.00    +0.000 C 
ATOM     25  C   UNL     1       3.831   3.077  18.153  0.00  0.00    +0.000 C 
ENDBRANCH  15  19
ENDBRANCH   1  18
BRANCH  10  26
ATOM     26  C   UNL     1      -0.191  13.601  20.882  0.00  0.00    +0.000 A 
ATOM     27  C   UNL     1       0.307  14.907  21.111  0.00  0.00    +0.000 A 
ATOM     28  C   UNL     1       0.588  15.800  20.072  0.00  0.00    +0.000 A 
ATOM     29  C   UNL     1       0.380  15.405  18.759  0.00  0.00    +0.000 A 
ATOM     30  C   UNL     1      -0.129  14.137  18.494  0.00  0.00    +0.000 A 
ATOM     31  C   UNL     1      -0.418  13.253  19.541  0.00  0.00    +0.000 A 
ENDBRANCH  10  26
TORSDOF 3
ENDMDL
MODEL 3
REMARK VINA RESULT:      -8.7      0.930      1.527
REMARK  Name = 
REMARK  4 active torsions:
REMARK  status: ('A' for Active; 'I' for Inactive)
REMARK    1  A    between atoms: C_1  and  C_2
REMARK    2  A    between atoms: C_4  and  C_5
REMARK    3  A    between atoms: C_14  and  N_15
REMARK    4  A    between atoms: C_24  and  C_25
REMARK                            x       y       z     vdW  Elec       q    Type
REMARK                         _______ _______ _______ _____ _____    ______ ____
ROOT
ATOM      1  N   UNL     1      -0.053   9.644  20.346  0.00  0.00    +0.000 N 
ATOM      2  C   UNL     1       0.266  10.743  21.122  0.00  0.00    +0.000 C 
ATOM      3  O   UNL     1       1.386  11.004  21.552  0.00  0.00    +0.000 OA
ATOM      4  N   UNL     1      -0.840  11.492  21.507  0.00  0.00    +0.000 N 
ATOM      5  C   UNL     1      -0.640  12.560  22.559  0.00  0.00    +0.000 C 
ATOM      6  C   UNL     1      -1.928  13.100  22.008  0.00  0.00    +0.000 C 
ATOM      7  C   UNL     1      -3.171  12.655  22.759  0.00  0.00    +0.000 C 
ATOM      8  C   UNL     1      -3.221  14.095  23.332  0.00  0.00    +0.000 C 
ATOM      9  C   UNL     1      -2.314  14.545  22.157  0.00  0.00    +0.000 C 
ATOM     10  C   UNL     1      -1.522  12.532  20.663  0.00  0.00    +0.000 C 
ATOM     11  H   UNL     1      -0.922   9.712  19.839  0.00  0.00    +0.000 HD
ENDROOT
BRANCH   1  18
ATOM     12  C   UNL     1       1.475   9.666  17.828  0.00  0.00    +0.000 C 
ATOM     13  C   UNL     1       1.579   8.572  18.855  0.00  0.00    +0.000 A 
ATOM     14  C   UNL     1       2.493   7.520  18.615  0.00  0.00    +0.000 A 
ATOM     15  C   UNL     1       2.669   6.476  19.533  0.00  0.00    +0.000 A 
ATOM     16  C   UNL     1       1.845   6.422  20.652  0.00  0.00    +0.000 A 
ATOM     17  C   UNL     1       0.945   7.465  20.906  0.00  0.00    +0.000 A 
ATOM     18  C   UNL     1       0.824   8.568  20.045  0.00  0.00    +0.000 A 
BRANCH  15  19
ATOM     19  C   UNL     1       3.732   5.461  19.254  0.00  0.00    +0.000 C 
ATOM     20  O   UNL     1       4.855   5.674  19.701  0.00  0.00    +0.000 OA
ATOM     21  N   UNL     1       3.409   4.287  18.585  0.00  0.00    +0.000 N 
ATOM     22  C   UNL     1       2.123   3.837  18.083  0.00  0.00    +0.000 C 
ATOM     23  C   UNL     1       2.165   2.330  18.269  0.00  0.00    +0.000 C 
ATOM     24  C   UNL     1       3.625   1.984  18.026  0.00  0.00    +0.000 C 
ATOM     25  C   UNL     1       4.393   3.216  18.500  0.00  0.00    +0.000 C 
ENDBRANCH  15  19
ENDBRANCH   1  18
BRANCH  10  26
ATOM     26  C   UNL     1      -2.644  12.210  19.602  0.00  0.00    +0.000 A 
ATOM     27  C   UNL     1      -2.268  11.704  18.333  0.00  0.00    +0.000 A 
ATOM     28  C   UNL     1      -3.199  11.405  17.334  0.00  0.00    +0.000 A 
ATOM     29  C   UNL     1      -4.549  11.603  17.579  0.00  0.00    +0.000 A 
ATOM     30  C   UNL     1      -4.958  12.120  18.805  0.00  0.00    +0.000 A 
ATOM     31  C   UNL     1      -4.017  12.426  19.797  0.00  0.00    +0.000 A 
ENDBRANCH  10  26
TORSDOF 3
ENDMDL
MODEL 4
REMARK VINA RESULT:      -8.6      2.844      9.768
REMARK  Name = 
REMARK  4 active torsions:
REMARK  status: ('A' for Active; 'I' for Inactive)
REMARK    1  A    between atoms: C_1  and  C_2
REMARK    2  A    between atoms: C_4  and  C_5
REMARK    3  A    between atoms: C_14  and  N_15
REMARK    4  A    between atoms: C_24  and  C_25
REMARK                            x       y       z     vdW  Elec       q    Type
REMARK                         _______ _______ _______ _____ _____    ______ ____
ROOT
ATOM      1  N   UNL     1       2.261   7.043  19.924  0.00  0.00    +0.000 N 
ATOM      2  C   UNL     1       1.785   5.764  20.152  0.00  0.00    +0.000 C 
ATOM      3  O   UNL     1       0.706   5.494  20.670  0.00  0.00    +0.000 OA
ATOM      4  N   UNL     1       2.710   4.767  19.862  0.00  0.00    +0.000 N 
ATOM      5  C   UNL     1       2.393   3.358  20.311  0.00  0.00    +0.000 C 
ATOM      6  C   UNL     1       3.416   2.984  19.277  0.00  0.00    +0.000 C 
ATOM      7  C   UNL     1       4.822   2.795  19.819  0.00  0.00    +0.000 C 
ATOM      8  C   UNL     1       4.586   1.275  19.627  0.00  0.00    +0.000 C 
ATOM      9  C   UNL     1       3.443   1.624  18.638  0.00  0.00    +0.000 C 
ATOM     10  C   UNL     1       2.986   4.209  18.494  0.00  0.00    +0.000 C 
ATOM     11  H   UNL     1       3.007   7.110  19.248  0.00  0.00    +0.000 HD
ENDROOT
BRANCH   1  18
ATOM     12  C   UNL     1       1.448   9.101  17.980  0.00  0.00    +0.000 C 
ATOM     13  C   UNL     1       1.235   9.227  19.463  0.00  0.00    +0.000 A 
ATOM     14  C   UNL     1       0.571  10.379  19.944  0.00  0.00    +0.000 A 
ATOM     15  C   UNL     1       0.310  10.561  21.309  0.00  0.00    +0.000 A 
ATOM     16  C   UNL     1       0.817   9.637  22.216  0.00  0.00    +0.000 A 
ATOM     17  C   UNL     1       1.466   8.486  21.751  0.00  0.00    +0.000 A 
ATOM     18  C   UNL     1       1.651   8.241  20.380  0.00  0.00    +0.000 A 
BRANCH  15  19
ATOM     19  C   UNL     1      -0.492  11.753  21.722  0.00  0.00    +0.000 C 
ATOM     20  O   UNL     1      -1.559  11.552  22.294  0.00  0.00    +0.000 OA
ATOM     21  N   UNL     1       0.018  13.031  21.531  0.00  0.00    +0.000 N 
ATOM     22  C   UNL     1       1.292  13.440  20.968  0.00  0.00    +0.000 C 
ATOM     23  C   UNL     1       1.656  14.688  21.753  0.00  0.00    +0.000 C 
ATOM     24  C   UNL     1       0.310  15.342  22.020  0.00  0.00    +0.000 C 
ATOM     25  C   UNL     1      -0.668  14.174  22.121  0.00  0.00    +0.000 C 
ENDBRANCH  15  19
ENDBRANCH   1  18
BRANCH  10  26
ATOM     26  C   UNL     1       3.996   4.851  17.466  0.00  0.00    +0.000 A 
ATOM     27  C   UNL     1       4.445   4.077  16.368  0.00  0.00    +0.000 A 
ATOM     28  C   UNL     1       5.349   4.566  15.420  0.00  0.00    +0.000 A 
ATOM     29  C   UNL     1       5.833   5.860  15.544  0.00  0.00    +0.000 A 
ATOM     30  C   UNL     1       5.433   6.644  16.621  0.00  0.00    +0.000 A 
ATOM     31  C   UNL     1       4.535   6.142  17.572  0.00  0.00    +0.000 A 
ENDBRANCH  10  26
TORSDOF 3
ENDMDL
MODEL 5
REMARK VINA RESULT:      -8.3      1.866      2.333
REMARK  Name = 
REMARK  4 active torsions:
REMARK  status: ('A' for Active; 'I' for Inactive)
REMARK    1  A    between atoms: C_1  and  C_2
REMARK    2  A    between atoms: C_4  and  C_5
REMARK    3  A    between atoms: C_14  and  N_15
REMARK    4  A    between atoms: C_24  and  C_25
REMARK                            x       y       z     vdW  Elec       q    Type
REMARK                         _______ _______ _______ _____ _____    ______ ____
ROOT
ATOM      1  N   UNL     1       0.966  10.119  19.008  0.00  0.00    +0.000 N 
ATOM      2  C   UNL     1       1.496  11.373  18.765  0.00  0.00    +0.000 C 
ATOM      3  O   UNL     1       2.632  11.593  18.355  0.00  0.00    +0.000 OA
ATOM      4  N   UNL     1       0.664  12.414  19.159  0.00  0.00    +0.000 N 
ATOM      5  C   UNL     1       1.240  13.812  19.178  0.00  0.00    +0.000 C 
ATOM      6  C   UNL     1      -0.204  14.222  19.149  0.00  0.00    +0.000 C 
ATOM      7  C   UNL     1      -0.809  14.499  20.514  0.00  0.00    +0.000 C 
ATOM      8  C   UNL     1      -0.740  16.000  20.130  0.00  0.00    +0.000 C 
ATOM      9  C   UNL     1      -0.640  15.568  18.644  0.00  0.00    +0.000 C 
ATOM     10  C   UNL     1      -0.485  12.959  18.357  0.00  0.00    +0.000 C 
ATOM     11  H   UNL     1      -0.040  10.079  19.060  0.00  0.00    +0.000 HD
ENDROOT
BRANCH   1  18
ATOM     12  C   UNL     1       1.131   8.429  21.415  0.00  0.00    +0.000 C 
ATOM     13  C   UNL     1       1.762   8.066  20.099  0.00  0.00    +0.000 A 
ATOM     14  C   UNL     1       2.435   6.826  20.004  0.00  0.00    +0.000 A 
ATOM     15  C   UNL     1       3.027   6.401  18.808  0.00  0.00    +0.000 A 
ATOM     16  C   UNL     1       3.046   7.272  17.724  0.00  0.00    +0.000 A 
ATOM     17  C   UNL     1       2.372   8.498  17.802  0.00  0.00    +0.000 A 
ATOM     18  C   UNL     1       1.691   8.898  18.963  0.00  0.00    +0.000 A 
BRANCH  15  19
ATOM     19  C   UNL     1       3.624   5.031  18.762  0.00  0.00    +0.000 C 
ATOM     20  O   UNL     1       4.805   4.913  19.074  0.00  0.00    +0.000 OA
ATOM     21  N   UNL     1       2.823   3.936  18.459  0.00  0.00    +0.000 N 
ATOM     22  C   UNL     1       1.402   3.888  18.168  0.00  0.00    +0.000 C 
ATOM     23  C   UNL     1       0.953   2.563  18.758  0.00  0.00    +0.000 C 
ATOM     24  C   UNL     1       2.153   1.654  18.543  0.00  0.00    +0.000 C 
ATOM     25  C   UNL     1       3.357   2.590  18.620  0.00  0.00    +0.000 C 
ENDBRANCH  15  19
ENDBRANCH   1  18
BRANCH  10  26
ATOM     26  C   UNL     1      -1.942  12.355  18.378  0.00  0.00    +0.000 A 
ATOM     27  C   UNL     1      -2.379  11.572  17.281  0.00  0.00    +0.000 A 
ATOM     28  C   UNL     1      -3.658  11.012  17.216  0.00  0.00    +0.000 A 
ATOM     29  C   UNL     1      -4.546  11.217  18.261  0.00  0.00    +0.000 A 
ATOM     30  C   UNL     1      -4.162  11.998  19.347  0.00  0.00    +0.000 A 
ATOM     31  C   UNL     1      -2.882  12.565  19.399  0.00  0.00    +0.000 A 
ENDBRANCH  10  26
TORSDOF 3
ENDMDL
MODEL 6
REMARK VINA RESULT:      -8.1      2.200      3.559
REMARK  Name = 
REMARK  4 active torsions:
REMARK  status: ('A' for Active; 'I' for Inactive)
REMARK    1  A    between atoms: C_1  and  C_2
REMARK    2  A    between atoms: C_4  and  C_5
REMARK    3  A    between atoms: C_14  and  N_15
REMARK    4  A    between atoms: C_24  and  C_25
REMARK                            x       y       z     vdW  Elec       q    Type
REMARK                         _______ _______ _______ _____ _____    ______ ____
ROOT
ATOM      1  N   UNL     1       0.859   9.469  20.306  0.00  0.00    +0.000 N 
ATOM      2  C   UNL     1       0.442   9.623  21.616  0.00  0.00    +0.000 C 
ATOM      3  O   UNL     1       0.701   8.852  22.535  0.00  0.00    +0.000 OA
ATOM      4  N   UNL     1      -0.435  10.686  21.799  0.00  0.00    +0.000 N 
ATOM      5  C   UNL     1      -1.149  10.793  23.127  0.00  0.00    +0.000 C 
ATOM      6  C   UNL     1      -1.351  12.220  22.708  0.00  0.00    +0.000 C 
ATOM      7  C   UNL     1      -2.677  12.495  22.021  0.00  0.00    +0.000 C 
ATOM      8  C   UNL     1      -3.103  13.191  23.340  0.00  0.00    +0.000 C 
ATOM      9  C   UNL     1      -1.601  13.316  23.706  0.00  0.00    +0.000 C 
ATOM     10  C   UNL     1      -0.034  12.125  21.962  0.00  0.00    +0.000 C 
ATOM     11  H   UNL     1       0.820  10.303  19.741  0.00  0.00    +0.000 HD
ENDROOT
BRANCH   1  18
ATOM     12  C   UNL     1       2.002   9.556  17.593  0.00  0.00    +0.000 C 
ATOM     13  C   UNL     1       2.095   8.358  18.496  0.00  0.00    +0.000 A 
ATOM     14  C   UNL     1       2.808   7.229  18.031  0.00  0.00    +0.000 A 
ATOM     15  C   UNL     1       2.964   6.082  18.821  0.00  0.00    +0.000 A 
ATOM     16  C   UNL     1       2.308   6.018  20.045  0.00  0.00    +0.000 A 
ATOM     17  C   UNL     1       1.609   7.135  20.522  0.00  0.00    +0.000 A 
ATOM     18  C   UNL     1       1.524   8.327  19.784  0.00  0.00    +0.000 A 
BRANCH  15  19
ATOM     19  C   UNL     1       3.822   4.975  18.297  0.00  0.00    +0.000 C 
ATOM     20  O   UNL     1       3.259   3.985  17.839  0.00  0.00    +0.000 OA
ATOM     21  N   UNL     1       5.203   5.125  18.264  0.00  0.00    +0.000 N 
ATOM     22  C   UNL     1       6.016   6.258  18.668  0.00  0.00    +0.000 C 
ATOM     23  C   UNL     1       7.174   6.247  17.687  0.00  0.00    +0.000 C 
ATOM     24  C   UNL     1       7.401   4.766  17.424  0.00  0.00    +0.000 C 
ATOM     25  C   UNL     1       6.016   4.139  17.565  0.00  0.00    +0.000 C 
ENDBRANCH  15  19
ENDBRANCH   1  18
BRANCH  10  26
ATOM     26  C   UNL     1       0.233  13.110  20.759  0.00  0.00    +0.000 A 
ATOM     27  C   UNL     1       0.849  14.360  21.016  0.00  0.00    +0.000 A 
ATOM     28  C   UNL     1       1.109  15.293  20.008  0.00  0.00    +0.000 A 
ATOM     29  C   UNL     1       0.760  14.998  18.699  0.00  0.00    +0.000 A 
ATOM     30  C   UNL     1       0.134  13.790  18.409  0.00  0.00    +0.000 A 
ATOM     31  C   UNL     1      -0.133  12.864  19.427  0.00  0.00    +0.000 A 
ENDBRANCH  10  26
TORSDOF 3
ENDMDL
MODEL 7
REMARK VINA RESULT:      -8.1      2.751      9.807
REMARK  Name = 
REMARK  4 active torsions:
REMARK  status: ('A' for Active; 'I' for Inactive)
REMARK    1  A    between atoms: C_1  and  C_2
REMARK    2  A    between atoms: C_4  and  C_5
REMARK    3  A    between atoms: C_14  and  N_15
REMARK    4  A    between atoms: C_24  and  C_25
REMARK                            x       y       z     vdW  Elec       q    Type
REMARK                         _______ _______ _______ _____ _____    ______ ____
ROOT
ATOM      1  N   UNL     1       2.576   7.389  18.083  0.00  0.00    +0.000 N 
ATOM      2  C   UNL     1       3.881   7.443  17.629  0.00  0.00    +0.000 C 
ATOM      3  O   UNL     1       4.642   8.394  17.774  0.00  0.00    +0.000 OA
ATOM      4  N   UNL     1       4.244   6.350  16.850  0.00  0.00    +0.000 N 
ATOM      5  C   UNL     1       5.552   6.423  16.094  0.00  0.00    +0.000 C 
ATOM      6  C   UNL     1       5.409   4.929  16.047  0.00  0.00    +0.000 C 
ATOM      7  C   UNL     1       4.757   4.397  14.782  0.00  0.00    +0.000 C 
ATOM      8  C   UNL     1       6.175   3.922  14.370  0.00  0.00    +0.000 C 
ATOM      9  C   UNL     1       6.592   4.021  15.861  0.00  0.00    +0.000 C 
ATOM     10  C   UNL     1       4.689   5.015  17.379  0.00  0.00    +0.000 C 
ATOM     11  H   UNL     1       2.180   6.464  18.147  0.00  0.00    +0.000 HD
ENDROOT
BRANCH   1  18
ATOM     12  C   UNL     1       1.675   7.226  20.883  0.00  0.00    +0.000 C 
ATOM     13  C   UNL     1       1.441   8.422  20.002  0.00  0.00    +0.000 A 
ATOM     14  C   UNL     1       0.789   9.544  20.563  0.00  0.00    +0.000 A 
ATOM     15  C   UNL     1       0.555  10.708  19.818  0.00  0.00    +0.000 A 
ATOM     16  C   UNL     1       0.875  10.711  18.465  0.00  0.00    +0.000 A 
ATOM     17  C   UNL     1       1.532   9.610  17.900  0.00  0.00    +0.000 A 
ATOM     18  C   UNL     1       1.861   8.473  18.657  0.00  0.00    +0.000 A 
BRANCH  15  19
ATOM     19  C   UNL     1      -0.042  11.887  20.517  0.00  0.00    +0.000 C 
ATOM     20  O   UNL     1      -1.171  11.762  20.982  0.00  0.00    +0.000 OA
ATOM     21  N   UNL     1       0.711  13.041  20.696  0.00  0.00    +0.000 N 
ATOM     22  C   UNL     1       2.081  13.316  20.303  0.00  0.00    +0.000 C 
ATOM     23  C   UNL     1       2.605  14.216  21.408  0.00  0.00    +0.000 C 
ATOM     24  C   UNL     1       1.387  15.035  21.805  0.00  0.00    +0.000 C 
ATOM     25  C   UNL     1       0.204  14.103  21.555  0.00  0.00    +0.000 C 
ENDBRANCH  15  19
ENDBRANCH   1  18
BRANCH  10  26
ATOM     26  C   UNL     1       3.703   3.854  17.788  0.00  0.00    +0.000 A 
ATOM     27  C   UNL     1       2.311   4.116  17.831  0.00  0.00    +0.000 A 
ATOM     28  C   UNL     1       1.372   3.146  18.196  0.00  0.00    +0.000 A 
ATOM     29  C   UNL     1       1.803   1.871  18.529  0.00  0.00    +0.000 A 
ATOM     30  C   UNL     1       3.164   1.580  18.521  0.00  0.00    +0.000 A 
ATOM     31  C   UNL     1       4.099   2.561  18.164  0.00  0.00    +0.000 A 
ENDBRANCH  10  26
TORSDOF 3
ENDMDL
MODEL 8
REMARK VINA RESULT:      -8.1      1.946      9.636
REMARK  Name = 
REMARK  4 active torsions:
REMARK  status: ('A' for Active; 'I' for Inactive)
REMARK    1  A    between atoms: C_1  and  C_2
REMARK    2  A    between atoms: C_4  and  C_5
REMARK    3  A    between atoms: C_14  and  N_15
REMARK    4  A    between atoms: C_24  and  C_25
REMARK                            x       y       z     vdW  Elec       q    Type
REMARK                         _______ _______ _______ _____ _____    ______ ____
ROOT
ATOM      1  N   UNL     1       2.356   6.965  19.814  0.00  0.00    +0.000 N 
ATOM      2  C   UNL     1       1.872   5.695  20.074  0.00  0.00    +0.000 C 
ATOM      3  O   UNL     1       0.791   5.444  20.596  0.00  0.00    +0.000 OA
ATOM      4  N   UNL     1       2.791   4.685  19.812  0.00  0.00    +0.000 N 
ATOM      5  C   UNL     1       2.466   3.290  20.296  0.00  0.00    +0.000 C 
ATOM      6  C   UNL     1       3.489   2.884  19.274  0.00  0.00    +0.000 C 
ATOM      7  C   UNL     1       4.893   2.702  19.824  0.00  0.00    +0.000 C 
ATOM      8  C   UNL     1       4.648   1.178  19.670  0.00  0.00    +0.000 C 
ATOM      9  C   UNL     1       3.509   1.508  18.670  0.00  0.00    +0.000 C 
ATOM     10  C   UNL     1       3.067   4.091  18.459  0.00  0.00    +0.000 C 
ATOM     11  H   UNL     1       3.103   7.011  19.139  0.00  0.00    +0.000 HD
ENDROOT
BRANCH   1  18
ATOM     12  C   UNL     1       1.809   9.091  17.851  0.00  0.00    +0.000 C 
ATOM     13  C   UNL     1       1.462   9.197  19.310  0.00  0.00    +0.000 A 
ATOM     14  C   UNL     1       0.800  10.365  19.753  0.00  0.00    +0.000 A 
ATOM     15  C   UNL     1       0.418  10.531  21.091  0.00  0.00    +0.000 A 
ATOM     16  C   UNL     1       0.801   9.571  22.020  0.00  0.00    +0.000 A 
ATOM     17  C   UNL     1       1.447   8.404  21.592  0.00  0.00    +0.000 A 
ATOM     18  C   UNL     1       1.751   8.177  20.239  0.00  0.00    +0.000 A 
BRANCH  15  19
ATOM     19  C   UNL     1      -0.373  11.747  21.454  0.00  0.00    +0.000 C 
ATOM     20  O   UNL     1       0.155  12.570  22.197  0.00  0.00    +0.000 OA
ATOM     21  N   UNL     1      -1.625  11.954  20.888  0.00  0.00    +0.000 N 
ATOM     22  C   UNL     1      -2.346  11.140  19.925  0.00  0.00    +0.000 C 
ATOM     23  C   UNL     1      -3.099  12.153  19.081  0.00  0.00    +0.000 C 
ATOM     24  C   UNL     1      -3.446  13.252  20.073  0.00  0.00    +0.000 C 
ATOM     25  C   UNL     1      -2.298  13.232  21.080  0.00  0.00    +0.000 C 
ENDBRANCH  15  19
ENDBRANCH   1  18
BRANCH  10  26
ATOM     26  C   UNL     1       4.083   4.701  17.417  0.00  0.00    +0.000 A 
ATOM     27  C   UNL     1       4.490   3.915  16.311  0.00  0.00    +0.000 A 
ATOM     28  C   UNL     1       5.395   4.375  15.351  0.00  0.00    +0.000 A 
ATOM     29  C   UNL     1       5.924   5.652  15.469  0.00  0.00    +0.000 A 
ATOM     30  C   UNL     1       5.566   6.447  16.554  0.00  0.00    +0.000 A 
ATOM     31  C   UNL     1       4.666   5.974  17.517  0.00  0.00    +0.000 A 
ENDBRANCH  10  26
TORSDOF 3
ENDMDL
MODEL 9
REMARK VINA RESULT:      -8.1      2.484      9.545
REMARK  Name = 
REMARK  4 active torsions:
REMARK  status: ('A' for Active; 'I' for Inactive)
REMARK    1  A    between atoms: C_1  and  C_2
REMARK    2  A    between atoms: C_4  and  C_5
REMARK    3  A    between atoms: C_14  and  N_15
REMARK    4  A    between atoms: C_24  and  C_25
REMARK                            x       y       z     vdW  Elec       q    Type
REMARK                         _______ _______ _______ _____ _____    ______ ____
ROOT
ATOM      1  N   UNL     1       1.733   7.880  18.804  0.00  0.00    +0.000 N 
ATOM      2  C   UNL     1       2.949   7.948  18.147  0.00  0.00    +0.000 C 
ATOM      3  O   UNL     1       3.525   8.984  17.833  0.00  0.00    +0.000 OA
ATOM      4  N   UNL     1       3.428   6.710  17.735  0.00  0.00    +0.000 N 
ATOM      5  C   UNL     1       4.610   6.687  16.792  0.00  0.00    +0.000 C 
ATOM      6  C   UNL     1       4.750   5.273  17.277  0.00  0.00    +0.000 C 
ATOM      7  C   UNL     1       4.081   4.234  16.394  0.00  0.00    +0.000 C 
ATOM      8  C   UNL     1       5.511   3.846  15.936  0.00  0.00    +0.000 C 
ATOM      9  C   UNL     1       6.058   4.535  17.214  0.00  0.00    +0.000 C 
ATOM     10  C   UNL     1       4.173   5.733  18.602  0.00  0.00    +0.000 C 
ATOM     11  H   UNL     1       1.530   6.995  19.242  0.00  0.00    +0.000 HD
ENDROOT
BRANCH   1  18
ATOM     12  C   UNL     1       1.224   8.647  21.602  0.00  0.00    +0.000 C 
ATOM     13  C   UNL     1       0.652   9.381  20.421  0.00  0.00    +0.000 A 
ATOM     14  C   UNL     1      -0.139  10.526  20.669  0.00  0.00    +0.000 A 
ATOM     15  C   UNL     1      -0.687  11.282  19.624  0.00  0.00    +0.000 A 
ATOM     16  C   UNL     1      -0.538  10.826  18.319  0.00  0.00    +0.000 A 
ATOM     17  C   UNL     1       0.253   9.699  18.059  0.00  0.00    +0.000 A 
ATOM     18  C   UNL     1       0.890   8.986  19.089  0.00  0.00    +0.000 A 
BRANCH  15  19
ATOM     19  C   UNL     1      -1.420  12.539  19.969  0.00  0.00    +0.000 C 
ATOM     20  O   UNL     1      -2.537  12.429  20.465  0.00  0.00    +0.000 OA
ATOM     21  N   UNL     1      -0.798  13.771  19.804  0.00  0.00    +0.000 N 
ATOM     22  C   UNL     1       0.541  14.070  19.330  0.00  0.00    +0.000 C 
ATOM     23  C   UNL     1       0.946  15.297  20.128  0.00  0.00    +0.000 C 
ATOM     24  C   UNL     1      -0.360  16.058  20.293  0.00  0.00    +0.000 C 
ATOM     25  C   UNL     1      -1.431  14.971  20.334  0.00  0.00    +0.000 C 
ENDBRANCH  15  19
ENDBRANCH   1  18
BRANCH  10  26
ATOM     26  C   UNL     1       3.475   4.673  19.538  0.00  0.00    +0.000 A 
ATOM     27  C   UNL     1       2.207   4.973  20.093  0.00  0.00    +0.000 A 
ATOM     28  C   UNL     1       1.527   4.094  20.942  0.00  0.00    +0.000 A 
ATOM     29  C   UNL     1       2.102   2.874  21.261  0.00  0.00    +0.000 A 
ATOM     30  C   UNL     1       3.357   2.550  20.754  0.00  0.00    +0.000 A 
ATOM     31  C   UNL     1       4.036   3.442  19.912  0.00  0.00    +0.000 A 
ENDBRANCH  10  26
TORSDOF 3
ENDMDL
