MODEL 1
REMARK VINA RESULT:      -9.1      0.000      0.000
REMARK  Name = 
REMARK  3 active torsions:
REMARK  status: ('A' for Active; 'I' for Inactive)
REMARK    1  A    between atoms: N_15  and  C_16
REMARK    2  A    between atoms: C_16  and  C_17
REMARK    3  A    between atoms: C_20  and  C_21
REMARK                            x       y       z     vdW  Elec       q    Type
REMARK                         _______ _______ _______ _____ _____    ______ ____
ROOT
ATOM      1  O   UNL     1       2.796   8.264  17.318  0.00  0.00    +0.000 OA
ATOM      2  C   UNL     1       3.177   7.143  17.617  0.00  0.00    +0.000 C 
ATOM      3  N   UNL     1       2.344   6.151  18.078  0.00  0.00    +0.000 N 
ATOM      4  C   UNL     1       3.049   4.916  18.281  0.00  0.00    +0.000 C 
ATOM      5  C   UNL     1       2.844   3.919  17.118  0.00  0.00    +0.000 C 
ATOM      6  C   UNL     1       2.317   2.603  17.702  0.00  0.00    +0.000 C 
ATOM      7  C   UNL     1       2.161   2.891  19.158  0.00  0.00    +0.000 A 
ATOM      8  C   UNL     1       1.627   2.033  20.109  0.00  0.00    +0.000 A 
ATOM      9  C   UNL     1       1.512   2.484  21.423  0.00  0.00    +0.000 A 
ATOM     10  C   UNL     1       1.933   3.775  21.768  0.00  0.00    +0.000 A 
ATOM     11  C   UNL     1       2.483   4.629  20.803  0.00  0.00    +0.000 A 
ATOM     12  C   UNL     1       2.597   4.174  19.496  0.00  0.00    +0.000 A 
ATOM     13  C   UNL     1       4.481   5.426  18.191  0.00  0.00    +0.000 C 
ATOM     14  O   UNL     1       5.498   4.802  18.472  0.00  0.00    +0.000 OA
ATOM     15  N   UNL     1       4.451   6.663  17.608  0.00  0.00    +0.000 N 
ATOM     16  H   UNL     1       1.340   6.268  18.145  0.00  0.00    +0.000 HD
ENDROOT
BRANCH  15  17
ATOM     17  C   UNL     1       5.632   7.313  17.078  0.00  0.00    +0.000 C 
BRANCH  17  18
ATOM     18  C   UNL     1       6.382   6.389  16.175  0.00  0.00    +0.000 A 
ATOM     19  N   UNL     1       7.624   5.950  16.236  0.00  0.00    +0.000 NA
ATOM     20  N   UNL     1       7.777   5.060  15.184  0.00  0.00    +0.000 NA
ATOM     21  C   UNL     1       6.625   5.026  14.549  0.00  0.00    +0.000 A 
ATOM     22  O   UNL     1       5.702   5.885  15.097  0.00  0.00    +0.000 OA
BRANCH  21  23
ATOM     23  C   UNL     1       6.173   4.195  13.436  0.00  0.00    +0.000 A 
ATOM     24  C   UNL     1       7.100   3.557  12.594  0.00  0.00    +0.000 A 
ATOM     25  C   UNL     1       6.662   2.753  11.540  0.00  0.00    +0.000 A 
ATOM     26  C   UNL     1       5.295   2.576  11.311  0.00  0.00    +0.000 A 
ATOM     27  C   UNL     1       4.369   3.199  12.146  0.00  0.00    +0.000 A 
ATOM     28  C   UNL     1       4.805   3.998  13.201  0.00  0.00    +0.000 A 
ENDBRANCH  21  23
ENDBRANCH  17  18
ENDBRANCH  15  17
TORSDOF 3
ENDMDL
MODEL 2
REMARK VINA RESULT:      -9.0      2.204      3.911
REMARK  Name = 
REMARK  3 active torsions:
REMARK  status: ('A' for Active; 'I' for Inactive)
REMARK    1  A    between atoms: N_15  and  C_16
REMARK    2  A    between atoms: C_16  and  C_17
REMARK    3  A    between atoms: C_20  and  C_21
REMARK                            x       y       z     vdW  Elec       q    Type
REMARK                         _______ _______ _______ _____ _____    ______ ____
ROOT
ATOM      1  O   UNL     1       2.180   3.417  17.109  0.00  0.00    +0.000 OA
ATOM      2  C   UNL     1       2.504   4.307  17.880  0.00  0.00    +0.000 C 
ATOM      3  N   UNL     1       1.690   5.364  18.213  0.00  0.00    +0.000 N 
ATOM      4  C   UNL     1       2.300   6.217  19.194  0.00  0.00    +0.000 C 
ATOM      5  C   UNL     1       1.770   5.951  20.621  0.00  0.00    +0.000 C 
ATOM      6  C   UNL     1       1.248   7.274  21.193  0.00  0.00    +0.000 C 
ATOM      7  C   UNL     1       1.417   8.244  20.072  0.00  0.00    +0.000 A 
ATOM      8  C   UNL     1       1.006   9.570  20.069  0.00  0.00    +0.000 A 
ATOM      9  C   UNL     1       1.203  10.324  18.912  0.00  0.00    +0.000 A 
ATOM     10  C   UNL     1       1.806   9.750  17.786  0.00  0.00    +0.000 A 
ATOM     11  C   UNL     1       2.229   8.415  17.804  0.00  0.00    +0.000 A 
ATOM     12  C   UNL     1       2.034   7.668  18.959  0.00  0.00    +0.000 A 
ATOM     13  C   UNL     1       3.726   5.688  19.136  0.00  0.00    +0.000 C 
ATOM     14  O   UNL     1       4.715   6.191  19.658  0.00  0.00    +0.000 OA
ATOM     15  N   UNL     1       3.699   4.470  18.513  0.00  0.00    +0.000 N 
ATOM     16  H   UNL     1       0.736   5.444  17.881  0.00  0.00    +0.000 HD
ENDROOT
BRANCH  15  17
ATOM     17  C   UNL     1       4.804   3.536  18.558  0.00  0.00    +0.000 C 
BRANCH  17  18
ATOM     18  C   UNL     1       5.910   3.985  17.658  0.00  0.00    +0.000 A 
ATOM     19  N   UNL     1       7.156   4.322  17.930  0.00  0.00    +0.000 NA
ATOM     20  N   UNL     1       7.765   4.588  16.713  0.00  0.00    +0.000 NA
ATOM     21  C   UNL     1       6.848   4.407  15.786  0.00  0.00    +0.000 A 
ATOM     22  O   UNL     1       5.627   4.069  16.320  0.00  0.00    +0.000 OA
BRANCH  21  23
ATOM     23  C   UNL     1       6.945   4.444  14.330  0.00  0.00    +0.000 A 
ATOM     24  C   UNL     1       7.794   5.362  13.689  0.00  0.00    +0.000 A 
ATOM     25  C   UNL     1       7.892   5.382  12.296  0.00  0.00    +0.000 A 
ATOM     26  C   UNL     1       7.144   4.489  11.524  0.00  0.00    +0.000 A 
ATOM     27  C   UNL     1       6.305   3.569  12.152  0.00  0.00    +0.000 A 
ATOM     28  C   UNL     1       6.210   3.545  13.543  0.00  0.00    +0.000 A 
ENDBRANCH  21  23
ENDBRANCH  17  18
ENDBRANCH  15  17
TORSDOF 3
ENDMDL
MODEL 3
REMARK VINA RESULT:      -9.0      1.140      1.546
REMARK  Name = 
REMARK  3 active torsions:
REMARK  status: ('A' for Active; 'I' for Inactive)
REMARK    1  A    between atoms: N_15  and  C_16
REMARK    2  A    between atoms: C_16  and  C_17
REMARK    3  A    between atoms: C_20  and  C_21
REMARK                            x       y       z     vdW  Elec       q    Type
REMARK                         _______ _______ _______ _____ _____    ______ ____
ROOT
ATOM      1  O   UNL     1       4.623   7.266  16.532  0.00  0.00    +0.000 OA
ATOM      2  C   UNL     1       4.609   6.171  17.073  0.00  0.00    +0.000 C 
ATOM      3  N   UNL     1       3.464   5.555  17.522  0.00  0.00    +0.000 N 
ATOM      4  C   UNL     1       3.736   4.247  18.050  0.00  0.00    +0.000 C 
ATOM      5  C   UNL     1       3.401   3.122  17.045  0.00  0.00    +0.000 C 
ATOM      6  C   UNL     1       2.432   2.146  17.722  0.00  0.00    +0.000 C 
ATOM      7  C   UNL     1       2.176   2.761  19.057  0.00  0.00    +0.000 A 
ATOM      8  C   UNL     1       1.287   2.293  20.016  0.00  0.00    +0.000 A 
ATOM      9  C   UNL     1       1.137   3.021  21.195  0.00  0.00    +0.000 A 
ATOM     10  C   UNL     1       1.873   4.196  21.402  0.00  0.00    +0.000 A 
ATOM     11  C   UNL     1       2.776   4.652  20.433  0.00  0.00    +0.000 A 
ATOM     12  C   UNL     1       2.925   3.922  19.261  0.00  0.00    +0.000 A 
ATOM     13  C   UNL     1       5.253   4.326  18.151  0.00  0.00    +0.000 C 
ATOM     14  O   UNL     1       5.991   3.526  18.714  0.00  0.00    +0.000 OA
ATOM     15  N   UNL     1       5.672   5.377  17.382  0.00  0.00    +0.000 N 
ATOM     16  H   UNL     1       2.541   5.947  17.379  0.00  0.00    +0.000 HD
ENDROOT
BRANCH  15  17
ATOM     17  C   UNL     1       7.052   5.564  16.986  0.00  0.00    +0.000 C 
BRANCH  17  18
ATOM     18  C   UNL     1       7.207   5.380  15.511  0.00  0.00    +0.000 A 
ATOM     19  N   UNL     1       8.100   5.872  14.674  0.00  0.00    +0.000 NA
ATOM     20  N   UNL     1       7.819   5.320  13.433  0.00  0.00    +0.000 NA
ATOM     21  C   UNL     1       6.770   4.542  13.597  0.00  0.00    +0.000 A 
ATOM     22  O   UNL     1       6.297   4.568  14.887  0.00  0.00    +0.000 OA
BRANCH  21  23
ATOM     23  C   UNL     1       6.102   3.636  12.667  0.00  0.00    +0.000 A 
ATOM     24  C   UNL     1       4.765   3.850  12.291  0.00  0.00    +0.000 A 
ATOM     25  C   UNL     1       4.136   2.987  11.390  0.00  0.00    +0.000 A 
ATOM     26  C   UNL     1       4.831   1.899  10.855  0.00  0.00    +0.000 A 
ATOM     27  C   UNL     1       6.160   1.683  11.217  0.00  0.00    +0.000 A 
ATOM     28  C   UNL     1       6.790   2.547  12.112  0.00  0.00    +0.000 A 
ENDBRANCH  21  23
ENDBRANCH  17  18
ENDBRANCH  15  17
TORSDOF 3
ENDMDL
MODEL 4
REMARK VINA RESULT:      -8.9      3.077      5.395
REMARK  Name = 
REMARK  3 active torsions:
REMARK  status: ('A' for Active; 'I' for Inactive)
REMARK    1  A    between atoms: N_15  and  C_16
REMARK    2  A    between atoms: C_16  and  C_17
REMARK    3  A    between atoms: C_20  and  C_21
REMARK                            x       y       z     vdW  Elec       q    Type
REMARK                         _______ _______ _______ _____ _____    ______ ____
ROOT
ATOM      1  O   UNL     1       3.762   7.955  17.064  0.00  0.00    +0.000 OA
ATOM      2  C   UNL     1       3.912   6.781  17.362  0.00  0.00    +0.000 C 
ATOM      3  N   UNL     1       2.928   6.004  17.927  0.00  0.00    +0.000 N 
ATOM      4  C   UNL     1       3.359   4.645  18.105  0.00  0.00    +0.000 C 
ATOM      5  C   UNL     1       2.829   3.707  16.998  0.00  0.00    +0.000 C 
ATOM      6  C   UNL     1       2.082   2.548  17.668  0.00  0.00    +0.000 C 
ATOM      7  C   UNL     1       2.133   2.879  19.122  0.00  0.00    +0.000 A 
ATOM      8  C   UNL     1       1.515   2.171  20.143  0.00  0.00    +0.000 A 
ATOM      9  C   UNL     1       1.628   2.651  21.448  0.00  0.00    +0.000 A 
ATOM     10  C   UNL     1       2.355   3.819  21.713  0.00  0.00    +0.000 A 
ATOM     11  C   UNL     1       2.985   4.519  20.676  0.00  0.00    +0.000 A 
ATOM     12  C   UNL     1       2.872   4.036  19.378  0.00  0.00    +0.000 A 
ATOM     13  C   UNL     1       4.852   4.822  17.870  0.00  0.00    +0.000 C 
ATOM     14  O   UNL     1       5.729   3.990  18.077  0.00  0.00    +0.000 OA
ATOM     15  N   UNL     1       5.042   6.029  17.254  0.00  0.00    +0.000 N 
ATOM     16  H   UNL     1       1.986   6.343  18.081  0.00  0.00    +0.000 HD
ENDROOT
BRANCH  15  17
ATOM     17  C   UNL     1       6.281   6.394  16.599  0.00  0.00    +0.000 C 
BRANCH  17  18
ATOM     18  C   UNL     1       7.186   7.113  17.547  0.00  0.00    +0.000 A 
ATOM     19  N   UNL     1       7.899   6.663  18.561  0.00  0.00    +0.000 NA
ATOM     20  N   UNL     1       8.610   7.748  19.051  0.00  0.00    +0.000 NA
ATOM     21  C   UNL     1       8.273   8.784  18.312  0.00  0.00    +0.000 A 
ATOM     22  O   UNL     1       7.332   8.463  17.363  0.00  0.00    +0.000 OA
BRANCH  21  23
ATOM     23  C   UNL     1       8.780  10.153  18.303  0.00  0.00    +0.000 A 
ATOM     24  C   UNL     1       9.958  10.487  18.992  0.00  0.00    +0.000 A 
ATOM     25  C   UNL     1      10.445  11.797  18.968  0.00  0.00    +0.000 A 
ATOM     26  C   UNL     1       9.761  12.789  18.260  0.00  0.00    +0.000 A 
ATOM     27  C   UNL     1       8.596  12.464  17.568  0.00  0.00    +0.000 A 
ATOM     28  C   UNL     1       8.112  11.157  17.586  0.00  0.00    +0.000 A 
ENDBRANCH  21  23
ENDBRANCH  17  18
ENDBRANCH  15  17
TORSDOF 3
ENDMDL
MODEL 5
REMARK VINA RESULT:      -8.9      2.948      5.369
REMARK  Name = 
REMARK  3 active torsions:
REMARK  status: ('A' for Active; 'I' for Inactive)
REMARK    1  A    between atoms: N_15  and  C_16
REMARK    2  A    between atoms: C_16  and  C_17
REMARK    3  A    between atoms: C_20  and  C_21
REMARK                            x       y       z     vdW  Elec       q    Type
REMARK                         _______ _______ _______ _____ _____    ______ ____
ROOT
ATOM      1  O   UNL     1       3.371   8.193  17.408  0.00  0.00    +0.000 OA
ATOM      2  C   UNL     1       3.497   6.993  17.595  0.00  0.00    +0.000 C 
ATOM      3  N   UNL     1       2.550   6.213  18.217  0.00  0.00    +0.000 N 
ATOM      4  C   UNL     1       2.930   4.828  18.236  0.00  0.00    +0.000 C 
ATOM      5  C   UNL     1       2.225   4.005  17.134  0.00  0.00    +0.000 C 
ATOM      6  C   UNL     1       1.506   2.827  17.801  0.00  0.00    +0.000 C 
ATOM      7  C   UNL     1       1.748   3.035  19.259  0.00  0.00    +0.000 A 
ATOM      8  C   UNL     1       1.222   2.272  20.292  0.00  0.00    +0.000 A 
ATOM      9  C   UNL     1       1.516   2.639  21.606  0.00  0.00    +0.000 A 
ATOM     10  C   UNL     1       2.326   3.752  21.867  0.00  0.00    +0.000 A 
ATOM     11  C   UNL     1       2.862   4.507  20.816  0.00  0.00    +0.000 A 
ATOM     12  C   UNL     1       2.570   4.137  19.510  0.00  0.00    +0.000 A 
ATOM     13  C   UNL     1       4.392   4.963  17.833  0.00  0.00    +0.000 C 
ATOM     14  O   UNL     1       5.244   4.082  17.866  0.00  0.00    +0.000 OA
ATOM     15  N   UNL     1       4.566   6.207  17.291  0.00  0.00    +0.000 N 
ATOM     16  H   UNL     1       1.651   6.576  18.511  0.00  0.00    +0.000 HD
ENDROOT
BRANCH  15  17
ATOM     17  C   UNL     1       5.735   6.574  16.518  0.00  0.00    +0.000 C 
BRANCH  17  18
ATOM     18  C   UNL     1       6.818   7.087  17.411  0.00  0.00    +0.000 A 
ATOM     19  N   UNL     1       7.664   6.444  18.191  0.00  0.00    +0.000 NA
ATOM     20  N   UNL     1       8.500   7.405  18.740  0.00  0.00    +0.000 NA
ATOM     21  C   UNL     1       8.098   8.566  18.268  0.00  0.00    +0.000 A 
ATOM     22  O   UNL     1       7.000   8.445  17.451  0.00  0.00    +0.000 OA
BRANCH  21  23
ATOM     23  C   UNL     1       8.665   9.903  18.419  0.00  0.00    +0.000 A 
ATOM     24  C   UNL     1       8.315  10.936  17.532  0.00  0.00    +0.000 A 
ATOM     25  C   UNL     1       8.851  12.216  17.690  0.00  0.00    +0.000 A 
ATOM     26  C   UNL     1       9.742  12.482  18.733  0.00  0.00    +0.000 A 
ATOM     27  C   UNL     1      10.089  11.466  19.621  0.00  0.00    +0.000 A 
ATOM     28  C   UNL     1       9.551  10.189  19.467  0.00  0.00    +0.000 A 
ENDBRANCH  21  23
ENDBRANCH  17  18
ENDBRANCH  15  17
TORSDOF 3
ENDMDL
MODEL 6
REMARK VINA RESULT:      -8.9      1.950      2.264
REMARK  Name = 
REMARK  3 active torsions:
REMARK  status: ('A' for Active; 'I' for Inactive)
REMARK    1  A    between atoms: N_15  and  C_16
REMARK    2  A    between atoms: C_16  and  C_17
REMARK    3  A    between atoms: C_20  and  C_21
REMARK                            x       y       z     vdW  Elec       q    Type
REMARK                         _______ _______ _______ _____ _____    ______ ____
ROOT
ATOM      1  O   UNL     1       7.391   5.874  19.813  0.00  0.00    +0.000 OA
ATOM      2  C   UNL     1       6.434   5.324  19.290  0.00  0.00    +0.000 C 
ATOM      3  N   UNL     1       5.147   5.414  19.768  0.00  0.00    +0.000 N 
ATOM      4  C   UNL     1       4.215   4.728  18.917  0.00  0.00    +0.000 C 
ATOM      5  C   UNL     1       3.450   5.690  17.980  0.00  0.00    +0.000 C 
ATOM      6  C   UNL     1       1.947   5.470  18.191  0.00  0.00    +0.000 C 
ATOM      7  C   UNL     1       1.881   4.454  19.283  0.00  0.00    +0.000 A 
ATOM      8  C   UNL     1       0.726   3.986  19.895  0.00  0.00    +0.000 A 
ATOM      9  C   UNL     1       0.851   3.067  20.935  0.00  0.00    +0.000 A 
ATOM     10  C   UNL     1       2.117   2.628  21.345  0.00  0.00    +0.000 A 
ATOM     11  C   UNL     1       3.275   3.097  20.712  0.00  0.00    +0.000 A 
ATOM     12  C   UNL     1       3.146   4.011  19.674  0.00  0.00    +0.000 A 
ATOM     13  C   UNL     1       5.193   3.941  18.055  0.00  0.00    +0.000 C 
ATOM     14  O   UNL     1       4.915   3.044  17.267  0.00  0.00    +0.000 OA
ATOM     15  N   UNL     1       6.432   4.502  18.205  0.00  0.00    +0.000 N 
ATOM     16  H   UNL     1       4.897   5.996  20.558  0.00  0.00    +0.000 HD
ENDROOT
BRANCH  15  17
ATOM     17  C   UNL     1       7.536   4.224  17.311  0.00  0.00    +0.000 C 
BRANCH  17  18
ATOM     18  C   UNL     1       7.193   4.620  15.911  0.00  0.00    +0.000 A 
ATOM     19  N   UNL     1       7.420   5.742  15.255  0.00  0.00    +0.000 NA
ATOM     20  N   UNL     1       6.953   5.543  13.965  0.00  0.00    +0.000 NA
ATOM     21  C   UNL     1       6.464   4.321  13.926  0.00  0.00    +0.000 A 
ATOM     22  O   UNL     1       6.540   3.690  15.144  0.00  0.00    +0.000 OA
BRANCH  21  23
ATOM     23  C   UNL     1       5.937   3.541  12.810  0.00  0.00    +0.000 A 
ATOM     24  C   UNL     1       6.714   2.538  12.205  0.00  0.00    +0.000 A 
ATOM     25  C   UNL     1       6.199   1.786  11.146  0.00  0.00    +0.000 A 
ATOM     26  C   UNL     1       4.905   2.026  10.676  0.00  0.00    +0.000 A 
ATOM     27  C   UNL     1       4.125   3.013  11.276  0.00  0.00    +0.000 A 
ATOM     28  C   UNL     1       4.636   3.761  12.336  0.00  0.00    +0.000 A 
ENDBRANCH  21  23
ENDBRANCH  17  18
ENDBRANCH  15  17
TORSDOF 3
ENDMDL
MODEL 7
REMARK VINA RESULT:      -8.8      3.641      6.225
REMARK  Name = 
REMARK  3 active torsions:
REMARK  status: ('A' for Active; 'I' for Inactive)
REMARK    1  A    between atoms: N_15  and  C_16
REMARK    2  A    between atoms: C_16  and  C_17
REMARK    3  A    between atoms: C_20  and  C_21
REMARK                            x       y       z     vdW  Elec       q    Type
REMARK                         _______ _______ _______ _____ _____    ______ ____
ROOT
ATOM      1  O   UNL     1       8.017   4.353  18.333  0.00  0.00    +0.000 OA
ATOM      2  C   UNL     1       6.856   4.714  18.218  0.00  0.00    +0.000 C 
ATOM      3  N   UNL     1       5.801   4.112  18.862  0.00  0.00    +0.000 N 
ATOM      4  C   UNL     1       4.561   4.789  18.600  0.00  0.00    +0.000 C 
ATOM      5  C   UNL     1       4.141   5.723  19.757  0.00  0.00    +0.000 C 
ATOM      6  C   UNL     1       2.727   5.331  20.201  0.00  0.00    +0.000 C 
ATOM      7  C   UNL     1       2.397   4.149  19.352  0.00  0.00    +0.000 A 
ATOM      8  C   UNL     1       1.249   3.374  19.440  0.00  0.00    +0.000 A 
ATOM      9  C   UNL     1       1.124   2.272  18.596  0.00  0.00    +0.000 A 
ATOM     10  C   UNL     1       2.139   1.961  17.680  0.00  0.00    +0.000 A 
ATOM     11  C   UNL     1       3.288   2.757  17.591  0.00  0.00    +0.000 A 
ATOM     12  C   UNL     1       3.407   3.856  18.432  0.00  0.00    +0.000 A 
ATOM     13  C   UNL     1       4.998   5.673  17.441  0.00  0.00    +0.000 C 
ATOM     14  O   UNL     1       4.268   6.339  16.714  0.00  0.00    +0.000 OA
ATOM     15  N   UNL     1       6.365   5.711  17.431  0.00  0.00    +0.000 N 
ATOM     16  H   UNL     1       5.925   3.357  19.526  0.00  0.00    +0.000 HD
ENDROOT
BRANCH  15  17
ATOM     17  C   UNL     1       7.122   6.690  16.678  0.00  0.00    +0.000 C 
BRANCH  17  18
ATOM     18  C   UNL     1       7.789   7.661  17.598  0.00  0.00    +0.000 A 
ATOM     19  N   UNL     1       8.311   7.489  18.797  0.00  0.00    +0.000 NA
ATOM     20  N   UNL     1       8.861   8.708  19.164  0.00  0.00    +0.000 NA
ATOM     21  C   UNL     1       8.626   9.540  18.172  0.00  0.00    +0.000 A 
ATOM     22  O   UNL     1       7.904   8.954  17.159  0.00  0.00    +0.000 OA
BRANCH  21  23
ATOM     23  C   UNL     1       9.059  10.919  17.962  0.00  0.00    +0.000 A 
ATOM     24  C   UNL     1       8.120  11.960  17.865  0.00  0.00    +0.000 A 
ATOM     25  C   UNL     1       8.542  13.278  17.678  0.00  0.00    +0.000 A 
ATOM     26  C   UNL     1       9.905  13.574  17.582  0.00  0.00    +0.000 A 
ATOM     27  C   UNL     1      10.843  12.549  17.684  0.00  0.00    +0.000 A 
ATOM     28  C   UNL     1      10.423  11.233  17.876  0.00  0.00    +0.000 A 
ENDBRANCH  21  23
ENDBRANCH  17  18
ENDBRANCH  15  17
TORSDOF 3
ENDMDL
MODEL 8
REMARK VINA RESULT:      -8.7      3.741      6.342
REMARK  Name = 
REMARK  3 active torsions:
REMARK  status: ('A' for Active; 'I' for Inactive)
REMARK    1  A    between atoms: N_15  and  C_16
REMARK    2  A    between atoms: C_16  and  C_17
REMARK    3  A    between atoms: C_20  and  C_21
REMARK                            x       y       z     vdW  Elec       q    Type
REMARK                         _______ _______ _______ _____ _____    ______ ____
ROOT
ATOM      1  O   UNL     1       7.570   4.370  16.314  0.00  0.00    +0.000 OA
ATOM      2  C   UNL     1       6.786   4.364  17.250  0.00  0.00    +0.000 C 
ATOM      3  N   UNL     1       5.612   3.647  17.259  0.00  0.00    +0.000 N 
ATOM      4  C   UNL     1       4.923   3.768  18.514  0.00  0.00    +0.000 C 
ATOM      5  C   UNL     1       5.145   2.545  19.431  0.00  0.00    +0.000 C 
ATOM      6  C   UNL     1       3.773   1.986  19.825  0.00  0.00    +0.000 C 
ATOM      7  C   UNL     1       2.806   2.842  19.077  0.00  0.00    +0.000 A 
ATOM      8  C   UNL     1       1.429   2.676  19.037  0.00  0.00    +0.000 A 
ATOM      9  C   UNL     1       0.678   3.545  18.245  0.00  0.00    +0.000 A 
ATOM     10  C   UNL     1       1.307   4.561  17.514  0.00  0.00    +0.000 A 
ATOM     11  C   UNL     1       2.696   4.727  17.573  0.00  0.00    +0.000 A 
ATOM     12  C   UNL     1       3.441   3.862  18.364  0.00  0.00    +0.000 A 
ATOM     13  C   UNL     1       5.701   4.930  19.116  0.00  0.00    +0.000 C 
ATOM     14  O   UNL     1       5.407   5.562  20.125  0.00  0.00    +0.000 OA
ATOM     15  N   UNL     1       6.868   5.066  18.414  0.00  0.00    +0.000 N 
ATOM     16  H   UNL     1       5.346   3.025  16.505  0.00  0.00    +0.000 HD
ENDROOT
BRANCH  15  17
ATOM     17  C   UNL     1       7.988   5.850  18.891  0.00  0.00    +0.000 C 
BRANCH  17  18
ATOM     18  C   UNL     1       7.950   7.228  18.314  0.00  0.00    +0.000 A 
ATOM     19  N   UNL     1       7.243   7.722  17.316  0.00  0.00    +0.000 NA
ATOM     20  N   UNL     1       7.546   9.073  17.252  0.00  0.00    +0.000 NA
ATOM     21  C   UNL     1       8.423   9.307  18.205  0.00  0.00    +0.000 A 
ATOM     22  O   UNL     1       8.763   8.167  18.892  0.00  0.00    +0.000 OA
BRANCH  21  23
ATOM     23  C   UNL     1       9.013  10.559  18.670  0.00  0.00    +0.000 A 
ATOM     24  C   UNL     1       9.667  10.627  19.912  0.00  0.00    +0.000 A 
ATOM     25  C   UNL     1      10.242  11.825  20.345  0.00  0.00    +0.000 A 
ATOM     26  C   UNL     1      10.168  12.970  19.546  0.00  0.00    +0.000 A 
ATOM     27  C   UNL     1       9.528  12.909  18.310  0.00  0.00    +0.000 A 
ATOM     28  C   UNL     1       8.958  11.713  17.875  0.00  0.00    +0.000 A 
ENDBRANCH  21  23
ENDBRANCH  17  18
ENDBRANCH  15  17
TORSDOF 3
ENDMDL
MODEL 9
REMARK VINA RESULT:      -8.7      3.834      6.464
REMARK  Name = 
REMARK  3 active torsions:
REMARK  status: ('A' for Active; 'I' for Inactive)
REMARK    1  A    between atoms: N_15  and  C_16
REMARK    2  A    between atoms: C_16  and  C_17
REMARK    3  A    between atoms: C_20  and  C_21
REMARK                            x       y       z     vdW  Elec       q    Type
REMARK                         _______ _______ _______ _____ _____    ______ ____
ROOT
ATOM      1  O   UNL     1       7.454   5.480  20.210  0.00  0.00    +0.000 OA
ATOM      2  C   UNL     1       6.550   5.432  19.391  0.00  0.00    +0.000 C 
ATOM      3  N   UNL     1       5.272   5.019  19.687  0.00  0.00    +0.000 N 
ATOM      4  C   UNL     1       4.399   5.133  18.551  0.00  0.00    +0.000 C 
ATOM      5  C   UNL     1       3.515   6.399  18.608  0.00  0.00    +0.000 C 
ATOM      6  C   UNL     1       2.049   5.966  18.483  0.00  0.00    +0.000 C 
ATOM      7  C   UNL     1       2.116   4.476  18.432  0.00  0.00    +0.000 A 
ATOM      8  C   UNL     1       1.032   3.610  18.406  0.00  0.00    +0.000 A 
ATOM      9  C   UNL     1       1.278   2.237  18.406  0.00  0.00    +0.000 A 
ATOM     10  C   UNL     1       2.593   1.752  18.429  0.00  0.00    +0.000 A 
ATOM     11  C   UNL     1       3.679   2.636  18.443  0.00  0.00    +0.000 A 
ATOM     12  C   UNL     1       3.430   4.002  18.439  0.00  0.00    +0.000 A 
ATOM     13  C   UNL     1       5.436   5.355  17.459  0.00  0.00    +0.000 C 
ATOM     14  O   UNL     1       5.238   5.341  16.249  0.00  0.00    +0.000 OA
ATOM     15  N   UNL     1       6.611   5.714  18.060  0.00  0.00    +0.000 N 
ATOM     16  H   UNL     1       4.979   4.781  20.626  0.00  0.00    +0.000 HD
ENDROOT
BRANCH  15  17
ATOM     17  C   UNL     1       7.719   6.304  17.337  0.00  0.00    +0.000 C 
BRANCH  17  18
ATOM     18  C   UNL     1       7.732   7.789  17.513  0.00  0.00    +0.000 A 
ATOM     19  N   UNL     1       6.829   8.698  17.201  0.00  0.00    +0.000 NA
ATOM     20  N   UNL     1       7.326   9.913  17.649  0.00  0.00    +0.000 NA
ATOM     21  C   UNL     1       8.499   9.662  18.191  0.00  0.00    +0.000 A 
ATOM     22  O   UNL     1       8.844   8.336  18.097  0.00  0.00    +0.000 OA
BRANCH  21  23
ATOM     23  C   UNL     1       9.422  10.536  18.911  0.00  0.00    +0.000 A 
ATOM     24  C   UNL     1       9.240  10.802  20.278  0.00  0.00    +0.000 A 
ATOM     25  C   UNL     1      10.134  11.628  20.964  0.00  0.00    +0.000 A 
ATOM     26  C   UNL     1      11.218  12.200  20.294  0.00  0.00    +0.000 A 
ATOM     27  C   UNL     1      11.410  11.936  18.939  0.00  0.00    +0.000 A 
ATOM     28  C   UNL     1      10.521  11.108  18.255  0.00  0.00    +0.000 A 
ENDBRANCH  21  23
ENDBRANCH  17  18
ENDBRANCH  15  17
TORSDOF 3
ENDMDL
