MODEL 1
REMARK VINA RESULT:      -9.2      0.000      0.000
REMARK  Name = 
REMARK  5 active torsions:
REMARK  status: ('A' for Active; 'I' for Inactive)
REMARK    1  A    between atoms: C_1  and  C_2
REMARK    2  A    between atoms: C_5  and  C_6
REMARK    3  A    between atoms: C_10  and  C_12
REMARK    4  A    between atoms: N_19  and  C_20
REMARK    5  A    between atoms: C_20  and  C_21
REMARK                            x       y       z     vdW  Elec       q    Type
REMARK                         _______ _______ _______ _____ _____    ______ ____
ROOT
ATOM      1  C   UNL     1       1.658   8.027  20.320  0.00  0.00    +0.000 A 
ATOM      2  C   UNL     1       2.210   7.912  19.044  0.00  0.00    +0.000 A 
ATOM      3  N   UNL     1       2.679   6.776  18.462  0.00  0.00    +0.000 NA
ATOM      4  C   UNL     1       2.466   5.682  19.219  0.00  0.00    +0.000 A 
ATOM      5  C   UNL     1       1.863   5.638  20.469  0.00  0.00    +0.000 A 
ATOM      6  C   UNL     1       1.848   4.267  20.803  0.00  0.00    +0.000 A 
ATOM      7  N   UNL     1       2.435   3.498  19.879  0.00  0.00    +0.000 NA
ATOM      8  N   UNL     1       2.794   4.383  18.912  0.00  0.00    +0.000 N 
ATOM      9  C   UNL     1       1.449   6.849  21.048  0.00  0.00    +0.000 A 
ENDROOT
BRANCH   1  14
ATOM     10  C   UNL     1      -2.048  11.261  19.200  0.00  0.00    +0.000 C 
ATOM     11  C   UNL     1      -1.450  11.811  20.278  0.00  0.00    +0.000 C 
ATOM     12  C   UNL     1      -0.119  11.380  20.844  0.00  0.00    +0.000 C 
ATOM     13  N   UNL     1       0.384  10.190  20.161  0.00  0.00    +0.000 N 
ATOM     14  C   UNL     1       1.192   9.318  20.891  0.00  0.00    +0.000 C 
ATOM     15  O   UNL     1       1.556   9.580  22.040  0.00  0.00    +0.000 OA
ATOM     16  C   UNL     1       0.150  10.185  18.716  0.00  0.00    +0.000 C 
ATOM     17  C   UNL     1      -1.359  10.138  18.457  0.00  0.00    +0.000 C 
BRANCH  10  22
ATOM     18  C   UNL     1      -7.244  13.043  17.299  0.00  0.00    +0.000 C 
ATOM     19  C   UNL     1      -5.909  12.569  17.786  0.00  0.00    +0.000 A 
ATOM     20  C   UNL     1      -5.046  11.864  16.944  0.00  0.00    +0.000 A 
ATOM     21  C   UNL     1      -3.795  11.439  17.407  0.00  0.00    +0.000 A 
ATOM     22  C   UNL     1      -3.373  11.717  18.711  0.00  0.00    +0.000 A 
ATOM     23  C   UNL     1      -4.252  12.412  19.555  0.00  0.00    +0.000 A 
ATOM     24  C   UNL     1      -5.506  12.834  19.098  0.00  0.00    +0.000 A 
ENDBRANCH  10  22
ENDBRANCH   1  14
BRANCH   8  25
ATOM     25  C   UNL     1       3.594   3.950  17.777  0.00  0.00    +0.000 C 
BRANCH  25  26
ATOM     26  C   UNL     1       4.913   4.677  17.675  0.00  0.00    +0.000 A 
ATOM     27  C   UNL     1       5.302   5.289  16.476  0.00  0.00    +0.000 A 
ATOM     28  C   UNL     1       6.522   5.964  16.386  0.00  0.00    +0.000 A 
ATOM     29  C   UNL     1       7.364   6.036  17.494  0.00  0.00    +0.000 A 
ATOM     30  C   UNL     1       6.987   5.436  18.693  0.00  0.00    +0.000 A 
ATOM     31  C   UNL     1       5.770   4.757  18.784  0.00  0.00    +0.000 A 
ENDBRANCH  25  26
ENDBRANCH   8  25
TORSDOF 4
ENDMDL
MODEL 2
REMARK VINA RESULT:      -9.2      0.239      1.246
REMARK  Name = 
REMARK  5 active torsions:
REMARK  status: ('A' for Active; 'I' for Inactive)
REMARK    1  A    between atoms: C_1  and  C_2
REMARK    2  A    between atoms: C_5  and  C_6
REMARK    3  A    between atoms: C_10  and  C_12
REMARK    4  A    between atoms: N_19  and  C_20
REMARK    5  A    between atoms: C_20  and  C_21
REMARK                            x       y       z     vdW  Elec       q    Type
REMARK                         _______ _______ _______ _____ _____    ______ ____
ROOT
ATOM      1  C   UNL     1       1.574   8.229  20.346  0.00  0.00    +0.000 A 
ATOM      2  C   UNL     1       2.144   8.147  19.075  0.00  0.00    +0.000 A 
ATOM      3  N   UNL     1       2.636   7.029  18.477  0.00  0.00    +0.000 NA
ATOM      4  C   UNL     1       2.427   5.917  19.210  0.00  0.00    +0.000 A 
ATOM      5  C   UNL     1       1.809   5.841  20.450  0.00  0.00    +0.000 A 
ATOM      6  C   UNL     1       1.809   4.463  20.757  0.00  0.00    +0.000 A 
ATOM      7  N   UNL     1       2.418   3.720  19.826  0.00  0.00    +0.000 NA
ATOM      8  N   UNL     1       2.778   4.630  18.882  0.00  0.00    +0.000 N 
ATOM      9  C   UNL     1       1.371   7.034  21.048  0.00  0.00    +0.000 A 
ENDROOT
BRANCH   1  14
ATOM     10  C   UNL     1      -2.218  11.387  19.298  0.00  0.00    +0.000 C 
ATOM     11  C   UNL     1      -1.623  11.938  20.377  0.00  0.00    +0.000 C 
ATOM     12  C   UNL     1      -0.277  11.533  20.925  0.00  0.00    +0.000 C 
ATOM     13  N   UNL     1       0.248  10.363  20.224  0.00  0.00    +0.000 N 
ATOM     14  C   UNL     1       1.083   9.502  20.936  0.00  0.00    +0.000 C 
ATOM     15  O   UNL     1       1.451   9.760  22.085  0.00  0.00    +0.000 OA
ATOM     16  C   UNL     1      -0.001  10.369  18.781  0.00  0.00    +0.000 C 
ATOM     17  C   UNL     1      -1.510  10.289  18.536  0.00  0.00    +0.000 C 
BRANCH  10  22
ATOM     18  C   UNL     1      -7.459  13.075  17.436  0.00  0.00    +0.000 C 
ATOM     19  C   UNL     1      -6.105  12.655  17.918  0.00  0.00    +0.000 A 
ATOM     20  C   UNL     1      -5.667  12.981  19.204  0.00  0.00    +0.000 A 
ATOM     21  C   UNL     1      -4.404  12.571  19.647  0.00  0.00    +0.000 A 
ATOM     22  C   UNL     1      -3.558  11.817  18.827  0.00  0.00    +0.000 A 
ATOM     23  C   UNL     1      -4.000  11.506  17.532  0.00  0.00    +0.000 A 
ATOM     24  C   UNL     1      -5.259  11.920  17.082  0.00  0.00    +0.000 A 
ENDBRANCH  10  22
ENDBRANCH   1  14
BRANCH   8  25
ATOM     25  C   UNL     1       3.598   4.230  17.749  0.00  0.00    +0.000 C 
BRANCH  25  26
ATOM     26  C   UNL     1       4.946   4.908  17.730  0.00  0.00    +0.000 A 
ATOM     27  C   UNL     1       5.777   4.880  18.859  0.00  0.00    +0.000 A 
ATOM     28  C   UNL     1       7.026   5.506  18.838  0.00  0.00    +0.000 A 
ATOM     29  C   UNL     1       7.458   6.165  17.688  0.00  0.00    +0.000 A 
ATOM     30  C   UNL     1       6.643   6.196  16.559  0.00  0.00    +0.000 A 
ATOM     31  C   UNL     1       5.393   5.575  16.579  0.00  0.00    +0.000 A 
ENDBRANCH  25  26
ENDBRANCH   8  25
TORSDOF 4
ENDMDL
MODEL 3
REMARK VINA RESULT:      -8.4      3.668     10.427
REMARK  Name = 
REMARK  5 active torsions:
REMARK  status: ('A' for Active; 'I' for Inactive)
REMARK    1  A    between atoms: C_1  and  C_2
REMARK    2  A    between atoms: C_5  and  C_6
REMARK    3  A    between atoms: C_10  and  C_12
REMARK    4  A    between atoms: N_19  and  C_20
REMARK    5  A    between atoms: C_20  and  C_21
REMARK                            x       y       z     vdW  Elec       q    Type
REMARK                         _______ _______ _______ _____ _____    ______ ____
ROOT
ATOM      1  C   UNL     1       0.709  12.047  20.280  0.00  0.00    +0.000 A 
ATOM      2  C   UNL     1      -0.516  12.623  19.945  0.00  0.00    +0.000 A 
ATOM      3  N   UNL     1      -0.714  13.862  19.420  0.00  0.00    +0.000 NA
ATOM      4  C   UNL     1       0.442  14.493  19.136  0.00  0.00    +0.000 A 
ATOM      5  C   UNL     1       1.728  14.011  19.345  0.00  0.00    +0.000 A 
ATOM      6  C   UNL     1       2.568  15.028  18.845  0.00  0.00    +0.000 A 
ATOM      7  N   UNL     1       1.892  16.094  18.401  0.00  0.00    +0.000 NA
ATOM      8  N   UNL     1       0.592  15.739  18.578  0.00  0.00    +0.000 N 
ATOM      9  C   UNL     1       1.873  12.749  19.943  0.00  0.00    +0.000 A 
ENDROOT
BRANCH   1  14
ATOM     10  C   UNL     1       2.473   7.611  18.650  0.00  0.00    +0.000 C 
ATOM     11  C   UNL     1       2.082   7.361  19.918  0.00  0.00    +0.000 C 
ATOM     12  C   UNL     1       1.238   8.284  20.761  0.00  0.00    +0.000 C 
ATOM     13  N   UNL     1       1.009   9.558  20.083  0.00  0.00    +0.000 N 
ATOM     14  C   UNL     1       0.834  10.691  20.877  0.00  0.00    +0.000 C 
ATOM     15  O   UNL     1       0.775  10.618  22.107  0.00  0.00    +0.000 OA
ATOM     16  C   UNL     1       0.771   9.435  18.643  0.00  0.00    +0.000 C 
ATOM     17  C   UNL     1       2.038   8.892  17.975  0.00  0.00    +0.000 C 
BRANCH  10  22
ATOM     18  C   UNL     1       5.816   3.933  15.636  0.00  0.00    +0.000 C 
ATOM     19  C   UNL     1       4.942   4.876  16.404  0.00  0.00    +0.000 A 
ATOM     20  C   UNL     1       3.843   4.409  17.128  0.00  0.00    +0.000 A 
ATOM     21  C   UNL     1       3.042   5.299  17.853  0.00  0.00    +0.000 A 
ATOM     22  C   UNL     1       3.327   6.668  17.883  0.00  0.00    +0.000 A 
ATOM     23  C   UNL     1       4.423   7.132  17.142  0.00  0.00    +0.000 A 
ATOM     24  C   UNL     1       5.224   6.245  16.411  0.00  0.00    +0.000 A 
ENDBRANCH  10  22
ENDBRANCH   1  14
BRANCH   8  25
ATOM     25  C   UNL     1      -0.473  16.701  18.336  0.00  0.00    +0.000 C 
BRANCH  25  26
ATOM     26  C   UNL     1      -1.063  17.257  19.609  0.00  0.00    +0.000 A 
ATOM     27  C   UNL     1      -0.253  17.913  20.547  0.00  0.00    +0.000 A 
ATOM     28  C   UNL     1      -0.802  18.429  21.723  0.00  0.00    +0.000 A 
ATOM     29  C   UNL     1      -2.167  18.298  21.973  0.00  0.00    +0.000 A 
ATOM     30  C   UNL     1      -2.984  17.653  21.047  0.00  0.00    +0.000 A 
ATOM     31  C   UNL     1      -2.436  17.132  19.873  0.00  0.00    +0.000 A 
ENDBRANCH  25  26
ENDBRANCH   8  25
TORSDOF 4
ENDMDL
MODEL 4
REMARK VINA RESULT:      -8.4      4.022      9.680
REMARK  Name = 
REMARK  5 active torsions:
REMARK  status: ('A' for Active; 'I' for Inactive)
REMARK    1  A    between atoms: C_1  and  C_2
REMARK    2  A    between atoms: C_5  and  C_6
REMARK    3  A    between atoms: C_10  and  C_12
REMARK    4  A    between atoms: N_19  and  C_20
REMARK    5  A    between atoms: C_20  and  C_21
REMARK                            x       y       z     vdW  Elec       q    Type
REMARK                         _______ _______ _______ _____ _____    ______ ____
ROOT
ATOM      1  C   UNL     1       0.832  11.878  20.488  0.00  0.00    +0.000 A 
ATOM      2  C   UNL     1       1.925  12.512  19.896  0.00  0.00    +0.000 A 
ATOM      3  N   UNL     1       1.950  13.768  19.375  0.00  0.00    +0.000 NA
ATOM      4  C   UNL     1       0.795  14.434  19.577  0.00  0.00    +0.000 A 
ATOM      5  C   UNL     1      -0.342  13.955  20.214  0.00  0.00    +0.000 A 
ATOM      6  C   UNL     1      -1.238  15.045  20.196  0.00  0.00    +0.000 A 
ATOM      7  N   UNL     1      -0.747  16.115  19.559  0.00  0.00    +0.000 NA
ATOM      8  N   UNL     1       0.503  15.722  19.200  0.00  0.00    +0.000 N 
ATOM      9  C   UNL     1      -0.332  12.631  20.681  0.00  0.00    +0.000 A 
ENDROOT
BRANCH   1  14
ATOM     10  C   UNL     1       2.516   7.482  18.675  0.00  0.00    +0.000 C 
ATOM     11  C   UNL     1       2.061   7.173  19.908  0.00  0.00    +0.000 C 
ATOM     12  C   UNL     1       1.212   8.076  20.768  0.00  0.00    +0.000 C 
ATOM     13  N   UNL     1       1.056   9.395  20.157  0.00  0.00    +0.000 N 
ATOM     14  C   UNL     1       0.885  10.486  21.009  0.00  0.00    +0.000 C 
ATOM     15  O   UNL     1       0.769  10.345  22.228  0.00  0.00    +0.000 OA
ATOM     16  C   UNL     1       0.878   9.364  18.704  0.00  0.00    +0.000 C 
ATOM     17  C   UNL     1       2.154   8.814  18.059  0.00  0.00    +0.000 C 
BRANCH  10  22
ATOM     18  C   UNL     1       5.861   3.863  15.592  0.00  0.00    +0.000 C 
ATOM     19  C   UNL     1       4.986   4.790  16.379  0.00  0.00    +0.000 A 
ATOM     20  C   UNL     1       3.955   4.297  17.182  0.00  0.00    +0.000 A 
ATOM     21  C   UNL     1       3.154   5.173  17.923  0.00  0.00    +0.000 A 
ATOM     22  C   UNL     1       3.370   6.555  17.891  0.00  0.00    +0.000 A 
ATOM     23  C   UNL     1       4.398   7.043  17.071  0.00  0.00    +0.000 A 
ATOM     24  C   UNL     1       5.198   6.171  16.323  0.00  0.00    +0.000 A 
ENDBRANCH  10  22
ENDBRANCH   1  14
BRANCH   8  25
ATOM     25  C   UNL     1       1.328  16.573  18.354  0.00  0.00    +0.000 C 
BRANCH  25  26
ATOM     26  C   UNL     1       2.662  16.904  18.977  0.00  0.00    +0.000 A 
ATOM     27  C   UNL     1       2.731  17.555  20.217  0.00  0.00    +0.000 A 
ATOM     28  C   UNL     1       3.968  17.858  20.792  0.00  0.00    +0.000 A 
ATOM     29  C   UNL     1       5.148  17.512  20.136  0.00  0.00    +0.000 A 
ATOM     30  C   UNL     1       5.092  16.860  18.905  0.00  0.00    +0.000 A 
ATOM     31  C   UNL     1       3.857  16.561  18.326  0.00  0.00    +0.000 A 
ENDBRANCH  25  26
ENDBRANCH   8  25
TORSDOF 4
ENDMDL
MODEL 5
REMARK VINA RESULT:      -8.4      3.989      9.642
REMARK  Name = 
REMARK  5 active torsions:
REMARK  status: ('A' for Active; 'I' for Inactive)
REMARK    1  A    between atoms: C_1  and  C_2
REMARK    2  A    between atoms: C_5  and  C_6
REMARK    3  A    between atoms: C_10  and  C_12
REMARK    4  A    between atoms: N_19  and  C_20
REMARK    5  A    between atoms: C_20  and  C_21
REMARK                            x       y       z     vdW  Elec       q    Type
REMARK                         _______ _______ _______ _____ _____    ______ ____
ROOT
ATOM      1  C   UNL     1       0.880  11.809  20.454  0.00  0.00    +0.000 A 
ATOM      2  C   UNL     1       1.967  12.459  19.869  0.00  0.00    +0.000 A 
ATOM      3  N   UNL     1       1.978  13.717  19.352  0.00  0.00    +0.000 NA
ATOM      4  C   UNL     1       0.813  14.367  19.549  0.00  0.00    +0.000 A 
ATOM      5  C   UNL     1      -0.321  13.872  20.179  0.00  0.00    +0.000 A 
ATOM      6  C   UNL     1      -1.231  14.950  20.159  0.00  0.00    +0.000 A 
ATOM      7  N   UNL     1      -0.751  16.028  19.528  0.00  0.00    +0.000 NA
ATOM      8  N   UNL     1       0.507  15.652  19.174  0.00  0.00    +0.000 N 
ATOM      9  C   UNL     1      -0.296  12.547  20.643  0.00  0.00    +0.000 A 
ENDROOT
BRANCH   1  14
ATOM     10  C   UNL     1       2.585   7.431  18.618  0.00  0.00    +0.000 C 
ATOM     11  C   UNL     1       2.142   7.116  19.854  0.00  0.00    +0.000 C 
ATOM     12  C   UNL     1       1.293   8.010  20.723  0.00  0.00    +0.000 C 
ATOM     13  N   UNL     1       1.121   9.329  20.116  0.00  0.00    +0.000 N 
ATOM     14  C   UNL     1       0.947  10.417  20.971  0.00  0.00    +0.000 C 
ATOM     15  O   UNL     1       0.843  10.272  22.191  0.00  0.00    +0.000 OA
ATOM     16  C   UNL     1       0.932   9.299  18.664  0.00  0.00    +0.000 C 
ATOM     17  C   UNL     1       2.208   8.762  18.007  0.00  0.00    +0.000 C 
BRANCH  10  22
ATOM     18  C   UNL     1       5.937   3.826  15.527  0.00  0.00    +0.000 C 
ATOM     19  C   UNL     1       5.086   4.760  16.331  0.00  0.00    +0.000 A 
ATOM     20  C   UNL     1       5.286   6.142  16.276  0.00  0.00    +0.000 A 
ATOM     21  C   UNL     1       4.475   7.005  17.022  0.00  0.00    +0.000 A 
ATOM     22  C   UNL     1       3.441   6.513  17.825  0.00  0.00    +0.000 A 
ATOM     23  C   UNL     1       3.255   5.124  17.886  0.00  0.00    +0.000 A 
ATOM     24  C   UNL     1       4.068   4.256  17.147  0.00  0.00    +0.000 A 
ENDBRANCH  10  22
ENDBRANCH   1  14
BRANCH   8  25
ATOM     25  C   UNL     1       1.324  16.516  18.335  0.00  0.00    +0.000 C 
BRANCH  25  26
ATOM     26  C   UNL     1       2.670  16.825  18.945  0.00  0.00    +0.000 A 
ATOM     27  C   UNL     1       3.854  16.466  18.285  0.00  0.00    +0.000 A 
ATOM     28  C   UNL     1       5.098  16.756  18.850  0.00  0.00    +0.000 A 
ATOM     29  C   UNL     1       5.172  17.411  20.078  0.00  0.00    +0.000 A 
ATOM     30  C   UNL     1       4.003  17.777  20.741  0.00  0.00    +0.000 A 
ATOM     31  C   UNL     1       2.758  17.484  20.180  0.00  0.00    +0.000 A 
ENDBRANCH  25  26
ENDBRANCH   8  25
TORSDOF 4
ENDMDL
MODEL 6
REMARK VINA RESULT:      -8.3      3.651     10.387
REMARK  Name = 
REMARK  5 active torsions:
REMARK  status: ('A' for Active; 'I' for Inactive)
REMARK    1  A    between atoms: C_1  and  C_2
REMARK    2  A    between atoms: C_5  and  C_6
REMARK    3  A    between atoms: C_10  and  C_12
REMARK    4  A    between atoms: N_19  and  C_20
REMARK    5  A    between atoms: C_20  and  C_21
REMARK                            x       y       z     vdW  Elec       q    Type
REMARK                         _______ _______ _______ _____ _____    ______ ____
ROOT
ATOM      1  C   UNL     1       0.760  11.902  20.322  0.00  0.00    +0.000 A 
ATOM      2  C   UNL     1      -0.487  12.489  20.107  0.00  0.00    +0.000 A 
ATOM      3  N   UNL     1      -0.723  13.734  19.613  0.00  0.00    +0.000 NA
ATOM      4  C   UNL     1       0.407  14.360  19.228  0.00  0.00    +0.000 A 
ATOM      5  C   UNL     1       1.703  13.867  19.313  0.00  0.00    +0.000 A 
ATOM      6  C   UNL     1       2.501  14.883  18.746  0.00  0.00    +0.000 A 
ATOM      7  N   UNL     1       1.795  15.958  18.376  0.00  0.00    +0.000 NA
ATOM      8  N   UNL     1       0.514  15.610  18.668  0.00  0.00    +0.000 N 
ATOM      9  C   UNL     1       1.893  12.599  19.885  0.00  0.00    +0.000 A 
ENDROOT
BRANCH   1  14
ATOM     10  C   UNL     1       2.557   7.526  18.571  0.00  0.00    +0.000 C 
ATOM     11  C   UNL     1       2.211   7.249  19.846  0.00  0.00    +0.000 C 
ATOM     12  C   UNL     1       1.376   8.143  20.729  0.00  0.00    +0.000 C 
ATOM     13  N   UNL     1       1.101   9.422  20.078  0.00  0.00    +0.000 N 
ATOM     14  C   UNL     1       0.929  10.540  20.894  0.00  0.00    +0.000 C 
ATOM     15  O   UNL     1       0.910  10.448  22.124  0.00  0.00    +0.000 OA
ATOM     16  C   UNL     1       0.821   9.316  18.644  0.00  0.00    +0.000 C 
ATOM     17  C   UNL     1       2.077   8.808  17.929  0.00  0.00    +0.000 C 
BRANCH  10  22
ATOM     18  C   UNL     1       5.876   3.937  15.425  0.00  0.00    +0.000 C 
ATOM     19  C   UNL     1       5.034   4.867  16.243  0.00  0.00    +0.000 A 
ATOM     20  C   UNL     1       5.245   6.248  16.207  0.00  0.00    +0.000 A 
ATOM     21  C   UNL     1       4.442   7.107  16.966  0.00  0.00    +0.000 A 
ATOM     22  C   UNL     1       3.405   6.612  17.764  0.00  0.00    +0.000 A 
ATOM     23  C   UNL     1       3.209   5.224  17.806  0.00  0.00    +0.000 A 
ATOM     24  C   UNL     1       4.014   4.360  17.054  0.00  0.00    +0.000 A 
ENDBRANCH  10  22
ENDBRANCH   1  14
BRANCH   8  25
ATOM     25  C   UNL     1      -0.562  16.581  18.534  0.00  0.00    +0.000 C 
BRANCH  25  26
ATOM     26  C   UNL     1      -0.976  17.185  19.854  0.00  0.00    +0.000 A 
ATOM     27  C   UNL     1      -2.250  16.940  20.385  0.00  0.00    +0.000 A 
ATOM     28  C   UNL     1      -2.630  17.497  21.608  0.00  0.00    +0.000 A 
ATOM     29  C   UNL     1      -1.740  18.304  22.314  0.00  0.00    +0.000 A 
ATOM     30  C   UNL     1      -0.469  18.552  21.799  0.00  0.00    +0.000 A 
ATOM     31  C   UNL     1      -0.089  17.999  20.575  0.00  0.00    +0.000 A 
ENDBRANCH  25  26
ENDBRANCH   8  25
TORSDOF 4
ENDMDL
MODEL 7
REMARK VINA RESULT:      -8.3      3.039      3.904
REMARK  Name = 
REMARK  5 active torsions:
REMARK  status: ('A' for Active; 'I' for Inactive)
REMARK    1  A    between atoms: C_1  and  C_2
REMARK    2  A    between atoms: C_5  and  C_6
REMARK    3  A    between atoms: C_10  and  C_12
REMARK    4  A    between atoms: N_19  and  C_20
REMARK    5  A    between atoms: C_20  and  C_21
REMARK                            x       y       z     vdW  Elec       q    Type
REMARK                         _______ _______ _______ _____ _____    ______ ____
ROOT
ATOM      1  C   UNL     1       1.198   8.459  20.352  0.00  0.00    +0.000 A 
ATOM      2  C   UNL     1       1.801   8.637  19.106  0.00  0.00    +0.000 A 
ATOM      3  N   UNL     1       2.588   7.742  18.450  0.00  0.00    +0.000 NA
ATOM      4  C   UNL     1       2.663   6.557  19.087  0.00  0.00    +0.000 A 
ATOM      5  C   UNL     1       2.056   6.216  20.288  0.00  0.00    +0.000 A 
ATOM      6  C   UNL     1       2.414   4.866  20.491  0.00  0.00    +0.000 A 
ATOM      7  N   UNL     1       3.222   4.391  19.536  0.00  0.00    +0.000 NA
ATOM      8  N   UNL     1       3.351   5.439  18.680  0.00  0.00    +0.000 N 
ATOM      9  C   UNL     1       1.303   7.197  20.952  0.00  0.00    +0.000 A 
ENDROOT
BRANCH   1  14
ATOM     10  C   UNL     1       0.772  13.461  19.866  0.00  0.00    +0.000 C 
ATOM     11  C   UNL     1      -0.127  13.149  20.823  0.00  0.00    +0.000 C 
ATOM     12  C   UNL     1      -0.210  11.820  21.532  0.00  0.00    +0.000 C 
ATOM     13  N   UNL     1       0.722  10.853  20.953  0.00  0.00    +0.000 N 
ATOM     14  C   UNL     1       0.373   9.504  21.012  0.00  0.00    +0.000 C 
ATOM     15  O   UNL     1      -0.633   9.120  21.614  0.00  0.00    +0.000 OA
ATOM     16  C   UNL     1       2.018  11.422  20.580  0.00  0.00    +0.000 C 
ATOM     17  C   UNL     1       1.809  12.440  19.455  0.00  0.00    +0.000 C 
BRANCH  10  22
ATOM     18  C   UNL     1       0.795  18.631  17.208  0.00  0.00    +0.000 C 
ATOM     19  C   UNL     1       0.793  17.292  17.879  0.00  0.00    +0.000 A 
ATOM     20  C   UNL     1       1.956  16.520  17.946  0.00  0.00    +0.000 A 
ATOM     21  C   UNL     1       1.945  15.277  18.588  0.00  0.00    +0.000 A 
ATOM     22  C   UNL     1       0.782  14.783  19.188  0.00  0.00    +0.000 A 
ATOM     23  C   UNL     1      -0.385  15.556  19.104  0.00  0.00    +0.000 A 
ATOM     24  C   UNL     1      -0.380  16.798  18.457  0.00  0.00    +0.000 A 
ENDBRANCH  10  22
ENDBRANCH   1  14
BRANCH   8  25
ATOM     25  C   UNL     1       4.276   5.365  17.560  0.00  0.00    +0.000 C 
BRANCH  25  26
ATOM     26  C   UNL     1       5.644   5.913  17.890  0.00  0.00    +0.000 A 
ATOM     27  C   UNL     1       6.409   5.353  18.922  0.00  0.00    +0.000 A 
ATOM     28  C   UNL     1       7.675   5.859  19.223  0.00  0.00    +0.000 A 
ATOM     29  C   UNL     1       8.192   6.929  18.494  0.00  0.00    +0.000 A 
ATOM     30  C   UNL     1       7.443   7.492  17.463  0.00  0.00    +0.000 A 
ATOM     31  C   UNL     1       6.174   6.990  17.164  0.00  0.00    +0.000 A 
ENDBRANCH  25  26
ENDBRANCH   8  25
TORSDOF 4
ENDMDL
MODEL 8
REMARK VINA RESULT:      -8.3      2.283      3.181
REMARK  Name = 
REMARK  5 active torsions:
REMARK  status: ('A' for Active; 'I' for Inactive)
REMARK    1  A    between atoms: C_1  and  C_2
REMARK    2  A    between atoms: C_5  and  C_6
REMARK    3  A    between atoms: C_10  and  C_12
REMARK    4  A    between atoms: N_19  and  C_20
REMARK    5  A    between atoms: C_20  and  C_21
REMARK                            x       y       z     vdW  Elec       q    Type
REMARK                         _______ _______ _______ _____ _____    ______ ____
ROOT
ATOM      1  C   UNL     1       1.470  10.485  18.970  0.00  0.00    +0.000 A 
ATOM      2  C   UNL     1       2.014   9.973  17.791  0.00  0.00    +0.000 A 
ATOM      3  N   UNL     1       2.477   8.710  17.593  0.00  0.00    +0.000 NA
ATOM      4  C   UNL     1       2.266   7.910  18.657  0.00  0.00    +0.000 A 
ATOM      5  C   UNL     1       1.671   8.264  19.860  0.00  0.00    +0.000 A 
ATOM      6  C   UNL     1       1.657   7.067  20.608  0.00  0.00    +0.000 A 
ATOM      7  N   UNL     1       2.236   6.044  19.969  0.00  0.00    +0.000 NA
ATOM      8  N   UNL     1       2.590   6.580  18.771  0.00  0.00    +0.000 N 
ATOM      9  C   UNL     1       1.264   9.596  20.032  0.00  0.00    +0.000 A 
ENDROOT
BRANCH   1  14
ATOM     10  C   UNL     1      -2.694  12.687  20.776  0.00  0.00    +0.000 C 
ATOM     11  C   UNL     1      -1.918  13.722  20.390  0.00  0.00    +0.000 C 
ATOM     12  C   UNL     1      -0.679  13.605  19.538  0.00  0.00    +0.000 C 
ATOM     13  N   UNL     1      -0.335  12.205  19.294  0.00  0.00    +0.000 N 
ATOM     14  C   UNL     1       1.011  11.893  19.109  0.00  0.00    +0.000 C 
ATOM     15  O   UNL     1       1.878  12.768  19.053  0.00  0.00    +0.000 OA
ATOM     16  C   UNL     1      -1.491  11.339  19.056  0.00  0.00    +0.000 C 
ATOM     17  C   UNL     1      -2.344  11.286  20.327  0.00  0.00    +0.000 C 
BRANCH  10  22
ATOM     18  C   UNL     1      -7.376  13.417  24.142  0.00  0.00    +0.000 C 
ATOM     19  C   UNL     1      -6.163  13.241  23.282  0.00  0.00    +0.000 A 
ATOM     20  C   UNL     1      -4.911  12.984  23.847  0.00  0.00    +0.000 A 
ATOM     21  C   UNL     1      -3.788  12.808  23.032  0.00  0.00    +0.000 A 
ATOM     22  C   UNL     1      -3.888  12.870  21.638  0.00  0.00    +0.000 A 
ATOM     23  C   UNL     1      -5.145  13.142  21.078  0.00  0.00    +0.000 A 
ATOM     24  C   UNL     1      -6.270  13.325  21.890  0.00  0.00    +0.000 A 
ENDBRANCH  10  22
ENDBRANCH   1  14
BRANCH   8  25
ATOM     25  C   UNL     1       3.382   5.809  17.825  0.00  0.00    +0.000 C 
BRANCH  25  26
ATOM     26  C   UNL     1       4.868   5.986  18.020  0.00  0.00    +0.000 A 
ATOM     27  C   UNL     1       5.607   6.819  17.168  0.00  0.00    +0.000 A 
ATOM     28  C   UNL     1       6.982   6.984  17.353  0.00  0.00    +0.000 A 
ATOM     29  C   UNL     1       7.632   6.321  18.392  0.00  0.00    +0.000 A 
ATOM     30  C   UNL     1       6.908   5.493  19.248  0.00  0.00    +0.000 A 
ATOM     31  C   UNL     1       5.534   5.324  19.062  0.00  0.00    +0.000 A 
ENDBRANCH  25  26
ENDBRANCH   8  25
TORSDOF 4
ENDMDL
MODEL 9
REMARK VINA RESULT:      -8.2      2.745      3.637
REMARK  Name = 
REMARK  5 active torsions:
REMARK  status: ('A' for Active; 'I' for Inactive)
REMARK    1  A    between atoms: C_1  and  C_2
REMARK    2  A    between atoms: C_5  and  C_6
REMARK    3  A    between atoms: C_10  and  C_12
REMARK    4  A    between atoms: N_19  and  C_20
REMARK    5  A    between atoms: C_20  and  C_21
REMARK                            x       y       z     vdW  Elec       q    Type
REMARK                         _______ _______ _______ _____ _____    ______ ____
ROOT
ATOM      1  C   UNL     1       2.112   8.675  18.499  0.00  0.00    +0.000 A 
ATOM      2  C   UNL     1       2.495   7.812  17.472  0.00  0.00    +0.000 A 
ATOM      3  N   UNL     1       2.783   6.488  17.589  0.00  0.00    +0.000 NA
ATOM      4  C   UNL     1       2.561   6.019  18.833  0.00  0.00    +0.000 A 
ATOM      5  C   UNL     1       2.110   6.744  19.928  0.00  0.00    +0.000 A 
ATOM      6  C   UNL     1       2.008   5.789  20.962  0.00  0.00    +0.000 A 
ATOM      7  N   UNL     1       2.406   4.567  20.586  0.00  0.00    +0.000 NA
ATOM      8  N   UNL     1       2.728   4.729  19.275  0.00  0.00    +0.000 N 
ATOM      9  C   UNL     1       1.883   8.120  19.765  0.00  0.00    +0.000 A 
ENDROOT
BRANCH   1  14
ATOM     10  C   UNL     1      -0.614  12.156  20.927  0.00  0.00    +0.000 C 
ATOM     11  C   UNL     1      -0.058  12.834  19.900  0.00  0.00    +0.000 C 
ATOM     12  C   UNL     1       0.633  12.201  18.718  0.00  0.00    +0.000 C 
ATOM     13  N   UNL     1       0.754  10.755  18.889  0.00  0.00    +0.000 N 
ATOM     14  C   UNL     1       1.841  10.121  18.288  0.00  0.00    +0.000 C 
ATOM     15  O   UNL     1       2.624  10.732  17.556  0.00  0.00    +0.000 OA
ATOM     16  C   UNL     1      -0.421  10.124  19.494  0.00  0.00    +0.000 C 
ATOM     17  C   UNL     1      -0.584  10.644  20.925  0.00  0.00    +0.000 C 
BRANCH  10  22
ATOM     18  C   UNL     1      -3.120  14.849  25.427  0.00  0.00    +0.000 C 
ATOM     19  C   UNL     1      -2.473  14.142  24.276  0.00  0.00    +0.000 A 
ATOM     20  C   UNL     1      -3.085  13.039  23.676  0.00  0.00    +0.000 A 
ATOM     21  C   UNL     1      -2.477  12.395  22.592  0.00  0.00    +0.000 A 
ATOM     22  C   UNL     1      -1.258  12.844  22.074  0.00  0.00    +0.000 A 
ATOM     23  C   UNL     1      -0.643  13.943  22.692  0.00  0.00    +0.000 A 
ATOM     24  C   UNL     1      -1.244  14.586  23.780  0.00  0.00    +0.000 A 
ENDBRANCH  10  22
ENDBRANCH   1  14
BRANCH   8  25
ATOM     25  C   UNL     1       3.342   3.642  18.528  0.00  0.00    +0.000 C 
BRANCH  25  26
ATOM     26  C   UNL     1       4.685   4.014  17.947  0.00  0.00    +0.000 A 
ATOM     27  C   UNL     1       5.695   4.545  18.761  0.00  0.00    +0.000 A 
ATOM     28  C   UNL     1       6.937   4.885  18.220  0.00  0.00    +0.000 A 
ATOM     29  C   UNL     1       7.184   4.695  16.862  0.00  0.00    +0.000 A 
ATOM     30  C   UNL     1       6.190   4.163  16.043  0.00  0.00    +0.000 A 
ATOM     31  C   UNL     1       4.946   3.827  16.581  0.00  0.00    +0.000 A 
ENDBRANCH  25  26
ENDBRANCH   8  25
TORSDOF 4
ENDMDL
