MODEL 1
REMARK VINA RESULT:      -7.8      0.000      0.000
REMARK  Name = 
REMARK  6 active torsions:
REMARK  status: ('A' for Active; 'I' for Inactive)
REMARK    1  A    between atoms: C_1  and  C_2
REMARK    2  A    between atoms: C_6  and  C_7
REMARK    3  A    between atoms: N_9  and  C_10
REMARK    4  A    between atoms: C_13  and  N_14
REMARK    5  A    between atoms: C_15  and  C_17
REMARK    6  A    between atoms: C_17  and  C_18
REMARK                            x       y       z     vdW  Elec       q    Type
REMARK                         _______ _______ _______ _____ _____    ______ ____
ROOT
ATOM      1  C   UNL     1       0.853   8.919  20.118  0.00  0.00    +0.000 A 
ATOM      2  C   UNL     1       1.133   7.760  20.846  0.00  0.00    +0.000 A 
ATOM      3  C   UNL     1       2.058   6.821  20.386  0.00  0.00    +0.000 A 
ATOM      4  C   UNL     1       2.662   6.979  19.145  0.00  0.00    +0.000 A 
ATOM      5  C   UNL     1       2.348   8.099  18.370  0.00  0.00    +0.000 A 
ATOM      6  C   UNL     1       1.455   9.073  18.861  0.00  0.00    +0.000 A 
ENDROOT
BRANCH   1   9
ATOM      7  C   UNL     1       0.421  11.085  21.272  0.00  0.00    +0.000 C 
ATOM      8  O   UNL     1       1.594  11.372  21.485  0.00  0.00    +0.000 OA
ATOM      9  N   UNL     1      -0.005   9.943  20.598  0.00  0.00    +0.000 N 
ATOM     10  H   UNL     1      -0.974   9.886  20.319  0.00  0.00    +0.000 HD
BRANCH   7  16
ATOM     11  C   UNL     1      -0.645  14.160  20.148  0.00  0.00    +0.000 C 
ATOM     12  C   UNL     1      -1.013  13.256  21.251  0.00  0.00    +0.000 A 
ATOM     13  O   UNL     1      -2.036  13.709  22.031  0.00  0.00    +0.000 OA
ATOM     14  N   UNL     1      -2.323  12.786  23.015  0.00  0.00    +0.000 NA
ATOM     15  C   UNL     1      -1.467  11.788  22.811  0.00  0.00    +0.000 A 
ATOM     16  C   UNL     1      -0.598  12.023  21.713  0.00  0.00    +0.000 A 
ENDBRANCH   7  16
ENDBRANCH   1   9
BRANCH   4  17
ATOM     17  N   UNL     1       3.591   5.996  18.754  0.00  0.00    +0.000 N 
ATOM     18  C   UNL     1       3.258   4.858  18.043  0.00  0.00    +0.000 C 
ATOM     19  O   UNL     1       2.118   4.557  17.689  0.00  0.00    +0.000 OA
ATOM     20  H   UNL     1       4.431   5.923  19.317  0.00  0.00    +0.000 HD
BRANCH  18  21
ATOM     21  C   UNL     1       4.452   3.968  17.733  0.00  0.00    +0.000 C 
BRANCH  21  22
ATOM     22  C   UNL     1       5.284   4.359  16.528  0.00  0.00    +0.000 A 
ATOM     23  C   UNL     1       6.436   5.161  16.662  0.00  0.00    +0.000 A 
ATOM     24  C   UNL     1       7.259   5.439  15.562  0.00  0.00    +0.000 A 
ATOM     25  C   UNL     1       6.941   4.885  14.333  0.00  0.00    +0.000 A 
ATOM     26  C   UNL     1       5.823   4.065  14.192  0.00  0.00    +0.000 A 
ATOM     27  C   UNL     1       4.981   3.810  15.268  0.00  0.00    +0.000 A 
ATOM     28  C   UNL     1       5.697   3.546  12.795  0.00  0.00    +0.000 C 
ATOM     29  C   UNL     1       7.029   3.970  12.156  0.00  0.00    +0.000 C 
ATOM     30  C   UNL     1       7.644   5.074  13.027  0.00  0.00    +0.000 C 
ENDBRANCH  21  22
ENDBRANCH  18  21
ENDBRANCH   4  17
TORSDOF 5
ENDMDL
MODEL 2
REMARK VINA RESULT:      -7.8      1.222      1.522
REMARK  Name = 
REMARK  6 active torsions:
REMARK  status: ('A' for Active; 'I' for Inactive)
REMARK    1  A    between atoms: C_1  and  C_2
REMARK    2  A    between atoms: C_6  and  C_7
REMARK    3  A    between atoms: N_9  and  C_10
REMARK    4  A    between atoms: C_13  and  N_14
REMARK    5  A    between atoms: C_15  and  C_17
REMARK    6  A    between atoms: C_17  and  C_18
REMARK                            x       y       z     vdW  Elec       q    Type
REMARK                         _______ _______ _______ _____ _____    ______ ____
ROOT
ATOM      1  C   UNL     1       1.320   9.311  19.720  0.00  0.00    +0.000 A 
ATOM      2  C   UNL     1       1.817   9.307  18.415  0.00  0.00    +0.000 A 
ATOM      3  C   UNL     1       2.399   8.164  17.864  0.00  0.00    +0.000 A 
ATOM      4  C   UNL     1       2.572   7.022  18.637  0.00  0.00    +0.000 A 
ATOM      5  C   UNL     1       2.140   7.025  19.966  0.00  0.00    +0.000 A 
ATOM      6  C   UNL     1       1.504   8.162  20.502  0.00  0.00    +0.000 A 
ENDROOT
BRANCH   1   9
ATOM      7  C   UNL     1      -0.643  10.835  19.910  0.00  0.00    +0.000 C 
ATOM      8  O   UNL     1      -1.353  10.259  19.092  0.00  0.00    +0.000 OA
ATOM      9  N   UNL     1       0.634  10.420  20.281  0.00  0.00    +0.000 N 
ATOM     10  H   UNL     1       1.063  10.855  21.085  0.00  0.00    +0.000 HD
BRANCH   7  16
ATOM     11  C   UNL     1      -0.595  14.208  19.223  0.00  0.00    +0.000 C 
ATOM     12  C   UNL     1      -1.157  13.357  20.286  0.00  0.00    +0.000 A 
ATOM     13  O   UNL     1      -1.850  14.039  21.243  0.00  0.00    +0.000 OA
ATOM     14  N   UNL     1      -2.357  13.157  22.175  0.00  0.00    +0.000 NA
ATOM     15  C   UNL     1      -1.962  11.955  21.763  0.00  0.00    +0.000 A 
ATOM     16  C   UNL     1      -1.187  12.007  20.574  0.00  0.00    +0.000 A 
ENDBRANCH   7  16
ENDBRANCH   1   9
BRANCH   4  17
ATOM     17  N   UNL     1       3.157   5.906  18.009  0.00  0.00    +0.000 N 
ATOM     18  C   UNL     1       4.205   5.180  18.544  0.00  0.00    +0.000 C 
ATOM     19  O   UNL     1       4.762   5.431  19.613  0.00  0.00    +0.000 OA
ATOM     20  H   UNL     1       3.075   5.864  16.999  0.00  0.00    +0.000 HD
BRANCH  18  21
ATOM     21  C   UNL     1       4.638   4.010  17.673  0.00  0.00    +0.000 C 
BRANCH  21  22
ATOM     22  C   UNL     1       5.444   4.357  16.438  0.00  0.00    +0.000 A 
ATOM     23  C   UNL     1       6.652   5.078  16.529  0.00  0.00    +0.000 A 
ATOM     24  C   UNL     1       7.446   5.312  15.398  0.00  0.00    +0.000 A 
ATOM     25  C   UNL     1       7.040   4.793  14.179  0.00  0.00    +0.000 A 
ATOM     26  C   UNL     1       5.865   4.053  14.079  0.00  0.00    +0.000 A 
ATOM     27  C   UNL     1       5.053   3.843  15.188  0.00  0.00    +0.000 A 
ATOM     28  C   UNL     1       5.646   3.558  12.684  0.00  0.00    +0.000 C 
ATOM     29  C   UNL     1       6.976   3.897  11.993  0.00  0.00    +0.000 C 
ATOM     30  C   UNL     1       7.700   4.948  12.847  0.00  0.00    +0.000 C 
ENDBRANCH  21  22
ENDBRANCH  18  21
ENDBRANCH   4  17
TORSDOF 5
ENDMDL
MODEL 3
REMARK VINA RESULT:      -7.8      3.239     11.289
REMARK  Name = 
REMARK  6 active torsions:
REMARK  status: ('A' for Active; 'I' for Inactive)
REMARK    1  A    between atoms: C_1  and  C_2
REMARK    2  A    between atoms: C_6  and  C_7
REMARK    3  A    between atoms: N_9  and  C_10
REMARK    4  A    between atoms: C_13  and  N_14
REMARK    5  A    between atoms: C_15  and  C_17
REMARK    6  A    between atoms: C_17  and  C_18
REMARK                            x       y       z     vdW  Elec       q    Type
REMARK                         _______ _______ _______ _____ _____    ______ ____
ROOT
ATOM      1  C   UNL     1       2.085   7.617  19.669  0.00  0.00    +0.000 A 
ATOM      2  C   UNL     1       1.900   8.424  18.545  0.00  0.00    +0.000 A 
ATOM      3  C   UNL     1       1.127   9.586  18.606  0.00  0.00    +0.000 A 
ATOM      4  C   UNL     1       0.453   9.921  19.774  0.00  0.00    +0.000 A 
ATOM      5  C   UNL     1       0.573   9.092  20.893  0.00  0.00    +0.000 A 
ATOM      6  C   UNL     1       1.397   7.950  20.844  0.00  0.00    +0.000 A 
ENDROOT
BRANCH   1   9
ATOM      7  C   UNL     1       2.512   5.163  19.760  0.00  0.00    +0.000 C 
ATOM      8  O   UNL     1       1.337   4.813  19.791  0.00  0.00    +0.000 OA
ATOM      9  N   UNL     1       2.942   6.485  19.672  0.00  0.00    +0.000 N 
ATOM     10  H   UNL     1       3.918   6.658  19.475  0.00  0.00    +0.000 HD
BRANCH   7  16
ATOM     11  C   UNL     1       5.749   4.979  18.603  0.00  0.00    +0.000 C 
ATOM     12  C   UNL     1       4.826   4.068  19.299  0.00  0.00    +0.000 A 
ATOM     13  O   UNL     1       5.356   2.844  19.588  0.00  0.00    +0.000 OA
ATOM     14  N   UNL     1       4.429   2.076  20.259  0.00  0.00    +0.000 NA
ATOM     15  C   UNL     1       3.352   2.849  20.367  0.00  0.00    +0.000 A 
ATOM     16  C   UNL     1       3.529   4.126  19.771  0.00  0.00    +0.000 A 
ENDBRANCH   7  16
ENDBRANCH   1   9
BRANCH   4  17
ATOM     17  N   UNL     1      -0.297  11.112  19.762  0.00  0.00    +0.000 N 
ATOM     18  C   UNL     1      -1.552  11.228  19.192  0.00  0.00    +0.000 C 
ATOM     19  O   UNL     1      -2.149  10.321  18.611  0.00  0.00    +0.000 OA
ATOM     20  H   UNL     1       0.229  11.976  19.826  0.00  0.00    +0.000 HD
BRANCH  18  21
ATOM     21  C   UNL     1      -2.153  12.618  19.332  0.00  0.00    +0.000 C 
BRANCH  21  22
ATOM     22  C   UNL     1      -3.219  12.784  20.396  0.00  0.00    +0.000 A 
ATOM     23  C   UNL     1      -4.580  12.926  20.055  0.00  0.00    +0.000 A 
ATOM     24  C   UNL     1      -5.575  12.979  21.041  0.00  0.00    +0.000 A 
ATOM     25  C   UNL     1      -5.203  12.859  22.370  0.00  0.00    +0.000 A 
ATOM     26  C   UNL     1      -3.866  12.687  22.721  0.00  0.00    +0.000 A 
ATOM     27  C   UNL     1      -2.869  12.666  21.753  0.00  0.00    +0.000 A 
ATOM     28  C   UNL     1      -3.703  12.537  24.200  0.00  0.00    +0.000 C 
ATOM     29  C   UNL     1      -5.154  12.401  24.688  0.00  0.00    +0.000 C 
ATOM     30  C   UNL     1      -6.079  12.926  23.580  0.00  0.00    +0.000 C 
ENDBRANCH  21  22
ENDBRANCH  18  21
ENDBRANCH   4  17
TORSDOF 5
ENDMDL
MODEL 4
REMARK VINA RESULT:      -7.8      3.276     11.622
REMARK  Name = 
REMARK  6 active torsions:
REMARK  status: ('A' for Active; 'I' for Inactive)
REMARK    1  A    between atoms: C_1  and  C_2
REMARK    2  A    between atoms: C_6  and  C_7
REMARK    3  A    between atoms: N_9  and  C_10
REMARK    4  A    between atoms: C_13  and  N_14
REMARK    5  A    between atoms: C_15  and  C_17
REMARK    6  A    between atoms: C_17  and  C_18
REMARK                            x       y       z     vdW  Elec       q    Type
REMARK                         _______ _______ _______ _____ _____    ______ ____
ROOT
ATOM      1  C   UNL     1       1.727   8.031  20.122  0.00  0.00    +0.000 A 
ATOM      2  C   UNL     1       0.834   8.242  21.175  0.00  0.00    +0.000 A 
ATOM      3  C   UNL     1      -0.143   9.237  21.109  0.00  0.00    +0.000 A 
ATOM      4  C   UNL     1      -0.194  10.100  20.021  0.00  0.00    +0.000 A 
ATOM      5  C   UNL     1       0.732   9.949  18.985  0.00  0.00    +0.000 A 
ATOM      6  C   UNL     1       1.682   8.909  19.030  0.00  0.00    +0.000 A 
ENDROOT
BRANCH   1   9
ATOM      7  C   UNL     1       2.712   5.957  19.153  0.00  0.00    +0.000 C 
ATOM      8  O   UNL     1       1.976   5.892  18.173  0.00  0.00    +0.000 OA
ATOM      9  N   UNL     1       2.668   6.968  20.110  0.00  0.00    +0.000 N 
ATOM     10  H   UNL     1       3.424   7.028  20.776  0.00  0.00    +0.000 HD
BRANCH   7  16
ATOM     11  C   UNL     1       2.628   2.593  19.881  0.00  0.00    +0.000 C 
ATOM     12  C   UNL     1       3.680   3.585  19.601  0.00  0.00    +0.000 A 
ATOM     13  O   UNL     1       4.947   3.076  19.607  0.00  0.00    +0.000 OA
ATOM     14  N   UNL     1       5.854   4.071  19.310  0.00  0.00    +0.000 NA
ATOM     15  C   UNL     1       5.120   5.165  19.128  0.00  0.00    +0.000 A 
ATOM     16  C   UNL     1       3.731   4.932  19.306  0.00  0.00    +0.000 A 
ENDBRANCH   7  16
ENDBRANCH   1   9
BRANCH   4  17
ATOM     17  N   UNL     1      -1.213  11.072  20.021  0.00  0.00    +0.000 N 
ATOM     18  C   UNL     1      -1.080  12.331  20.577  0.00  0.00    +0.000 C 
ATOM     19  O   UNL     1      -0.073  12.743  21.154  0.00  0.00    +0.000 OA
ATOM     20  H   UNL     1      -2.164  10.726  19.960  0.00  0.00    +0.000 HD
BRANCH  18  21
ATOM     21  C   UNL     1      -2.323  13.193  20.425  0.00  0.00    +0.000 C 
BRANCH  21  22
ATOM     22  C   UNL     1      -3.417  12.980  21.452  0.00  0.00    +0.000 A 
ATOM     23  C   UNL     1      -3.158  13.093  22.834  0.00  0.00    +0.000 A 
ATOM     24  C   UNL     1      -4.189  12.993  23.777  0.00  0.00    +0.000 A 
ATOM     25  C   UNL     1      -5.488  12.811  23.329  0.00  0.00    +0.000 A 
ATOM     26  C   UNL     1      -5.763  12.729  21.966  0.00  0.00    +0.000 A 
ATOM     27  C   UNL     1      -4.744  12.793  21.024  0.00  0.00    +0.000 A 
ATOM     28  C   UNL     1      -7.230  12.576  21.712  0.00  0.00    +0.000 C 
ATOM     29  C   UNL     1      -7.840  12.816  23.102  0.00  0.00    +0.000 C 
ATOM     30  C   UNL     1      -6.728  12.640  24.146  0.00  0.00    +0.000 C 
ENDBRANCH  21  22
ENDBRANCH  18  21
ENDBRANCH   4  17
TORSDOF 5
ENDMDL
MODEL 5
REMARK VINA RESULT:      -7.7      3.460     11.183
REMARK  Name = 
REMARK  6 active torsions:
REMARK  status: ('A' for Active; 'I' for Inactive)
REMARK    1  A    between atoms: C_1  and  C_2
REMARK    2  A    between atoms: C_6  and  C_7
REMARK    3  A    between atoms: N_9  and  C_10
REMARK    4  A    between atoms: C_13  and  N_14
REMARK    5  A    between atoms: C_15  and  C_17
REMARK    6  A    between atoms: C_17  and  C_18
REMARK                            x       y       z     vdW  Elec       q    Type
REMARK                         _______ _______ _______ _____ _____    ______ ____
ROOT
ATOM      1  C   UNL     1       2.082   7.725  19.599  0.00  0.00    +0.000 A 
ATOM      2  C   UNL     1       1.313   8.263  20.633  0.00  0.00    +0.000 A 
ATOM      3  C   UNL     1       0.462   9.348  20.415  0.00  0.00    +0.000 A 
ATOM      4  C   UNL     1       0.425   9.973  19.175  0.00  0.00    +0.000 A 
ATOM      5  C   UNL     1       1.235   9.492  18.143  0.00  0.00    +0.000 A 
ATOM      6  C   UNL     1       2.052   8.363  18.351  0.00  0.00    +0.000 A 
ENDROOT
BRANCH   1   9
ATOM      7  C   UNL     1       2.651   5.346  19.121  0.00  0.00    +0.000 C 
ATOM      8  O   UNL     1       1.758   5.146  18.304  0.00  0.00    +0.000 OA
ATOM      9  N   UNL     1       2.883   6.563  19.757  0.00  0.00    +0.000 N 
ATOM     10  H   UNL     1       3.743   6.676  20.274  0.00  0.00    +0.000 HD
BRANCH   7  16
ATOM     11  C   UNL     1       6.053   4.918  18.813  0.00  0.00    +0.000 C 
ATOM     12  C   UNL     1       4.926   4.095  19.283  0.00  0.00    +0.000 A 
ATOM     13  O   UNL     1       5.283   2.857  19.730  0.00  0.00    +0.000 OA
ATOM     14  N   UNL     1       4.168   2.176  20.171  0.00  0.00    +0.000 NA
ATOM     15  C   UNL     1       3.154   3.016  19.984  0.00  0.00    +0.000 A 
ATOM     16  C   UNL     1       3.560   4.252  19.414  0.00  0.00    +0.000 A 
ENDBRANCH   7  16
ENDBRANCH   1   9
BRANCH   4  17
ATOM     17  N   UNL     1      -0.466  11.055  19.029  0.00  0.00    +0.000 N 
ATOM     18  C   UNL     1      -1.771  10.925  18.592  0.00  0.00    +0.000 C 
ATOM     19  O   UNL     1      -2.302   9.865  18.260  0.00  0.00    +0.000 OA
ATOM     20  H   UNL     1      -0.046  11.964  18.872  0.00  0.00    +0.000 HD
BRANCH  18  21
ATOM     21  C   UNL     1      -2.524  12.246  18.540  0.00  0.00    +0.000 C 
BRANCH  21  22
ATOM     22  C   UNL     1      -3.704  12.382  19.481  0.00  0.00    +0.000 A 
ATOM     23  C   UNL     1      -4.997  11.966  19.102  0.00  0.00    +0.000 A 
ATOM     24  C   UNL     1      -6.067  12.001  20.007  0.00  0.00    +0.000 A 
ATOM     25  C   UNL     1      -5.829  12.427  21.304  0.00  0.00    +0.000 A 
ATOM     26  C   UNL     1      -4.551  12.812  21.702  0.00  0.00    +0.000 A 
ATOM     27  C   UNL     1      -3.491  12.813  20.804  0.00  0.00    +0.000 A 
ATOM     28  C   UNL     1      -4.519  13.191  23.148  0.00  0.00    +0.000 C 
ATOM     29  C   UNL     1      -5.908  12.755  23.643  0.00  0.00    +0.000 C 
ATOM     30  C   UNL     1      -6.815  12.582  22.417  0.00  0.00    +0.000 C 
ENDBRANCH  21  22
ENDBRANCH  18  21
ENDBRANCH   4  17
TORSDOF 5
ENDMDL
MODEL 6
REMARK VINA RESULT:      -7.7      1.351      1.892
REMARK  Name = 
REMARK  6 active torsions:
REMARK  status: ('A' for Active; 'I' for Inactive)
REMARK    1  A    between atoms: C_1  and  C_2
REMARK    2  A    between atoms: C_6  and  C_7
REMARK    3  A    between atoms: N_9  and  C_10
REMARK    4  A    between atoms: C_13  and  N_14
REMARK    5  A    between atoms: C_15  and  C_17
REMARK    6  A    between atoms: C_17  and  C_18
REMARK                            x       y       z     vdW  Elec       q    Type
REMARK                         _______ _______ _______ _____ _____    ______ ____
ROOT
ATOM      1  C   UNL     1       0.342   9.530  20.082  0.00  0.00    +0.000 A 
ATOM      2  C   UNL     1       1.152   9.353  18.958  0.00  0.00    +0.000 A 
ATOM      3  C   UNL     1       2.034   8.275  18.864  0.00  0.00    +0.000 A 
ATOM      4  C   UNL     1       2.187   7.397  19.930  0.00  0.00    +0.000 A 
ATOM      5  C   UNL     1       1.433   7.593  21.090  0.00  0.00    +0.000 A 
ATOM      6  C   UNL     1       0.504   8.650  21.161  0.00  0.00    +0.000 A 
ENDROOT
BRANCH   1   9
ATOM      7  C   UNL     1      -0.515  11.704  20.951  0.00  0.00    +0.000 C 
ATOM      8  O   UNL     1       0.477  11.997  21.611  0.00  0.00    +0.000 OA
ATOM      9  N   UNL     1      -0.637  10.555  20.173  0.00  0.00    +0.000 N 
ATOM     10  H   UNL     1      -1.415  10.492  19.532  0.00  0.00    +0.000 HD
BRANCH   7  16
ATOM     11  C   UNL     1      -3.453  11.910  19.169  0.00  0.00    +0.000 C 
ATOM     12  C   UNL     1      -2.799  12.710  20.218  0.00  0.00    +0.000 A 
ATOM     13  O   UNL     1      -3.513  13.802  20.619  0.00  0.00    +0.000 OA
ATOM     14  N   UNL     1      -2.832  14.468  21.616  0.00  0.00    +0.000 NA
ATOM     15  C   UNL     1      -1.718  13.766  21.803  0.00  0.00    +0.000 A 
ATOM     16  C   UNL     1      -1.625  12.641  20.942  0.00  0.00    +0.000 A 
ENDBRANCH   7  16
ENDBRANCH   1   9
BRANCH   4  17
ATOM     17  N   UNL     1       3.088   6.329  19.757  0.00  0.00    +0.000 N 
ATOM     18  C   UNL     1       2.710   5.054  19.379  0.00  0.00    +0.000 C 
ATOM     19  O   UNL     1       1.551   4.694  19.172  0.00  0.00    +0.000 OA
ATOM     20  H   UNL     1       3.957   6.385  20.276  0.00  0.00    +0.000 HD
BRANCH  18  21
ATOM     21  C   UNL     1       3.880   4.091  19.246  0.00  0.00    +0.000 C 
BRANCH  21  22
ATOM     22  C   UNL     1       4.838   4.354  18.101  0.00  0.00    +0.000 A 
ATOM     23  C   UNL     1       6.188   4.685  18.336  0.00  0.00    +0.000 A 
ATOM     24  C   UNL     1       7.096   4.831  17.278  0.00  0.00    +0.000 A 
ATOM     25  C   UNL     1       6.652   4.612  15.984  0.00  0.00    +0.000 A 
ATOM     26  C   UNL     1       5.328   4.254  15.738  0.00  0.00    +0.000 A 
ATOM     27  C   UNL     1       4.412   4.140  16.777  0.00  0.00    +0.000 A 
ATOM     28  C   UNL     1       5.084   4.028  14.280  0.00  0.00    +0.000 C 
ATOM     29  C   UNL     1       6.502   4.065  13.690  0.00  0.00    +0.000 C 
ATOM     30  C   UNL     1       7.424   4.747  14.710  0.00  0.00    +0.000 C 
ENDBRANCH  21  22
ENDBRANCH  18  21
ENDBRANCH   4  17
TORSDOF 5
ENDMDL
MODEL 7
REMARK VINA RESULT:      -7.7      1.277      1.885
REMARK  Name = 
REMARK  6 active torsions:
REMARK  status: ('A' for Active; 'I' for Inactive)
REMARK    1  A    between atoms: C_1  and  C_2
REMARK    2  A    between atoms: C_6  and  C_7
REMARK    3  A    between atoms: N_9  and  C_10
REMARK    4  A    between atoms: C_13  and  N_14
REMARK    5  A    between atoms: C_15  and  C_17
REMARK    6  A    between atoms: C_17  and  C_18
REMARK                            x       y       z     vdW  Elec       q    Type
REMARK                         _______ _______ _______ _____ _____    ______ ____
ROOT
ATOM      1  C   UNL     1       0.452   9.671  19.989  0.00  0.00    +0.000 A 
ATOM      2  C   UNL     1       1.227   9.433  18.852  0.00  0.00    +0.000 A 
ATOM      3  C   UNL     1       2.052   8.311  18.759  0.00  0.00    +0.000 A 
ATOM      4  C   UNL     1       2.185   7.446  19.838  0.00  0.00    +0.000 A 
ATOM      5  C   UNL     1       1.468   7.701  21.011  0.00  0.00    +0.000 A 
ATOM      6  C   UNL     1       0.594   8.804  21.081  0.00  0.00    +0.000 A 
ENDROOT
BRANCH   1   9
ATOM      7  C   UNL     1      -0.254  11.924  20.790  0.00  0.00    +0.000 C 
ATOM      8  O   UNL     1       0.786  12.200  21.379  0.00  0.00    +0.000 OA
ATOM      9  N   UNL     1      -0.473  10.745  20.080  0.00  0.00    +0.000 N 
ATOM     10  H   UNL     1      -1.289  10.689  19.488  0.00  0.00    +0.000 HD
BRANCH   7  16
ATOM     11  C   UNL     1      -0.323  15.364  20.918  0.00  0.00    +0.000 C 
ATOM     12  C   UNL     1      -1.331  14.291  20.848  0.00  0.00    +0.000 A 
ATOM     13  O   UNL     1      -2.620  14.734  20.806  0.00  0.00    +0.000 OA
ATOM     14  N   UNL     1      -3.483  13.662  20.716  0.00  0.00    +0.000 NA
ATOM     15  C   UNL     1      -2.699  12.588  20.704  0.00  0.00    +0.000 A 
ATOM     16  C   UNL     1      -1.320  12.912  20.795  0.00  0.00    +0.000 A 
ENDBRANCH   7  16
ENDBRANCH   1   9
BRANCH   4  17
ATOM     17  N   UNL     1       3.028   6.331  19.667  0.00  0.00    +0.000 N 
ATOM     18  C   UNL     1       2.575   5.028  19.574  0.00  0.00    +0.000 C 
ATOM     19  O   UNL     1       1.395   4.685  19.653  0.00  0.00    +0.000 OA
ATOM     20  H   UNL     1       3.981   6.434  19.995  0.00  0.00    +0.000 HD
BRANCH  18  21
ATOM     21  C   UNL     1       3.690   4.013  19.373  0.00  0.00    +0.000 C 
BRANCH  21  22
ATOM     22  C   UNL     1       4.697   4.330  18.287  0.00  0.00    +0.000 A 
ATOM     23  C   UNL     1       6.048   4.595  18.594  0.00  0.00    +0.000 A 
ATOM     24  C   UNL     1       6.998   4.791  17.582  0.00  0.00    +0.000 A 
ATOM     25  C   UNL     1       6.596   4.689  16.261  0.00  0.00    +0.000 A 
ATOM     26  C   UNL     1       5.272   4.397  15.942  0.00  0.00    +0.000 A 
ATOM     27  C   UNL     1       4.315   4.235  16.936  0.00  0.00    +0.000 A 
ATOM     28  C   UNL     1       5.074   4.294  14.463  0.00  0.00    +0.000 C 
ATOM     29  C   UNL     1       6.515   4.327  13.927  0.00  0.00    +0.000 C 
ATOM     30  C   UNL     1       7.419   4.895  15.029  0.00  0.00    +0.000 C 
ENDBRANCH  21  22
ENDBRANCH  18  21
ENDBRANCH   4  17
TORSDOF 5
ENDMDL
MODEL 8
REMARK VINA RESULT:      -7.7      7.487      8.831
REMARK  Name = 
REMARK  6 active torsions:
REMARK  status: ('A' for Active; 'I' for Inactive)
REMARK    1  A    between atoms: C_1  and  C_2
REMARK    2  A    between atoms: C_6  and  C_7
REMARK    3  A    between atoms: N_9  and  C_10
REMARK    4  A    between atoms: C_13  and  N_14
REMARK    5  A    between atoms: C_15  and  C_17
REMARK    6  A    between atoms: C_17  and  C_18
REMARK                            x       y       z     vdW  Elec       q    Type
REMARK                         _______ _______ _______ _____ _____    ______ ____
ROOT
ATOM      1  C   UNL     1       9.365  12.381  18.733  0.00  0.00    +0.000 A 
ATOM      2  C   UNL     1       8.705  11.678  17.723  0.00  0.00    +0.000 A 
ATOM      3  C   UNL     1       8.452  10.310  17.838  0.00  0.00    +0.000 A 
ATOM      4  C   UNL     1       8.929   9.597  18.931  0.00  0.00    +0.000 A 
ATOM      5  C   UNL     1       9.648  10.268  19.923  0.00  0.00    +0.000 A 
ATOM      6  C   UNL     1       9.855  11.659  19.831  0.00  0.00    +0.000 A 
ENDROOT
BRANCH   1   9
ATOM      7  C   UNL     1      10.568  14.437  18.000  0.00  0.00    +0.000 C 
ATOM      8  O   UNL     1      11.393  13.875  17.287  0.00  0.00    +0.000 OA
ATOM      9  N   UNL     1       9.552  13.788  18.698  0.00  0.00    +0.000 N 
ATOM     10  H   UNL     1       8.822  14.350  19.111  0.00  0.00    +0.000 HD
BRANCH   7  16
ATOM     11  C   UNL     1      11.004  16.654  20.598  0.00  0.00    +0.000 C 
ATOM     12  C   UNL     1      10.798  16.762  19.143  0.00  0.00    +0.000 A 
ATOM     13  O   UNL     1      10.789  18.042  18.671  0.00  0.00    +0.000 OA
ATOM     14  N   UNL     1      10.617  18.038  17.303  0.00  0.00    +0.000 NA
ATOM     15  C   UNL     1      10.527  16.753  16.970  0.00  0.00    +0.000 A 
ATOM     16  C   UNL     1      10.624  15.886  18.090  0.00  0.00    +0.000 A 
ENDBRANCH   7  16
ENDBRANCH   1   9
BRANCH   4  17
ATOM     17  N   UNL     1       8.626   8.222  18.982  0.00  0.00    +0.000 N 
ATOM     18  C   UNL     1       7.880   7.561  18.024  0.00  0.00    +0.000 C 
ATOM     19  O   UNL     1       7.377   8.090  17.033  0.00  0.00    +0.000 OA
ATOM     20  H   UNL     1       8.621   7.798  19.902  0.00  0.00    +0.000 HD
BRANCH  18  21
ATOM     21  C   UNL     1       7.714   6.075  18.308  0.00  0.00    +0.000 C 
BRANCH  21  22
ATOM     22  C   UNL     1       6.401   5.453  17.877  0.00  0.00    +0.000 A 
ATOM     23  C   UNL     1       6.336   4.553  16.795  0.00  0.00    +0.000 A 
ATOM     24  C   UNL     1       5.140   3.903  16.460  0.00  0.00    +0.000 A 
ATOM     25  C   UNL     1       4.015   4.136  17.235  0.00  0.00    +0.000 A 
ATOM     26  C   UNL     1       4.072   4.999  18.327  0.00  0.00    +0.000 A 
ATOM     27  C   UNL     1       5.244   5.674  18.647  0.00  0.00    +0.000 A 
ATOM     28  C   UNL     1       2.759   5.066  19.041  0.00  0.00    +0.000 C 
ATOM     29  C   UNL     1       1.954   3.938  18.375  0.00  0.00    +0.000 C 
ATOM     30  C   UNL     1       2.636   3.590  17.045  0.00  0.00    +0.000 C 
ENDBRANCH  21  22
ENDBRANCH  18  21
ENDBRANCH   4  17
TORSDOF 5
ENDMDL
MODEL 9
REMARK VINA RESULT:      -7.7      1.143      1.431
REMARK  Name = 
REMARK  6 active torsions:
REMARK  status: ('A' for Active; 'I' for Inactive)
REMARK    1  A    between atoms: C_1  and  C_2
REMARK    2  A    between atoms: C_6  and  C_7
REMARK    3  A    between atoms: N_9  and  C_10
REMARK    4  A    between atoms: C_13  and  N_14
REMARK    5  A    between atoms: C_15  and  C_17
REMARK    6  A    between atoms: C_17  and  C_18
REMARK                            x       y       z     vdW  Elec       q    Type
REMARK                         _______ _______ _______ _____ _____    ______ ____
ROOT
ATOM      1  C   UNL     1       0.205   9.569  20.452  0.00  0.00    +0.000 A 
ATOM      2  C   UNL     1       0.355   8.509  21.349  0.00  0.00    +0.000 A 
ATOM      3  C   UNL     1       1.308   7.511  21.138  0.00  0.00    +0.000 A 
ATOM      4  C   UNL     1       2.075   7.505  19.979  0.00  0.00    +0.000 A 
ATOM      5  C   UNL     1       1.895   8.522  19.036  0.00  0.00    +0.000 A 
ATOM      6  C   UNL     1       0.971   9.557  19.278  0.00  0.00    +0.000 A 
ENDROOT
BRANCH   1   9
ATOM      7  C   UNL     1      -0.828  11.317  21.899  0.00  0.00    +0.000 C 
ATOM      8  O   UNL     1      -0.169  11.079  22.905  0.00  0.00    +0.000 OA
ATOM      9  N   UNL     1      -0.682  10.654  20.682  0.00  0.00    +0.000 N 
ATOM     10  H   UNL     1      -1.144  11.038  19.871  0.00  0.00    +0.000 HD
BRANCH   7  16
ATOM     11  C   UNL     1      -1.098  14.386  20.364  0.00  0.00    +0.000 C 
ATOM     12  C   UNL     1      -1.893  13.623  21.341  0.00  0.00    +0.000 A 
ATOM     13  O   UNL     1      -3.034  14.250  21.748  0.00  0.00    +0.000 OA
ATOM     14  N   UNL     1      -3.719  13.450  22.637  0.00  0.00    +0.000 NA
ATOM     15  C   UNL     1      -2.980  12.350  22.752  0.00  0.00    +0.000 A 
ATOM     16  C   UNL     1      -1.800  12.394  21.963  0.00  0.00    +0.000 A 
ENDBRANCH   7  16
ENDBRANCH   1   9
BRANCH   4  17
ATOM     17  N   UNL     1       3.022   6.472  19.841  0.00  0.00    +0.000 N 
ATOM     18  C   UNL     1       2.744   5.241  19.276  0.00  0.00    +0.000 C 
ATOM     19  O   UNL     1       1.642   4.894  18.850  0.00  0.00    +0.000 OA
ATOM     20  H   UNL     1       3.795   6.482  20.496  0.00  0.00    +0.000 HD
BRANCH  18  21
ATOM     21  C   UNL     1       3.947   4.312  19.231  0.00  0.00    +0.000 C 
BRANCH  21  22
ATOM     22  C   UNL     1       4.908   4.513  18.077  0.00  0.00    +0.000 A 
ATOM     23  C   UNL     1       6.285   4.717  18.297  0.00  0.00    +0.000 A 
ATOM     24  C   UNL     1       7.187   4.804  17.226  0.00  0.00    +0.000 A 
ATOM     25  C   UNL     1       6.706   4.655  15.936  0.00  0.00    +0.000 A 
ATOM     26  C   UNL     1       5.353   4.422  15.705  0.00  0.00    +0.000 A 
ATOM     27  C   UNL     1       4.445   4.367  16.756  0.00  0.00    +0.000 A 
ATOM     28  C   UNL     1       5.067   4.252  14.246  0.00  0.00    +0.000 C 
ATOM     29  C   UNL     1       6.475   4.174  13.633  0.00  0.00    +0.000 C 
ATOM     30  C   UNL     1       7.469   4.749  14.653  0.00  0.00    +0.000 C 
ENDBRANCH  21  22
ENDBRANCH  18  21
ENDBRANCH   4  17
TORSDOF 5
ENDMDL
