MODEL 1
REMARK VINA RESULT:      -9.1      0.000      0.000
REMARK  Name = 
REMARK  5 active torsions:
REMARK  status: ('A' for Active; 'I' for Inactive)
REMARK    1  A    between atoms: C_1  and  C_2
REMARK    2  A    between atoms: C_6  and  C_7
REMARK    3  A    between atoms: C_11  and  C_12
REMARK    4  A    between atoms: C_12  and  N_13
REMARK    5  A    between atoms: N_13  and  C_14
REMARK                            x       y       z     vdW  Elec       q    Type
REMARK                         _______ _______ _______ _____ _____    ______ ____
ROOT
ATOM      1  C   UNL     1       2.255   4.912  19.730  0.00  0.00    +0.000 C 
ENDROOT
BRANCH   1   6
ATOM      2  C   UNL     1       4.436   3.769  18.878  0.00  0.00    +0.000 A 
ATOM      3  N   UNL     1       5.127   2.673  19.339  0.00  0.00    +0.000 N 
ATOM      4  N   UNL     1       4.583   2.082  20.410  0.00  0.00    +0.000 NA
ATOM      5  C   UNL     1       3.514   2.832  20.667  0.00  0.00    +0.000 A 
ATOM      6  C   UNL     1       3.358   3.903  19.751  0.00  0.00    +0.000 A 
ATOM      7  H   UNL     1       5.988   2.288  18.969  0.00  0.00    +0.000 HD
BRANCH   2  13
ATOM      8  C   UNL     1       5.573   4.036  14.009  0.00  0.00    +0.000 C 
ATOM      9  C   UNL     1       5.436   4.710  15.343  0.00  0.00    +0.000 A 
ATOM     10  C   UNL     1       5.640   6.085  15.482  0.00  0.00    +0.000 A 
ATOM     11  C   UNL     1       5.504   6.689  16.730  0.00  0.00    +0.000 A 
ATOM     12  C   UNL     1       5.151   5.924  17.846  0.00  0.00    +0.000 A 
ATOM     13  C   UNL     1       4.909   4.548  17.728  0.00  0.00    +0.000 A 
ATOM     14  C   UNL     1       5.067   3.955  16.468  0.00  0.00    +0.000 A 
ENDBRANCH   2  13
ENDBRANCH   1   6
BRANCH   1  15
ATOM     15  N   UNL     1       2.496   6.219  20.331  0.00  0.00    +0.000 N 
ATOM     16  H   UNL     1       3.356   6.265  20.869  0.00  0.00    +0.000 HD
BRANCH  15  17
ATOM     17  C   UNL     1       2.110   7.422  19.756  0.00  0.00    +0.000 A 
ATOM     18  C   UNL     1       2.295   7.750  18.407  0.00  0.00    +0.000 A 
ATOM     19  C   UNL     1       1.794   8.944  17.868  0.00  0.00    +0.000 A 
ATOM     20  C   UNL     1       1.071   9.815  18.675  0.00  0.00    +0.000 A 
ATOM     21  C   UNL     1       0.846   9.499  20.012  0.00  0.00    +0.000 A 
ATOM     22  C   UNL     1       1.363   8.315  20.541  0.00  0.00    +0.000 A 
ATOM     23  O   UNL     1       0.170  10.309  20.882  0.00  0.00    +0.000 OA
ATOM     24  C   UNL     1      -0.612  11.315  20.254  0.00  0.00    +0.000 C 
ATOM     25  C   UNL     1      -0.187  11.859  18.891  0.00  0.00    +0.000 C 
ATOM     26  O   UNL     1      -0.568  12.939  18.448  0.00  0.00    +0.000 OA
ATOM     27  N   UNL     1       0.592  11.014  18.149  0.00  0.00    +0.000 N 
ATOM     28  H   UNL     1       0.829  11.309  17.211  0.00  0.00    +0.000 HD
ENDBRANCH  15  17
ENDBRANCH   1  15
TORSDOF 4
ENDMDL
MODEL 2
REMARK VINA RESULT:      -9.1      0.640      1.473
REMARK  Name = 
REMARK  5 active torsions:
REMARK  status: ('A' for Active; 'I' for Inactive)
REMARK    1  A    between atoms: C_1  and  C_2
REMARK    2  A    between atoms: C_6  and  C_7
REMARK    3  A    between atoms: C_11  and  C_12
REMARK    4  A    between atoms: C_12  and  N_13
REMARK    5  A    between atoms: N_13  and  C_14
REMARK                            x       y       z     vdW  Elec       q    Type
REMARK                         _______ _______ _______ _____ _____    ______ ____
ROOT
ATOM      1  C   UNL     1       2.399   4.869  19.669  0.00  0.00    +0.000 C 
ENDROOT
BRANCH   1   6
ATOM      2  C   UNL     1       4.619   3.667  19.024  0.00  0.00    +0.000 A 
ATOM      3  N   UNL     1       5.224   2.540  19.532  0.00  0.00    +0.000 N 
ATOM      4  N   UNL     1       4.552   1.951  20.529  0.00  0.00    +0.000 NA
ATOM      5  C   UNL     1       3.487   2.732  20.690  0.00  0.00    +0.000 A 
ATOM      6  C   UNL     1       3.461   3.823  19.784  0.00  0.00    +0.000 A 
ATOM      7  H   UNL     1       6.105   2.132  19.246  0.00  0.00    +0.000 HD
BRANCH   2  13
ATOM      8  C   UNL     1       7.541   7.457  17.549  0.00  0.00    +0.000 C 
ATOM      9  C   UNL     1       6.685   6.274  17.202  0.00  0.00    +0.000 A 
ATOM     10  C   UNL     1       6.556   5.838  15.881  0.00  0.00    +0.000 A 
ATOM     11  C   UNL     1       5.760   4.735  15.583  0.00  0.00    +0.000 A 
ATOM     12  C   UNL     1       5.095   4.051  16.606  0.00  0.00    +0.000 A 
ATOM     13  C   UNL     1       5.233   4.448  17.944  0.00  0.00    +0.000 A 
ATOM     14  C   UNL     1       6.025   5.571  18.222  0.00  0.00    +0.000 A 
ENDBRANCH   2  13
ENDBRANCH   1   6
BRANCH   1  15
ATOM     15  N   UNL     1       2.645   6.178  20.263  0.00  0.00    +0.000 N 
ATOM     16  H   UNL     1       3.511   6.227  20.790  0.00  0.00    +0.000 HD
BRANCH  15  17
ATOM     17  C   UNL     1       2.250   7.379  19.688  0.00  0.00    +0.000 A 
ATOM     18  C   UNL     1       2.505   7.742  18.359  0.00  0.00    +0.000 A 
ATOM     19  C   UNL     1       1.994   8.928  17.814  0.00  0.00    +0.000 A 
ATOM     20  C   UNL     1       1.191   9.755  18.591  0.00  0.00    +0.000 A 
ATOM     21  C   UNL     1       0.897   9.403  19.905  0.00  0.00    +0.000 A 
ATOM     22  C   UNL     1       1.424   8.227  20.443  0.00  0.00    +0.000 A 
ATOM     23  O   UNL     1       0.140  10.170  20.747  0.00  0.00    +0.000 OA
ATOM     24  C   UNL     1      -0.640  11.160  20.092  0.00  0.00    +0.000 C 
ATOM     25  C   UNL     1      -0.153  11.748  18.768  0.00  0.00    +0.000 C 
ATOM     26  O   UNL     1      -0.546  12.823  18.324  0.00  0.00    +0.000 OA
ATOM     27  N   UNL     1       0.701  10.948  18.059  0.00  0.00    +0.000 N 
ATOM     28  H   UNL     1       0.984  11.271  17.144  0.00  0.00    +0.000 HD
ENDBRANCH  15  17
ENDBRANCH   1  15
TORSDOF 4
ENDMDL
MODEL 3
REMARK VINA RESULT:      -9.0      2.009      3.774
REMARK  Name = 
REMARK  5 active torsions:
REMARK  status: ('A' for Active; 'I' for Inactive)
REMARK    1  A    between atoms: C_1  and  C_2
REMARK    2  A    between atoms: C_6  and  C_7
REMARK    3  A    between atoms: C_11  and  C_12
REMARK    4  A    between atoms: C_12  and  N_13
REMARK    5  A    between atoms: N_13  and  C_14
REMARK                            x       y       z     vdW  Elec       q    Type
REMARK                         _______ _______ _______ _____ _____    ______ ____
ROOT
ATOM      1  C   UNL     1       4.214   6.740  17.484  0.00  0.00    +0.000 C 
ENDROOT
BRANCH   1   6
ATOM      2  C   UNL     1       5.103   4.481  18.434  0.00  0.00    +0.000 A 
ATOM      3  N   UNL     1       6.382   4.042  18.685  0.00  0.00    +0.000 N 
ATOM      4  N   UNL     1       7.341   4.930  18.398  0.00  0.00    +0.000 NA
ATOM      5  C   UNL     1       6.666   5.974  17.925  0.00  0.00    +0.000 A 
ATOM      6  C   UNL     1       5.263   5.767  17.919  0.00  0.00    +0.000 A 
ATOM      7  H   UNL     1       6.663   3.136  19.041  0.00  0.00    +0.000 HD
BRANCH   2  13
ATOM      8  C   UNL     1       1.535   2.780  21.508  0.00  0.00    +0.000 C 
ATOM      9  C   UNL     1       2.162   2.806  20.145  0.00  0.00    +0.000 A 
ATOM     10  C   UNL     1       1.587   2.121  19.072  0.00  0.00    +0.000 A 
ATOM     11  C   UNL     1       2.184   2.163  17.815  0.00  0.00    +0.000 A 
ATOM     12  C   UNL     1       3.355   2.901  17.617  0.00  0.00    +0.000 A 
ATOM     13  C   UNL     1       3.935   3.625  18.669  0.00  0.00    +0.000 A 
ATOM     14  C   UNL     1       3.329   3.556  19.931  0.00  0.00    +0.000 A 
ENDBRANCH   2  13
ENDBRANCH   1   6
BRANCH   1  15
ATOM     15  N   UNL     1       2.910   6.694  18.138  0.00  0.00    +0.000 N 
ATOM     16  H   UNL     1       2.725   5.815  18.609  0.00  0.00    +0.000 HD
BRANCH  15  17
ATOM     17  C   UNL     1       2.285   7.797  18.704  0.00  0.00    +0.000 A 
ATOM     18  C   UNL     1       1.837   8.910  17.981  0.00  0.00    +0.000 A 
ATOM     19  C   UNL     1       1.126   9.947  18.602  0.00  0.00    +0.000 A 
ATOM     20  C   UNL     1       0.829   9.865  19.957  0.00  0.00    +0.000 A 
ATOM     21  C   UNL     1       1.236   8.756  20.693  0.00  0.00    +0.000 A 
ATOM     22  C   UNL     1       1.956   7.736  20.068  0.00  0.00    +0.000 A 
ATOM     23  O   UNL     1       1.010   8.607  22.033  0.00  0.00    +0.000 OA
ATOM     24  C   UNL     1       0.012   9.471  22.556  0.00  0.00    +0.000 C 
ATOM     25  C   UNL     1      -0.233  10.827  21.896  0.00  0.00    +0.000 C 
ATOM     26  O   UNL     1      -0.792  11.762  22.464  0.00  0.00    +0.000 OA
ATOM     27  N   UNL     1       0.143  10.907  20.583  0.00  0.00    +0.000 N 
ATOM     28  H   UNL     1      -0.073  11.764  20.091  0.00  0.00    +0.000 HD
ENDBRANCH  15  17
ENDBRANCH   1  15
TORSDOF 4
ENDMDL
MODEL 4
REMARK VINA RESULT:      -8.9      1.131      1.720
REMARK  Name = 
REMARK  5 active torsions:
REMARK  status: ('A' for Active; 'I' for Inactive)
REMARK    1  A    between atoms: C_1  and  C_2
REMARK    2  A    between atoms: C_6  and  C_7
REMARK    3  A    between atoms: C_11  and  C_12
REMARK    4  A    between atoms: C_12  and  N_13
REMARK    5  A    between atoms: N_13  and  C_14
REMARK                            x       y       z     vdW  Elec       q    Type
REMARK                         _______ _______ _______ _____ _____    ______ ____
ROOT
ATOM      1  C   UNL     1       2.122   4.740  19.991  0.00  0.00    +0.000 C 
ENDROOT
BRANCH   1   6
ATOM      2  C   UNL     1       3.894   3.607  18.452  0.00  0.00    +0.000 A 
ATOM      3  N   UNL     1       4.093   2.290  18.112  0.00  0.00    +0.000 N 
ATOM      4  N   UNL     1       3.220   1.436  18.662  0.00  0.00    +0.000 NA
ATOM      5  C   UNL     1       2.441   2.222  19.400  0.00  0.00    +0.000 A 
ATOM      6  C   UNL     1       2.802   3.591  19.318  0.00  0.00    +0.000 A 
ATOM      7  H   UNL     1       4.819   1.910  17.517  0.00  0.00    +0.000 HD
BRANCH   2  13
ATOM      8  C   UNL     1       8.036   6.375  18.953  0.00  0.00    +0.000 C 
ATOM      9  C   UNL     1       6.813   6.011  18.164  0.00  0.00    +0.000 A 
ATOM     10  C   UNL     1       6.562   6.585  16.916  0.00  0.00    +0.000 A 
ATOM     11  C   UNL     1       5.422   6.229  16.199  0.00  0.00    +0.000 A 
ATOM     12  C   UNL     1       4.530   5.286  16.721  0.00  0.00    +0.000 A 
ATOM     13  C   UNL     1       4.775   4.671  17.957  0.00  0.00    +0.000 A 
ATOM     14  C   UNL     1       5.919   5.055  18.671  0.00  0.00    +0.000 A 
ENDBRANCH   2  13
ENDBRANCH   1   6
BRANCH   1  15
ATOM     15  N   UNL     1       2.842   6.004  20.104  0.00  0.00    +0.000 N 
ATOM     16  H   UNL     1       3.851   5.898  20.088  0.00  0.00    +0.000 HD
BRANCH  15  17
ATOM     17  C   UNL     1       2.379   7.210  19.596  0.00  0.00    +0.000 A 
ATOM     18  C   UNL     1       2.518   7.611  18.261  0.00  0.00    +0.000 A 
ATOM     19  C   UNL     1       1.942   8.800  17.791  0.00  0.00    +0.000 A 
ATOM     20  C   UNL     1       1.190   9.591  18.652  0.00  0.00    +0.000 A 
ATOM     21  C   UNL     1       1.010   9.200  19.976  0.00  0.00    +0.000 A 
ATOM     22  C   UNL     1       1.602   8.022  20.438  0.00  0.00    +0.000 A 
ATOM     23  O   UNL     1       0.310   9.929  20.897  0.00  0.00    +0.000 OA
ATOM     24  C   UNL     1      -0.538  10.919  20.334  0.00  0.00    +0.000 C 
ATOM     25  C   UNL     1      -0.172  11.551  18.991  0.00  0.00    +0.000 C 
ATOM     26  O   UNL     1      -0.620  12.628  18.608  0.00  0.00    +0.000 OA
ATOM     27  N   UNL     1       0.636  10.786  18.194  0.00  0.00    +0.000 N 
ATOM     28  H   UNL     1       0.837  11.137  17.267  0.00  0.00    +0.000 HD
ENDBRANCH  15  17
ENDBRANCH   1  15
TORSDOF 4
ENDMDL
MODEL 5
REMARK VINA RESULT:      -8.8      3.874      5.600
REMARK  Name = 
REMARK  5 active torsions:
REMARK  status: ('A' for Active; 'I' for Inactive)
REMARK    1  A    between atoms: C_1  and  C_2
REMARK    2  A    between atoms: C_6  and  C_7
REMARK    3  A    between atoms: C_11  and  C_12
REMARK    4  A    between atoms: C_12  and  N_13
REMARK    5  A    between atoms: N_13  and  C_14
REMARK                            x       y       z     vdW  Elec       q    Type
REMARK                         _______ _______ _______ _____ _____    ______ ____
ROOT
ATOM      1  C   UNL     1       5.426   6.965  16.492  0.00  0.00    +0.000 C 
ENDROOT
BRANCH   1   6
ATOM      2  C   UNL     1       7.072   4.992  16.060  0.00  0.00    +0.000 A 
ATOM      3  N   UNL     1       7.849   4.252  16.921  0.00  0.00    +0.000 N 
ATOM      4  N   UNL     1       7.739   4.601  18.209  0.00  0.00    +0.000 NA
ATOM      5  C   UNL     1       6.878   5.614  18.182  0.00  0.00    +0.000 A 
ATOM      6  C   UNL     1       6.418   5.914  16.875  0.00  0.00    +0.000 A 
ATOM      7  H   UNL     1       8.488   3.503  16.684  0.00  0.00    +0.000 HD
BRANCH   2  13
ATOM      8  C   UNL     1       5.212   2.676  12.029  0.00  0.00    +0.000 C 
ATOM      9  C   UNL     1       6.173   3.662  12.624  0.00  0.00    +0.000 A 
ATOM     10  C   UNL     1       7.004   4.440  11.814  0.00  0.00    +0.000 A 
ATOM     11  C   UNL     1       7.886   5.352  12.388  0.00  0.00    +0.000 A 
ATOM     12  C   UNL     1       7.937   5.502  13.777  0.00  0.00    +0.000 A 
ATOM     13  C   UNL     1       7.091   4.757  14.612  0.00  0.00    +0.000 A 
ATOM     14  C   UNL     1       6.222   3.832  14.017  0.00  0.00    +0.000 A 
ENDBRANCH   2  13
ENDBRANCH   1   6
BRANCH   1  15
ATOM     15  N   UNL     1       4.009   6.696  16.707  0.00  0.00    +0.000 N 
ATOM     16  H   UNL     1       3.513   6.435  15.860  0.00  0.00    +0.000 HD
BRANCH  15  17
ATOM     17  C   UNL     1       3.489   6.147  17.872  0.00  0.00    +0.000 A 
ATOM     18  C   UNL     1       2.921   6.893  18.913  0.00  0.00    +0.000 A 
ATOM     19  C   UNL     1       2.326   6.270  20.019  0.00  0.00    +0.000 A 
ATOM     20  C   UNL     1       2.268   4.883  20.081  0.00  0.00    +0.000 A 
ATOM     21  C   UNL     1       2.797   4.118  19.046  0.00  0.00    +0.000 A 
ATOM     22  C   UNL     1       3.401   4.749  17.956  0.00  0.00    +0.000 A 
ATOM     23  O   UNL     1       2.807   2.750  19.038  0.00  0.00    +0.000 OA
ATOM     24  C   UNL     1       1.913   2.155  19.967  0.00  0.00    +0.000 C 
ATOM     25  C   UNL     1       1.556   2.901  21.253  0.00  0.00    +0.000 C 
ATOM     26  O   UNL     1       1.102   2.345  22.250  0.00  0.00    +0.000 OA
ATOM     27  N   UNL     1       1.699   4.260  21.192  0.00  0.00    +0.000 N 
ATOM     28  H   UNL     1       1.400   4.793  21.998  0.00  0.00    +0.000 HD
ENDBRANCH  15  17
ENDBRANCH   1  15
TORSDOF 4
ENDMDL
MODEL 6
REMARK VINA RESULT:      -8.7      1.881      4.015
REMARK  Name = 
REMARK  5 active torsions:
REMARK  status: ('A' for Active; 'I' for Inactive)
REMARK    1  A    between atoms: C_1  and  C_2
REMARK    2  A    between atoms: C_6  and  C_7
REMARK    3  A    between atoms: C_11  and  C_12
REMARK    4  A    between atoms: C_12  and  N_13
REMARK    5  A    between atoms: N_13  and  C_14
REMARK                            x       y       z     vdW  Elec       q    Type
REMARK                         _______ _______ _______ _____ _____    ______ ____
ROOT
ATOM      1  C   UNL     1       4.646   6.885  17.620  0.00  0.00    +0.000 C 
ENDROOT
BRANCH   1   6
ATOM      2  C   UNL     1       4.461   4.302  17.320  0.00  0.00    +0.000 A 
ATOM      3  N   UNL     1       5.208   3.418  16.577  0.00  0.00    +0.000 N 
ATOM      4  N   UNL     1       6.212   3.978  15.891  0.00  0.00    +0.000 NA
ATOM      5  C   UNL     1       6.102   5.272  16.180  0.00  0.00    +0.000 A 
ATOM      6  C   UNL     1       5.031   5.549  17.068  0.00  0.00    +0.000 A 
ATOM      7  H   UNL     1       5.071   2.419  16.489  0.00  0.00    +0.000 HD
BRANCH   2  13
ATOM      8  C   UNL     1       2.546   2.758  21.681  0.00  0.00    +0.000 C 
ATOM      9  C   UNL     1       2.345   3.137  20.243  0.00  0.00    +0.000 A 
ATOM     10  C   UNL     1       1.067   3.184  19.680  0.00  0.00    +0.000 A 
ATOM     11  C   UNL     1       0.904   3.541  18.345  0.00  0.00    +0.000 A 
ATOM     12  C   UNL     1       2.017   3.867  17.563  0.00  0.00    +0.000 A 
ATOM     13  C   UNL     1       3.308   3.860  18.112  0.00  0.00    +0.000 A 
ATOM     14  C   UNL     1       3.454   3.480  19.453  0.00  0.00    +0.000 A 
ENDBRANCH   2  13
ENDBRANCH   1   6
BRANCH   1  15
ATOM     15  N   UNL     1       3.258   7.315  17.495  0.00  0.00    +0.000 N 
ATOM     16  H   UNL     1       2.764   6.869  16.729  0.00  0.00    +0.000 HD
BRANCH  15  17
ATOM     17  C   UNL     1       2.455   7.673  18.570  0.00  0.00    +0.000 A 
ATOM     18  C   UNL     1       2.343   6.933  19.754  0.00  0.00    +0.000 A 
ATOM     19  C   UNL     1       1.590   7.401  20.840  0.00  0.00    +0.000 A 
ATOM     20  C   UNL     1       0.960   8.638  20.762  0.00  0.00    +0.000 A 
ATOM     21  C   UNL     1       1.080   9.407  19.608  0.00  0.00    +0.000 A 
ATOM     22  C   UNL     1       1.820   8.924  18.527  0.00  0.00    +0.000 A 
ATOM     23  O   UNL     1       0.473  10.620  19.435  0.00  0.00    +0.000 OA
ATOM     24  C   UNL     1       0.020  11.222  20.639  0.00  0.00    +0.000 C 
ATOM     25  C   UNL     1      -0.382  10.338  21.819  0.00  0.00    +0.000 C 
ATOM     26  O   UNL     1      -1.102  10.725  22.736  0.00  0.00    +0.000 OA
ATOM     27  N   UNL     1       0.189   9.095  21.831  0.00  0.00    +0.000 N 
ATOM     28  H   UNL     1       0.007   8.510  22.635  0.00  0.00    +0.000 HD
ENDBRANCH  15  17
ENDBRANCH   1  15
TORSDOF 4
ENDMDL
MODEL 7
REMARK VINA RESULT:      -8.6      1.884      3.787
REMARK  Name = 
REMARK  5 active torsions:
REMARK  status: ('A' for Active; 'I' for Inactive)
REMARK    1  A    between atoms: C_1  and  C_2
REMARK    2  A    between atoms: C_6  and  C_7
REMARK    3  A    between atoms: C_11  and  C_12
REMARK    4  A    between atoms: C_12  and  N_13
REMARK    5  A    between atoms: N_13  and  C_14
REMARK                            x       y       z     vdW  Elec       q    Type
REMARK                         _______ _______ _______ _____ _____    ______ ____
ROOT
ATOM      1  C   UNL     1       4.652   6.921  17.355  0.00  0.00    +0.000 C 
ENDROOT
BRANCH   1   6
ATOM      2  C   UNL     1       5.489   4.532  17.975  0.00  0.00    +0.000 A 
ATOM      3  N   UNL     1       6.746   3.974  17.950  0.00  0.00    +0.000 N 
ATOM      4  N   UNL     1       7.714   4.804  17.542  0.00  0.00    +0.000 NA
ATOM      5  C   UNL     1       7.062   5.932  17.272  0.00  0.00    +0.000 A 
ATOM      6  C   UNL     1       5.669   5.837  17.520  0.00  0.00    +0.000 A 
ATOM      7  H   UNL     1       7.003   3.024  18.189  0.00  0.00    +0.000 HD
BRANCH   2  13
ATOM      8  C   UNL     1       2.275   3.062  21.523  0.00  0.00    +0.000 C 
ATOM      9  C   UNL     1       2.707   3.051  20.086  0.00  0.00    +0.000 A 
ATOM     10  C   UNL     1       1.945   2.409  19.107  0.00  0.00    +0.000 A 
ATOM     11  C   UNL     1       2.364   2.415  17.779  0.00  0.00    +0.000 A 
ATOM     12  C   UNL     1       3.543   3.074  17.417  0.00  0.00    +0.000 A 
ATOM     13  C   UNL     1       4.310   3.754  18.374  0.00  0.00    +0.000 A 
ATOM     14  C   UNL     1       3.881   3.722  19.708  0.00  0.00    +0.000 A 
ENDBRANCH   2  13
ENDBRANCH   1   6
BRANCH   1  15
ATOM     15  N   UNL     1       3.256   6.615  17.648  0.00  0.00    +0.000 N 
ATOM     16  H   UNL     1       3.041   5.624  17.606  0.00  0.00    +0.000 HD
BRANCH  15  17
ATOM     17  C   UNL     1       2.472   7.339  18.537  0.00  0.00    +0.000 A 
ATOM     18  C   UNL     1       2.247   6.975  19.871  0.00  0.00    +0.000 A 
ATOM     19  C   UNL     1       1.524   7.802  20.743  0.00  0.00    +0.000 A 
ATOM     20  C   UNL     1       1.040   9.024  20.291  0.00  0.00    +0.000 A 
ATOM     21  C   UNL     1       1.275   9.424  18.979  0.00  0.00    +0.000 A 
ATOM     22  C   UNL     1       1.983   8.586  18.116  0.00  0.00    +0.000 A 
ATOM     23  O   UNL     1       0.813  10.595  18.446  0.00  0.00    +0.000 OA
ATOM     24  C   UNL     1       0.401  11.552  19.410  0.00  0.00    +0.000 C 
ATOM     25  C   UNL     1      -0.128  11.079  20.764  0.00  0.00    +0.000 C 
ATOM     26  O   UNL     1      -0.823  11.777  21.497  0.00  0.00    +0.000 OA
ATOM     27  N   UNL     1       0.299   9.838  21.149  0.00  0.00    +0.000 N 
ATOM     28  H   UNL     1       0.032   9.523  22.072  0.00  0.00    +0.000 HD
ENDBRANCH  15  17
ENDBRANCH   1  15
TORSDOF 4
ENDMDL
MODEL 8
REMARK VINA RESULT:      -8.6      1.530      1.748
REMARK  Name = 
REMARK  5 active torsions:
REMARK  status: ('A' for Active; 'I' for Inactive)
REMARK    1  A    between atoms: C_1  and  C_2
REMARK    2  A    between atoms: C_6  and  C_7
REMARK    3  A    between atoms: C_11  and  C_12
REMARK    4  A    between atoms: C_12  and  N_13
REMARK    5  A    between atoms: N_13  and  C_14
REMARK                            x       y       z     vdW  Elec       q    Type
REMARK                         _______ _______ _______ _____ _____    ______ ____
ROOT
ATOM      1  C   UNL     1       2.271   4.960  18.346  0.00  0.00    +0.000 C 
ENDROOT
BRANCH   1   6
ATOM      2  C   UNL     1       4.512   3.668  18.665  0.00  0.00    +0.000 A 
ATOM      3  N   UNL     1       4.893   2.723  19.589  0.00  0.00    +0.000 N 
ATOM      4  N   UNL     1       3.945   2.403  20.479  0.00  0.00    +0.000 NA
ATOM      5  C   UNL     1       2.923   3.181  20.136  0.00  0.00    +0.000 A 
ATOM      6  C   UNL     1       3.203   3.998  19.011  0.00  0.00    +0.000 A 
ATOM      7  H   UNL     1       5.795   2.269  19.669  0.00  0.00    +0.000 HD
BRANCH   2  13
ATOM      8  C   UNL     1       5.847   3.960  13.848  0.00  0.00    +0.000 C 
ATOM      9  C   UNL     1       6.088   4.335  15.280  0.00  0.00    +0.000 A 
ATOM     10  C   UNL     1       7.105   5.225  15.632  0.00  0.00    +0.000 A 
ATOM     11  C   UNL     1       7.308   5.562  16.968  0.00  0.00    +0.000 A 
ATOM     12  C   UNL     1       6.486   5.021  17.962  0.00  0.00    +0.000 A 
ATOM     13  C   UNL     1       5.437   4.151  17.633  0.00  0.00    +0.000 A 
ATOM     14  C   UNL     1       5.259   3.810  16.285  0.00  0.00    +0.000 A 
ENDBRANCH   2  13
ENDBRANCH   1   6
BRANCH   1  15
ATOM     15  N   UNL     1       2.761   6.298  18.035  0.00  0.00    +0.000 N 
ATOM     16  H   UNL     1       3.084   6.398  17.078  0.00  0.00    +0.000 HD
BRANCH  15  17
ATOM     17  C   UNL     1       2.254   7.462  18.598  0.00  0.00    +0.000 A 
ATOM     18  C   UNL     1       1.855   8.587  17.864  0.00  0.00    +0.000 A 
ATOM     19  C   UNL     1       1.260   9.694  18.487  0.00  0.00    +0.000 A 
ATOM     20  C   UNL     1       1.032   9.673  19.858  0.00  0.00    +0.000 A 
ATOM     21  C   UNL     1       1.391   8.556  20.606  0.00  0.00    +0.000 A 
ATOM     22  C   UNL     1       1.996   7.466  19.978  0.00  0.00    +0.000 A 
ATOM     23  O   UNL     1       1.228   8.462  21.961  0.00  0.00    +0.000 OA
ATOM     24  C   UNL     1       0.329   9.416  22.507  0.00  0.00    +0.000 C 
ATOM     25  C   UNL     1       0.155  10.769  21.817  0.00  0.00    +0.000 C 
ATOM     26  O   UNL     1      -0.299  11.760  22.383  0.00  0.00    +0.000 OA
ATOM     27  N   UNL     1       0.463  10.782  20.485  0.00  0.00    +0.000 N 
ATOM     28  H   UNL     1       0.288  11.640  19.978  0.00  0.00    +0.000 HD
ENDBRANCH  15  17
ENDBRANCH   1  15
TORSDOF 4
ENDMDL
MODEL 9
REMARK VINA RESULT:      -8.6      1.313      1.659
REMARK  Name = 
REMARK  5 active torsions:
REMARK  status: ('A' for Active; 'I' for Inactive)
REMARK    1  A    between atoms: C_1  and  C_2
REMARK    2  A    between atoms: C_6  and  C_7
REMARK    3  A    between atoms: C_11  and  C_12
REMARK    4  A    between atoms: C_12  and  N_13
REMARK    5  A    between atoms: N_13  and  C_14
REMARK                            x       y       z     vdW  Elec       q    Type
REMARK                         _______ _______ _______ _____ _____    ______ ____
ROOT
ATOM      1  C   UNL     1       1.597   5.220  20.655  0.00  0.00    +0.000 C 
ENDROOT
BRANCH   1   6
ATOM      2  C   UNL     1       2.808   3.725  18.896  0.00  0.00    +0.000 A 
ATOM      3  N   UNL     1       2.502   2.482  18.395  0.00  0.00    +0.000 N 
ATOM      4  N   UNL     1       1.381   1.943  18.893  0.00  0.00    +0.000 NA
ATOM      5  C   UNL     1       0.957   2.857  19.760  0.00  0.00    +0.000 A 
ATOM      6  C   UNL     1       1.797   3.998  19.816  0.00  0.00    +0.000 A 
ATOM      7  H   UNL     1       3.030   1.943  17.720  0.00  0.00    +0.000 HD
BRANCH   2  13
ATOM      8  C   UNL     1       5.193   6.587  15.550  0.00  0.00    +0.000 C 
ATOM      9  C   UNL     1       5.187   5.875  16.871  0.00  0.00    +0.000 A 
ATOM     10  C   UNL     1       6.264   5.983  17.754  0.00  0.00    +0.000 A 
ATOM     11  C   UNL     1       6.235   5.316  18.976  0.00  0.00    +0.000 A 
ATOM     12  C   UNL     1       5.123   4.546  19.331  0.00  0.00    +0.000 A 
ATOM     13  C   UNL     1       4.015   4.447  18.477  0.00  0.00    +0.000 A 
ATOM     14  C   UNL     1       4.070   5.111  17.244  0.00  0.00    +0.000 A 
ENDBRANCH   2  13
ENDBRANCH   1   6
BRANCH   1  15
ATOM     15  N   UNL     1       2.468   6.368  20.428  0.00  0.00    +0.000 N 
ATOM     16  H   UNL     1       3.433   6.115  20.243  0.00  0.00    +0.000 HD
BRANCH  15  17
ATOM     17  C   UNL     1       2.055   7.550  19.827  0.00  0.00    +0.000 A 
ATOM     18  C   UNL     1       2.269   7.868  18.479  0.00  0.00    +0.000 A 
ATOM     19  C   UNL     1       1.740   9.036  17.911  0.00  0.00    +0.000 A 
ATOM     20  C   UNL     1       0.962   9.889  18.684  0.00  0.00    +0.000 A 
ATOM     21  C   UNL     1       0.708   9.581  20.018  0.00  0.00    +0.000 A 
ATOM     22  C   UNL     1       1.252   8.423  20.578  0.00  0.00    +0.000 A 
ATOM     23  O   UNL     1      -0.023  10.376  20.857  0.00  0.00    +0.000 OA
ATOM     24  C   UNL     1      -0.822  11.344  20.193  0.00  0.00    +0.000 C 
ATOM     25  C   UNL     1      -0.376  11.888  18.836  0.00  0.00    +0.000 C 
ATOM     26  O   UNL     1      -0.784  12.948  18.368  0.00  0.00    +0.000 OA
ATOM     27  N   UNL     1       0.455  11.064  18.128  0.00  0.00    +0.000 N 
ATOM     28  H   UNL     1       0.710  11.356  17.194  0.00  0.00    +0.000 HD
ENDBRANCH  15  17
ENDBRANCH   1  15
TORSDOF 4
ENDMDL
