MODEL 1
REMARK VINA RESULT:      -9.6      0.000      0.000
REMARK  Name = 
REMARK  7 active torsions:
REMARK  status: ('A' for Active; 'I' for Inactive)
REMARK    1  A    between atoms: C_1  and  O_2
REMARK    2  A    between atoms: O_2  and  C_3
REMARK    3  A    between atoms: C_7  and  C_8
REMARK    4  A    between atoms: C_8  and  N_9
REMARK    5  A    between atoms: C_8  and  C_24
REMARK    6  A    between atoms: C_10  and  C_12
REMARK    7  A    between atoms: N_22  and  C_23
REMARK                            x       y       z     vdW  Elec       q    Type
REMARK                         _______ _______ _______ _____ _____    ______ ____
ROOT
ATOM      1  N   UNL     1       2.717   7.006  18.734  0.00  0.00    +0.000 N 
ATOM      2  C   UNL     1       2.256   8.193  18.215  0.00  0.00    +0.000 C 
ATOM      3  O   UNL     1       2.594   8.638  17.124  0.00  0.00    +0.000 OA
ATOM      4  H   UNL     1       2.408   6.704  19.643  0.00  0.00    +0.000 HD
ENDROOT
BRANCH   2   5
ATOM      5  C   UNL     1       1.281   8.960  19.038  0.00  0.00    +0.000 A 
ATOM      6  C   UNL     1       1.215   8.689  20.403  0.00  0.00    +0.000 A 
ATOM      7  C   UNL     1       0.428   9.483  21.245  0.00  0.00    +0.000 A 
ATOM      8  C   UNL     1      -0.276  10.594  20.752  0.00  0.00    +0.000 A 
ATOM      9  C   UNL     1      -0.208  10.867  19.380  0.00  0.00    +0.000 A 
ATOM     10  C   UNL     1       0.543  10.029  18.521  0.00  0.00    +0.000 A 
ATOM     11  C   UNL     1      -0.919  12.040  18.782  0.00  0.00    +0.000 C 
ATOM     12  C   UNL     1      -1.406  13.075  19.770  0.00  0.00    +0.000 C 
ATOM     13  C   UNL     1      -1.571  12.649  21.205  0.00  0.00    +0.000 C 
ATOM     14  O   UNL     1      -2.148  13.420  21.980  0.00  0.00    +0.000 OA
ATOM     15  N   UNL     1      -1.016  11.449  21.618  0.00  0.00    +0.000 N 
ATOM     16  C   UNL     1      -1.139  11.106  23.032  0.00  0.00    +0.000 C 
ENDBRANCH   2   5
BRANCH   1  17
ATOM     17  C   UNL     1       3.445   6.054  17.899  0.00  0.00    +0.000 C 
BRANCH  17  22
ATOM     18  C   UNL     1       1.608   3.051  19.457  0.00  0.00    +0.000 A 
ATOM     19  C   UNL     1       1.853   2.060  18.508  0.00  0.00    +0.000 A 
ATOM     20  C   UNL     1       2.638   2.343  17.391  0.00  0.00    +0.000 A 
ATOM     21  C   UNL     1       3.174   3.621  17.208  0.00  0.00    +0.000 A 
ATOM     22  C   UNL     1       2.919   4.639  18.137  0.00  0.00    +0.000 A 
ATOM     23  C   UNL     1       2.138   4.331  19.265  0.00  0.00    +0.000 A 
BRANCH  18  25
ATOM     24  C   UNL     1       1.546   2.654  21.792  0.00  0.00    +0.000 C 
ATOM     25  O   UNL     1       0.844   2.916  20.582  0.00  0.00    +0.000 OA
ENDBRANCH  18  25
ENDBRANCH  17  22
BRANCH  17  26
ATOM     26  C   UNL     1       4.958   6.159  18.064  0.00  0.00    +0.000 A 
ATOM     27  C   UNL     1       5.586   5.460  19.115  0.00  0.00    +0.000 A 
ATOM     28  C   UNL     1       6.967   5.539  19.310  0.00  0.00    +0.000 A 
ATOM     29  C   UNL     1       7.745   6.326  18.463  0.00  0.00    +0.000 A 
ATOM     30  C   UNL     1       7.142   7.034  17.429  0.00  0.00    +0.000 A 
ATOM     31  C   UNL     1       5.761   6.952  17.229  0.00  0.00    +0.000 A 
ENDBRANCH  17  26
ENDBRANCH   1  17
TORSDOF 5
ENDMDL
MODEL 2
REMARK VINA RESULT:      -9.5      0.686      1.750
REMARK  Name = 
REMARK  7 active torsions:
REMARK  status: ('A' for Active; 'I' for Inactive)
REMARK    1  A    between atoms: C_1  and  O_2
REMARK    2  A    between atoms: O_2  and  C_3
REMARK    3  A    between atoms: C_7  and  C_8
REMARK    4  A    between atoms: C_8  and  N_9
REMARK    5  A    between atoms: C_8  and  C_24
REMARK    6  A    between atoms: C_10  and  C_12
REMARK    7  A    between atoms: N_22  and  C_23
REMARK                            x       y       z     vdW  Elec       q    Type
REMARK                         _______ _______ _______ _____ _____    ______ ____
ROOT
ATOM      1  N   UNL     1       2.829   7.004  18.693  0.00  0.00    +0.000 N 
ATOM      2  C   UNL     1       2.417   8.199  18.151  0.00  0.00    +0.000 C 
ATOM      3  O   UNL     1       2.670   8.552  17.004  0.00  0.00    +0.000 OA
ATOM      4  H   UNL     1       2.596   6.780  19.646  0.00  0.00    +0.000 HD
ENDROOT
BRANCH   2   5
ATOM      5  C   UNL     1       1.608   9.096  19.020  0.00  0.00    +0.000 A 
ATOM      6  C   UNL     1       0.777  10.032  18.408  0.00  0.00    +0.000 A 
ATOM      7  C   UNL     1      -0.115  10.794  19.171  0.00  0.00    +0.000 A 
ATOM      8  C   UNL     1      -0.233  10.606  20.559  0.00  0.00    +0.000 A 
ATOM      9  C   UNL     1       0.602   9.664  21.173  0.00  0.00    +0.000 A 
ATOM     10  C   UNL     1       1.543   8.936  20.407  0.00  0.00    +0.000 A 
ATOM     11  C   UNL     1       0.526   9.398  22.644  0.00  0.00    +0.000 C 
ATOM     12  C   UNL     1      -0.705   9.935  23.337  0.00  0.00    +0.000 C 
ATOM     13  C   UNL     1      -1.464  11.042  22.655  0.00  0.00    +0.000 C 
ATOM     14  O   UNL     1      -2.351  11.621  23.293  0.00  0.00    +0.000 OA
ATOM     15  N   UNL     1      -1.193  11.324  21.327  0.00  0.00    +0.000 N 
ATOM     16  C   UNL     1      -2.000  12.357  20.683  0.00  0.00    +0.000 C 
ENDBRANCH   2   5
BRANCH   1  17
ATOM     17  C   UNL     1       3.377   5.946  17.848  0.00  0.00    +0.000 C 
BRANCH  17  22
ATOM     18  C   UNL     1       1.438   3.210  19.737  0.00  0.00    +0.000 A 
ATOM     19  C   UNL     1       1.452   2.173  18.805  0.00  0.00    +0.000 A 
ATOM     20  C   UNL     1       2.116   2.338  17.590  0.00  0.00    +0.000 A 
ATOM     21  C   UNL     1       2.760   3.541  17.292  0.00  0.00    +0.000 A 
ATOM     22  C   UNL     1       2.735   4.606  18.205  0.00  0.00    +0.000 A 
ATOM     23  C   UNL     1       2.074   4.416  19.431  0.00  0.00    +0.000 A 
BRANCH  18  25
ATOM     24  C   UNL     1       1.541   2.610  22.027  0.00  0.00    +0.000 C 
ATOM     25  O   UNL     1       0.812   3.190  20.951  0.00  0.00    +0.000 OA
ENDBRANCH  18  25
ENDBRANCH  17  22
BRANCH  17  26
ATOM     26  C   UNL     1       4.902   5.898  17.874  0.00  0.00    +0.000 A 
ATOM     27  C   UNL     1       5.558   5.504  19.058  0.00  0.00    +0.000 A 
ATOM     28  C   UNL     1       6.953   5.460  19.129  0.00  0.00    +0.000 A 
ATOM     29  C   UNL     1       7.717   5.817  18.020  0.00  0.00    +0.000 A 
ATOM     30  C   UNL     1       7.089   6.221  16.848  0.00  0.00    +0.000 A 
ATOM     31  C   UNL     1       5.693   6.262  16.773  0.00  0.00    +0.000 A 
ENDBRANCH  17  26
ENDBRANCH   1  17
TORSDOF 5
ENDMDL
MODEL 3
REMARK VINA RESULT:      -9.1      1.058      2.252
REMARK  Name = 
REMARK  7 active torsions:
REMARK  status: ('A' for Active; 'I' for Inactive)
REMARK    1  A    between atoms: C_1  and  O_2
REMARK    2  A    between atoms: O_2  and  C_3
REMARK    3  A    between atoms: C_7  and  C_8
REMARK    4  A    between atoms: C_8  and  N_9
REMARK    5  A    between atoms: C_8  and  C_24
REMARK    6  A    between atoms: C_10  and  C_12
REMARK    7  A    between atoms: N_22  and  C_23
REMARK                            x       y       z     vdW  Elec       q    Type
REMARK                         _______ _______ _______ _____ _____    ______ ____
ROOT
ATOM      1  N   UNL     1       2.470   7.358  19.144  0.00  0.00    +0.000 N 
ATOM      2  C   UNL     1       2.014   8.457  18.453  0.00  0.00    +0.000 C 
ATOM      3  O   UNL     1       2.181   8.623  17.249  0.00  0.00    +0.000 OA
ATOM      4  H   UNL     1       2.309   7.289  20.134  0.00  0.00    +0.000 HD
ENDROOT
BRANCH   2   5
ATOM      5  C   UNL     1       1.268   9.485  19.227  0.00  0.00    +0.000 A 
ATOM      6  C   UNL     1       0.676  10.535  18.528  0.00  0.00    +0.000 A 
ATOM      7  C   UNL     1      -0.161  11.443  19.187  0.00  0.00    +0.000 A 
ATOM      8  C   UNL     1      -0.464  11.297  20.552  0.00  0.00    +0.000 A 
ATOM      9  C   UNL     1       0.130  10.240  21.253  0.00  0.00    +0.000 A 
ATOM     10  C   UNL     1       1.021   9.358  20.597  0.00  0.00    +0.000 A 
ATOM     11  C   UNL     1      -0.154  10.011  22.705  0.00  0.00    +0.000 C 
ATOM     12  C   UNL     1      -1.352  10.751  23.255  0.00  0.00    +0.000 C 
ATOM     13  C   UNL     1      -1.838  11.957  22.495  0.00  0.00    +0.000 C 
ATOM     14  O   UNL     1      -2.686  12.681  23.030  0.00  0.00    +0.000 OA
ATOM     15  N   UNL     1      -1.376  12.172  21.208  0.00  0.00    +0.000 N 
ATOM     16  C   UNL     1      -1.925  13.312  20.481  0.00  0.00    +0.000 C 
ENDBRANCH   2   5
BRANCH   1  17
ATOM     17  C   UNL     1       2.957   6.176  18.438  0.00  0.00    +0.000 C 
BRANCH  17  22
ATOM     18  C   UNL     1       2.240   2.473  19.206  0.00  0.00    +0.000 A 
ATOM     19  C   UNL     1       1.486   2.578  20.373  0.00  0.00    +0.000 A 
ATOM     20  C   UNL     1       1.175   3.835  20.891  0.00  0.00    +0.000 A 
ATOM     21  C   UNL     1       1.624   4.995  20.254  0.00  0.00    +0.000 A 
ATOM     22  C   UNL     1       2.406   4.911  19.092  0.00  0.00    +0.000 A 
ATOM     23  C   UNL     1       2.697   3.635  18.577  0.00  0.00    +0.000 A 
BRANCH  18  25
ATOM     24  C   UNL     1       3.919   1.318  17.996  0.00  0.00    +0.000 C 
ATOM     25  O   UNL     1       2.632   1.311  18.604  0.00  0.00    +0.000 OA
ENDBRANCH  18  25
ENDBRANCH  17  22
BRANCH  17  26
ATOM     26  C   UNL     1       4.476   6.156  18.296  0.00  0.00    +0.000 A 
ATOM     27  C   UNL     1       5.251   5.515  19.283  0.00  0.00    +0.000 A 
ATOM     28  C   UNL     1       6.646   5.485  19.200  0.00  0.00    +0.000 A 
ATOM     29  C   UNL     1       7.291   6.105  18.132  0.00  0.00    +0.000 A 
ATOM     30  C   UNL     1       6.545   6.755  17.155  0.00  0.00    +0.000 A 
ATOM     31  C   UNL     1       5.149   6.782  17.234  0.00  0.00    +0.000 A 
ENDBRANCH  17  26
ENDBRANCH   1  17
TORSDOF 5
ENDMDL
MODEL 4
REMARK VINA RESULT:      -8.9      2.767      8.363
REMARK  Name = 
REMARK  7 active torsions:
REMARK  status: ('A' for Active; 'I' for Inactive)
REMARK    1  A    between atoms: C_1  and  O_2
REMARK    2  A    between atoms: O_2  and  C_3
REMARK    3  A    between atoms: C_7  and  C_8
REMARK    4  A    between atoms: C_8  and  N_9
REMARK    5  A    between atoms: C_8  and  C_24
REMARK    6  A    between atoms: C_10  and  C_12
REMARK    7  A    between atoms: N_22  and  C_23
REMARK                            x       y       z     vdW  Elec       q    Type
REMARK                         _______ _______ _______ _____ _____    ______ ____
ROOT
ATOM      1  N   UNL     1       1.073   9.632  19.463  0.00  0.00    +0.000 N 
ATOM      2  C   UNL     1       1.406   8.705  20.423  0.00  0.00    +0.000 C 
ATOM      3  O   UNL     1       1.390   8.934  21.627  0.00  0.00    +0.000 OA
ATOM      4  H   UNL     1       1.118   9.382  18.490  0.00  0.00    +0.000 HD
ENDROOT
BRANCH   2   5
ATOM      5  C   UNL     1       1.793   7.348  19.951  0.00  0.00    +0.000 A 
ATOM      6  C   UNL     1       2.485   7.243  18.745  0.00  0.00    +0.000 A 
ATOM      7  C   UNL     1       3.003   6.011  18.331  0.00  0.00    +0.000 A 
ATOM      8  C   UNL     1       2.884   4.863  19.133  0.00  0.00    +0.000 A 
ATOM      9  C   UNL     1       2.190   4.969  20.344  0.00  0.00    +0.000 A 
ATOM     10  C   UNL     1       1.617   6.203  20.734  0.00  0.00    +0.000 A 
ATOM     11  C   UNL     1       2.033   3.795  21.259  0.00  0.00    +0.000 C 
ATOM     12  C   UNL     1       2.940   2.621  20.968  0.00  0.00    +0.000 C 
ATOM     13  C   UNL     1       3.538   2.524  19.589  0.00  0.00    +0.000 C 
ATOM     14  O   UNL     1       4.119   1.479  19.277  0.00  0.00    +0.000 OA
ATOM     15  N   UNL     1       3.477   3.626  18.751  0.00  0.00    +0.000 N 
ATOM     16  C   UNL     1       4.129   3.513  17.450  0.00  0.00    +0.000 C 
ENDBRANCH   2   5
BRANCH   1  17
ATOM     17  C   UNL     1       0.416  10.885  19.826  0.00  0.00    +0.000 C 
BRANCH  17  22
ATOM     18  C   UNL     1      -2.351  10.409  17.194  0.00  0.00    +0.000 A 
ATOM     19  C   UNL     1      -3.368  11.204  17.721  0.00  0.00    +0.000 A 
ATOM     20  C   UNL     1      -3.153  11.921  18.897  0.00  0.00    +0.000 A 
ATOM     21  C   UNL     1      -1.926  11.841  19.561  0.00  0.00    +0.000 A 
ATOM     22  C   UNL     1      -0.898  11.028  19.061  0.00  0.00    +0.000 A 
ATOM     23  C   UNL     1      -1.129  10.324  17.866  0.00  0.00    +0.000 A 
BRANCH  18  25
ATOM     24  C   UNL     1      -3.040  10.253  14.932  0.00  0.00    +0.000 C 
ATOM     25  O   UNL     1      -2.433   9.643  16.066  0.00  0.00    +0.000 OA
ENDBRANCH  18  25
ENDBRANCH  17  22
BRANCH  17  26
ATOM     26  C   UNL     1       1.329  12.098  19.667  0.00  0.00    +0.000 A 
ATOM     27  C   UNL     1       1.464  13.003  20.739  0.00  0.00    +0.000 A 
ATOM     28  C   UNL     1       2.277  14.134  20.631  0.00  0.00    +0.000 A 
ATOM     29  C   UNL     1       2.964  14.385  19.445  0.00  0.00    +0.000 A 
ATOM     30  C   UNL     1       2.834  13.511  18.371  0.00  0.00    +0.000 A 
ATOM     31  C   UNL     1       2.023  12.377  18.479  0.00  0.00    +0.000 A 
ENDBRANCH  17  26
ENDBRANCH   1  17
TORSDOF 5
ENDMDL
MODEL 5
REMARK VINA RESULT:      -8.7      2.190      8.662
REMARK  Name = 
REMARK  7 active torsions:
REMARK  status: ('A' for Active; 'I' for Inactive)
REMARK    1  A    between atoms: C_1  and  O_2
REMARK    2  A    between atoms: O_2  and  C_3
REMARK    3  A    between atoms: C_7  and  C_8
REMARK    4  A    between atoms: C_8  and  N_9
REMARK    5  A    between atoms: C_8  and  C_24
REMARK    6  A    between atoms: C_10  and  C_12
REMARK    7  A    between atoms: N_22  and  C_23
REMARK                            x       y       z     vdW  Elec       q    Type
REMARK                         _______ _______ _______ _____ _____    ______ ____
ROOT
ATOM      1  N   UNL     1       0.009   9.832  18.607  0.00  0.00    +0.000 N 
ATOM      2  C   UNL     1       1.370   9.672  18.483  0.00  0.00    +0.000 C 
ATOM      3  O   UNL     1       2.123  10.545  18.067  0.00  0.00    +0.000 OA
ATOM      4  H   UNL     1      -0.555   9.070  18.945  0.00  0.00    +0.000 HD
ENDROOT
BRANCH   2   5
ATOM      5  C   UNL     1       1.940   8.361  18.894  0.00  0.00    +0.000 A 
ATOM      6  C   UNL     1       1.525   7.814  20.107  0.00  0.00    +0.000 A 
ATOM      7  C   UNL     1       1.913   6.519  20.469  0.00  0.00    +0.000 A 
ATOM      8  C   UNL     1       2.685   5.721  19.608  0.00  0.00    +0.000 A 
ATOM      9  C   UNL     1       3.100   6.270  18.389  0.00  0.00    +0.000 A 
ATOM     10  C   UNL     1       2.755   7.601  18.050  0.00  0.00    +0.000 A 
ATOM     11  C   UNL     1       3.913   5.479  17.413  0.00  0.00    +0.000 C 
ATOM     12  C   UNL     1       3.954   3.988  17.663  0.00  0.00    +0.000 C 
ATOM     13  C   UNL     1       3.616   3.502  19.048  0.00  0.00    +0.000 C 
ATOM     14  O   UNL     1       3.833   2.316  19.319  0.00  0.00    +0.000 OA
ATOM     15  N   UNL     1       3.015   4.376  19.939  0.00  0.00    +0.000 N 
ATOM     16  C   UNL     1       2.641   3.846  21.247  0.00  0.00    +0.000 C 
ENDBRANCH   2   5
BRANCH   1  17
ATOM     17  C   UNL     1      -0.605  11.153  18.502  0.00  0.00    +0.000 C 
BRANCH  17  22
ATOM     18  C   UNL     1      -0.693  11.700  22.311  0.00  0.00    +0.000 A 
ATOM     19  C   UNL     1      -0.533  13.082  22.391  0.00  0.00    +0.000 A 
ATOM     20  C   UNL     1      -0.436  13.841  21.225  0.00  0.00    +0.000 A 
ATOM     21  C   UNL     1      -0.487  13.225  19.972  0.00  0.00    +0.000 A 
ATOM     22  C   UNL     1      -0.622  11.833  19.870  0.00  0.00    +0.000 A 
ATOM     23  C   UNL     1      -0.734  11.086  21.056  0.00  0.00    +0.000 A 
BRANCH  18  25
ATOM     24  C   UNL     1      -0.164   9.568  23.198  0.00  0.00    +0.000 C 
ATOM     25  O   UNL     1      -0.781  10.839  23.368  0.00  0.00    +0.000 OA
ENDBRANCH  18  25
ENDBRANCH  17  22
BRANCH  17  26
ATOM     26  C   UNL     1      -1.981  11.114  17.842  0.00  0.00    +0.000 A 
ATOM     27  C   UNL     1      -2.115  10.536  16.564  0.00  0.00    +0.000 A 
ATOM     28  C   UNL     1      -3.354  10.493  15.918  0.00  0.00    +0.000 A 
ATOM     29  C   UNL     1      -4.479  11.036  16.536  0.00  0.00    +0.000 A 
ATOM     30  C   UNL     1      -4.364  11.623  17.791  0.00  0.00    +0.000 A 
ATOM     31  C   UNL     1      -3.126  11.663  18.441  0.00  0.00    +0.000 A 
ENDBRANCH  17  26
ENDBRANCH   1  17
TORSDOF 5
ENDMDL
MODEL 6
REMARK VINA RESULT:      -8.7      1.159      2.021
REMARK  Name = 
REMARK  7 active torsions:
REMARK  status: ('A' for Active; 'I' for Inactive)
REMARK    1  A    between atoms: C_1  and  O_2
REMARK    2  A    between atoms: O_2  and  C_3
REMARK    3  A    between atoms: C_7  and  C_8
REMARK    4  A    between atoms: C_8  and  N_9
REMARK    5  A    between atoms: C_8  and  C_24
REMARK    6  A    between atoms: C_10  and  C_12
REMARK    7  A    between atoms: N_22  and  C_23
REMARK                            x       y       z     vdW  Elec       q    Type
REMARK                         _______ _______ _______ _____ _____    ______ ____
ROOT
ATOM      1  N   UNL     1       2.713   6.978  18.835  0.00  0.00    +0.000 N 
ATOM      2  C   UNL     1       2.287   8.144  18.242  0.00  0.00    +0.000 C 
ATOM      3  O   UNL     1       2.492   8.425  17.066  0.00  0.00    +0.000 OA
ATOM      4  H   UNL     1       2.520   6.814  19.809  0.00  0.00    +0.000 HD
ENDROOT
BRANCH   2   5
ATOM      5  C   UNL     1       1.525   9.099  19.091  0.00  0.00    +0.000 A 
ATOM      6  C   UNL     1       0.788  10.099  18.458  0.00  0.00    +0.000 A 
ATOM      7  C   UNL     1      -0.064  10.926  19.198  0.00  0.00    +0.000 A 
ATOM      8  C   UNL     1      -0.237  10.745  20.581  0.00  0.00    +0.000 A 
ATOM      9  C   UNL     1       0.503   9.740  21.216  0.00  0.00    +0.000 A 
ATOM     10  C   UNL     1       1.407   8.942  20.475  0.00  0.00    +0.000 A 
ATOM     11  C   UNL     1       0.364   9.477  22.683  0.00  0.00    +0.000 C 
ATOM     12  C   UNL     1      -0.841  10.108  23.342  0.00  0.00    +0.000 C 
ATOM     13  C   UNL     1      -1.492  11.272  22.643  0.00  0.00    +0.000 C 
ATOM     14  O   UNL     1      -2.349  11.916  23.257  0.00  0.00    +0.000 OA
ATOM     15  N   UNL     1      -1.161  11.534  21.324  0.00  0.00    +0.000 N 
ATOM     16  C   UNL     1      -1.865  12.628  20.662  0.00  0.00    +0.000 C 
ENDBRANCH   2   5
BRANCH   1  17
ATOM     17  C   UNL     1       3.213   5.866  18.032  0.00  0.00    +0.000 C 
BRANCH  17  22
ATOM     18  C   UNL     1       2.732   2.665  20.115  0.00  0.00    +0.000 A 
ATOM     19  C   UNL     1       1.536   2.177  19.592  0.00  0.00    +0.000 A 
ATOM     20  C   UNL     1       0.905   2.852  18.547  0.00  0.00    +0.000 A 
ATOM     21  C   UNL     1       1.458   4.024  18.025  0.00  0.00    +0.000 A 
ATOM     22  C   UNL     1       2.648   4.546  18.554  0.00  0.00    +0.000 A 
ATOM     23  C   UNL     1       3.277   3.844  19.597  0.00  0.00    +0.000 A 
BRANCH  18  25
ATOM     24  C   UNL     1       4.774   1.715  20.851  0.00  0.00    +0.000 C 
ATOM     25  O   UNL     1       3.441   2.117  21.146  0.00  0.00    +0.000 OA
ENDBRANCH  18  25
ENDBRANCH  17  22
BRANCH  17  26
ATOM     26  C   UNL     1       4.735   5.855  17.920  0.00  0.00    +0.000 A 
ATOM     27  C   UNL     1       5.509   5.654  19.080  0.00  0.00    +0.000 A 
ATOM     28  C   UNL     1       6.905   5.651  19.024  0.00  0.00    +0.000 A 
ATOM     29  C   UNL     1       7.553   5.857  17.808  0.00  0.00    +0.000 A 
ATOM     30  C   UNL     1       6.807   6.071  16.654  0.00  0.00    +0.000 A 
ATOM     31  C   UNL     1       5.410   6.070  16.707  0.00  0.00    +0.000 A 
ENDBRANCH  17  26
ENDBRANCH   1  17
TORSDOF 5
ENDMDL
MODEL 7
REMARK VINA RESULT:      -8.6      1.360      1.848
REMARK  Name = 
REMARK  7 active torsions:
REMARK  status: ('A' for Active; 'I' for Inactive)
REMARK    1  A    between atoms: C_1  and  O_2
REMARK    2  A    between atoms: O_2  and  C_3
REMARK    3  A    between atoms: C_7  and  C_8
REMARK    4  A    between atoms: C_8  and  N_9
REMARK    5  A    between atoms: C_8  and  C_24
REMARK    6  A    between atoms: C_10  and  C_12
REMARK    7  A    between atoms: N_22  and  C_23
REMARK                            x       y       z     vdW  Elec       q    Type
REMARK                         _______ _______ _______ _____ _____    ______ ____
ROOT
ATOM      1  N   UNL     1       2.473   7.468  19.078  0.00  0.00    +0.000 N 
ATOM      2  C   UNL     1       2.014   8.566  18.389  0.00  0.00    +0.000 C 
ATOM      3  O   UNL     1       2.162   8.724  17.183  0.00  0.00    +0.000 OA
ATOM      4  H   UNL     1       2.328   7.405  20.072  0.00  0.00    +0.000 HD
ENDROOT
BRANCH   2   5
ATOM      5  C   UNL     1       1.288   9.604  19.171  0.00  0.00    +0.000 A 
ATOM      6  C   UNL     1       0.568   9.198  20.293  0.00  0.00    +0.000 A 
ATOM      7  C   UNL     1      -0.006  10.147  21.147  0.00  0.00    +0.000 A 
ATOM      8  C   UNL     1       0.165  11.524  20.928  0.00  0.00    +0.000 A 
ATOM      9  C   UNL     1       0.890  11.931  19.801  0.00  0.00    +0.000 A 
ATOM     10  C   UNL     1       1.421  10.970  18.907  0.00  0.00    +0.000 A 
ATOM     11  C   UNL     1       1.127  13.379  19.506  0.00  0.00    +0.000 C 
ATOM     12  C   UNL     1       0.846  14.326  20.651  0.00  0.00    +0.000 C 
ATOM     13  C   UNL     1      -0.054  13.841  21.756  0.00  0.00    +0.000 C 
ATOM     14  O   UNL     1      -0.446  14.663  22.592  0.00  0.00    +0.000 OA
ATOM     15  N   UNL     1      -0.351  12.491  21.837  0.00  0.00    +0.000 N 
ATOM     16  C   UNL     1      -1.170  12.052  22.963  0.00  0.00    +0.000 C 
ENDBRANCH   2   5
BRANCH   1  17
ATOM     17  C   UNL     1       2.940   6.279  18.371  0.00  0.00    +0.000 C 
BRANCH  17  22
ATOM     18  C   UNL     1       2.110   2.590  19.095  0.00  0.00    +0.000 A 
ATOM     19  C   UNL     1       1.379   2.702  20.276  0.00  0.00    +0.000 A 
ATOM     20  C   UNL     1       1.121   3.961  20.819  0.00  0.00    +0.000 A 
ATOM     21  C   UNL     1       1.598   5.114  20.192  0.00  0.00    +0.000 A 
ATOM     22  C   UNL     1       2.357   5.022  19.016  0.00  0.00    +0.000 A 
ATOM     23  C   UNL     1       2.595   3.746  18.476  0.00  0.00    +0.000 A 
BRANCH  18  25
ATOM     24  C   UNL     1       3.825   1.269  18.132  0.00  0.00    +0.000 C 
ATOM     25  O   UNL     1       2.451   1.425  18.468  0.00  0.00    +0.000 OA
ENDBRANCH  18  25
ENDBRANCH  17  22
BRANCH  17  26
ATOM     26  C   UNL     1       4.460   6.226  18.240  0.00  0.00    +0.000 A 
ATOM     27  C   UNL     1       5.212   5.557  19.226  0.00  0.00    +0.000 A 
ATOM     28  C   UNL     1       6.606   5.497  19.152  0.00  0.00    +0.000 A 
ATOM     29  C   UNL     1       7.274   6.114  18.096  0.00  0.00    +0.000 A 
ATOM     30  C   UNL     1       6.550   6.792  17.121  0.00  0.00    +0.000 A 
ATOM     31  C   UNL     1       5.154   6.848  17.190  0.00  0.00    +0.000 A 
ENDBRANCH  17  26
ENDBRANCH   1  17
TORSDOF 5
ENDMDL
MODEL 8
REMARK VINA RESULT:      -8.6      2.699      8.314
REMARK  Name = 
REMARK  7 active torsions:
REMARK  status: ('A' for Active; 'I' for Inactive)
REMARK    1  A    between atoms: C_1  and  O_2
REMARK    2  A    between atoms: O_2  and  C_3
REMARK    3  A    between atoms: C_7  and  C_8
REMARK    4  A    between atoms: C_8  and  N_9
REMARK    5  A    between atoms: C_8  and  C_24
REMARK    6  A    between atoms: C_10  and  C_12
REMARK    7  A    between atoms: N_22  and  C_23
REMARK                            x       y       z     vdW  Elec       q    Type
REMARK                         _______ _______ _______ _____ _____    ______ ____
ROOT
ATOM      1  N   UNL     1       0.733   9.669  19.190  0.00  0.00    +0.000 N 
ATOM      2  C   UNL     1       1.198   9.005  20.302  0.00  0.00    +0.000 C 
ATOM      3  O   UNL     1       1.148   9.462  21.438  0.00  0.00    +0.000 OA
ATOM      4  H   UNL     1       0.814   9.242  18.283  0.00  0.00    +0.000 HD
ENDROOT
BRANCH   2   5
ATOM      5  C   UNL     1       1.781   7.653  20.091  0.00  0.00    +0.000 A 
ATOM      6  C   UNL     1       1.362   6.618  20.926  0.00  0.00    +0.000 A 
ATOM      7  C   UNL     1       1.761   5.301  20.677  0.00  0.00    +0.000 A 
ATOM      8  C   UNL     1       2.551   4.977  19.560  0.00  0.00    +0.000 A 
ATOM      9  C   UNL     1       2.970   6.016  18.721  0.00  0.00    +0.000 A 
ATOM     10  C   UNL     1       2.612   7.355  19.007  0.00  0.00    +0.000 A 
ATOM     11  C   UNL     1       3.801   5.750  17.505  0.00  0.00    +0.000 C 
ATOM     12  C   UNL     1       3.858   4.305  17.063  0.00  0.00    +0.000 C 
ATOM     13  C   UNL     1       3.514   3.249  18.081  0.00  0.00    +0.000 C 
ATOM     14  O   UNL     1       3.742   2.068  17.795  0.00  0.00    +0.000 OA
ATOM     15  N   UNL     1       2.895   3.628  19.260  0.00  0.00    +0.000 N 
ATOM     16  C   UNL     1       2.515   2.567  20.188  0.00  0.00    +0.000 C 
ENDBRANCH   2   5
BRANCH   1  17
ATOM     17  C   UNL     1      -0.101  10.861  19.321  0.00  0.00    +0.000 C 
BRANCH  17  22
ATOM     18  C   UNL     1      -3.663  11.335  17.943  0.00  0.00    +0.000 A 
ATOM     19  C   UNL     1      -3.613  10.560  16.785  0.00  0.00    +0.000 A 
ATOM     20  C   UNL     1      -2.452   9.857  16.468  0.00  0.00    +0.000 A 
ATOM     21  C   UNL     1      -1.330   9.930  17.297  0.00  0.00    +0.000 A 
ATOM     22  C   UNL     1      -1.351  10.724  18.453  0.00  0.00    +0.000 A 
ATOM     23  C   UNL     1      -2.536  11.414  18.765  0.00  0.00    +0.000 A 
BRANCH  18  25
ATOM     24  C   UNL     1      -5.747  12.323  17.400  0.00  0.00    +0.000 C 
ATOM     25  O   UNL     1      -4.725  12.087  18.361  0.00  0.00    +0.000 OA
ENDBRANCH  18  25
ENDBRANCH  17  22
BRANCH  17  26
ATOM     26  C   UNL     1       0.667  12.152  19.053  0.00  0.00    +0.000 A 
ATOM     27  C   UNL     1       1.932  12.085  18.435  0.00  0.00    +0.000 A 
ATOM     28  C   UNL     1       2.675  13.241  18.184  0.00  0.00    +0.000 A 
ATOM     29  C   UNL     1       2.170  14.486  18.554  0.00  0.00    +0.000 A 
ATOM     30  C   UNL     1       0.930  14.572  19.177  0.00  0.00    +0.000 A 
ATOM     31  C   UNL     1       0.183  13.416  19.425  0.00  0.00    +0.000 A 
ENDBRANCH  17  26
ENDBRANCH   1  17
TORSDOF 5
ENDMDL
MODEL 9
REMARK VINA RESULT:      -8.6      2.721      8.423
REMARK  Name = 
REMARK  7 active torsions:
REMARK  status: ('A' for Active; 'I' for Inactive)
REMARK    1  A    between atoms: C_1  and  O_2
REMARK    2  A    between atoms: O_2  and  C_3
REMARK    3  A    between atoms: C_7  and  C_8
REMARK    4  A    between atoms: C_8  and  N_9
REMARK    5  A    between atoms: C_8  and  C_24
REMARK    6  A    between atoms: C_10  and  C_12
REMARK    7  A    between atoms: N_22  and  C_23
REMARK                            x       y       z     vdW  Elec       q    Type
REMARK                         _______ _______ _______ _____ _____    ______ ____
ROOT
ATOM      1  N   UNL     1       0.989   9.673  19.251  0.00  0.00    +0.000 N 
ATOM      2  C   UNL     1       1.177   8.772  20.274  0.00  0.00    +0.000 C 
ATOM      3  O   UNL     1       0.873   8.992  21.441  0.00  0.00    +0.000 OA
ATOM      4  H   UNL     1       1.271   9.433  18.316  0.00  0.00    +0.000 HD
ENDROOT
BRANCH   2   5
ATOM      5  C   UNL     1       1.773   7.456  19.918  0.00  0.00    +0.000 A 
ATOM      6  C   UNL     1       2.725   7.418  18.900  0.00  0.00    +0.000 A 
ATOM      7  C   UNL     1       3.425   6.238  18.628  0.00  0.00    +0.000 A 
ATOM      8  C   UNL     1       3.226   5.078  19.397  0.00  0.00    +0.000 A 
ATOM      9  C   UNL     1       2.270   5.117  20.420  0.00  0.00    +0.000 A 
ATOM     10  C   UNL     1       1.522   6.295  20.655  0.00  0.00    +0.000 A 
ATOM     11  C   UNL     1       2.010   3.927  21.289  0.00  0.00    +0.000 C 
ATOM     12  C   UNL     1       3.056   2.837  21.225  0.00  0.00    +0.000 C 
ATOM     13  C   UNL     1       3.955   2.801  20.017  0.00  0.00    +0.000 C 
ATOM     14  O   UNL     1       4.677   1.811  19.857  0.00  0.00    +0.000 OA
ATOM     15  N   UNL     1       3.991   3.898  19.174  0.00  0.00    +0.000 N 
ATOM     16  C   UNL     1       4.927   3.851  18.054  0.00  0.00    +0.000 C 
ENDBRANCH   2   5
BRANCH   1  17
ATOM     17  C   UNL     1       0.164  10.863  19.442  0.00  0.00    +0.000 C 
BRANCH  17  22
ATOM     18  C   UNL     1      -3.458  11.370  18.241  0.00  0.00    +0.000 A 
ATOM     19  C   UNL     1      -3.470  10.601  17.079  0.00  0.00    +0.000 A 
ATOM     20  C   UNL     1      -2.331   9.890  16.702  0.00  0.00    +0.000 A 
ATOM     21  C   UNL     1      -1.170   9.951  17.477  0.00  0.00    +0.000 A 
ATOM     22  C   UNL     1      -1.128  10.739  18.636  0.00  0.00    +0.000 A 
ATOM     23  C   UNL     1      -2.291  11.438  19.008  0.00  0.00    +0.000 A 
BRANCH  18  25
ATOM     24  C   UNL     1      -5.746  11.961  18.062  0.00  0.00    +0.000 C 
ATOM     25  O   UNL     1      -4.492  12.129  18.714  0.00  0.00    +0.000 OA
ENDBRANCH  18  25
ENDBRANCH  17  22
BRANCH  17  26
ATOM     26  C   UNL     1       0.919  12.158  19.155  0.00  0.00    +0.000 A 
ATOM     27  C   UNL     1       2.124  12.105  18.428  0.00  0.00    +0.000 A 
ATOM     28  C   UNL     1       2.855  13.265  18.155  0.00  0.00    +0.000 A 
ATOM     29  C   UNL     1       2.396  14.498  18.614  0.00  0.00    +0.000 A 
ATOM     30  C   UNL     1       1.216  14.570  19.345  0.00  0.00    +0.000 A 
ATOM     31  C   UNL     1       0.481  13.411  19.615  0.00  0.00    +0.000 A 
ENDBRANCH  17  26
ENDBRANCH   1  17
TORSDOF 5
ENDMDL
