MODEL 1
REMARK VINA RESULT:      -8.2      0.000      0.000
REMARK  Name = 
REMARK  4 active torsions:
REMARK  status: ('A' for Active; 'I' for Inactive)
REMARK    1  A    between atoms: C_5  and  C_7
REMARK    2  A    between atoms: C_7  and  S_8
REMARK    3  A    between atoms: S_8  and  C_9
REMARK    4  A    between atoms: N_13  and  C_14
REMARK                            x       y       z     vdW  Elec       q    Type
REMARK                         _______ _______ _______ _____ _____    ______ ____
ROOT
ATOM      1  O   UNL     1       2.744   8.049  17.699  0.00  0.00    +0.000 OA
ATOM      2  C   UNL     1       2.920   6.937  18.192  0.00  0.00    +0.000 C 
ATOM      3  C   UNL     1       3.687   5.839  17.475  0.00  0.00    +0.000 C 
ATOM      4  N   UNL     1       4.233   4.792  18.349  0.00  0.00    +0.000 N 
ATOM      5  C   UNL     1       5.532   4.276  18.223  0.00  0.00    +0.000 C 
ATOM      6  O   UNL     1       6.021   3.492  19.044  0.00  0.00    +0.000 OA
ATOM      7  C   UNL     1       3.359   4.386  19.421  0.00  0.00    +0.000 A 
ATOM      8  C   UNL     1       3.433   3.129  20.033  0.00  0.00    +0.000 A 
ATOM      9  C   UNL     1       2.595   2.803  21.106  0.00  0.00    +0.000 A 
ATOM     10  C   UNL     1       1.681   3.733  21.594  0.00  0.00    +0.000 A 
ATOM     11  C   UNL     1       1.587   4.987  20.996  0.00  0.00    +0.000 A 
ATOM     12  C   UNL     1       2.402   5.300  19.903  0.00  0.00    +0.000 A 
ATOM     13  N   UNL     1       2.277   6.573  19.341  0.00  0.00    +0.000 N 
ATOM     14  H   UNL     1       1.680   7.268  19.761  0.00  0.00    +0.000 HD
ENDROOT
BRANCH   5  15
ATOM     15  C   UNL     1       6.392   4.792  17.062  0.00  0.00    +0.000 C 
BRANCH  15  16
ATOM     16  S   UNL     1       6.048   3.839  15.559  0.00  0.00    +0.000 S 
BRANCH  16  17
ATOM     17  C   UNL     1       6.949   4.691  14.352  0.00  0.00    +0.000 A 
ATOM     18  N   UNL     1       7.834   5.636  14.578  0.00  0.00    +0.000 NA
ATOM     19  N   UNL     1       8.478   5.840  13.386  0.00  0.00    +0.000 NA
ATOM     20  N   UNL     1       8.019   5.027  12.446  0.00  0.00    +0.000 NA
ATOM     21  N   UNL     1       6.982   4.349  13.006  0.00  0.00    +0.000 N 
BRANCH  21  22
ATOM     22  C   UNL     1       6.160   3.491  12.231  0.00  0.00    +0.000 A 
ATOM     23  C   UNL     1       6.685   2.286  11.743  0.00  0.00    +0.000 A 
ATOM     24  C   UNL     1       5.869   1.412  11.019  0.00  0.00    +0.000 A 
ATOM     25  C   UNL     1       4.543   1.749  10.750  0.00  0.00    +0.000 A 
ATOM     26  C   UNL     1       4.030   2.963  11.194  0.00  0.00    +0.000 A 
ATOM     27  C   UNL     1       4.835   3.834  11.930  0.00  0.00    +0.000 A 
ENDBRANCH  21  22
ENDBRANCH  16  17
ENDBRANCH  15  16
ENDBRANCH   5  15
TORSDOF 4
ENDMDL
MODEL 2
REMARK VINA RESULT:      -8.1      3.987      6.182
REMARK  Name = 
REMARK  4 active torsions:
REMARK  status: ('A' for Active; 'I' for Inactive)
REMARK    1  A    between atoms: C_5  and  C_7
REMARK    2  A    between atoms: C_7  and  S_8
REMARK    3  A    between atoms: S_8  and  C_9
REMARK    4  A    between atoms: N_13  and  C_14
REMARK                            x       y       z     vdW  Elec       q    Type
REMARK                         _______ _______ _______ _____ _____    ______ ____
ROOT
ATOM      1  O   UNL     1       2.367  11.686  17.728  0.00  0.00    +0.000 OA
ATOM      2  C   UNL     1       1.833  10.986  18.585  0.00  0.00    +0.000 C 
ATOM      3  C   UNL     1       1.556   9.508  18.376  0.00  0.00    +0.000 C 
ATOM      4  N   UNL     1       1.394   8.726  19.611  0.00  0.00    +0.000 N 
ATOM      5  C   UNL     1       1.984   7.469  19.815  0.00  0.00    +0.000 C 
ATOM      6  O   UNL     1       1.947   6.884  20.903  0.00  0.00    +0.000 OA
ATOM      7  C   UNL     1       0.649   9.390  20.650  0.00  0.00    +0.000 A 
ATOM      8  C   UNL     1      -0.037   8.701  21.657  0.00  0.00    +0.000 A 
ATOM      9  C   UNL     1      -0.704   9.394  22.675  0.00  0.00    +0.000 A 
ATOM     10  C   UNL     1      -0.681  10.786  22.711  0.00  0.00    +0.000 A 
ATOM     11  C   UNL     1      -0.008  11.491  21.716  0.00  0.00    +0.000 A 
ATOM     12  C   UNL     1       0.629  10.798  20.682  0.00  0.00    +0.000 A 
ATOM     13  N   UNL     1       1.297  11.547  19.710  0.00  0.00    +0.000 N 
ATOM     14  H   UNL     1       1.386  12.547  19.798  0.00  0.00    +0.000 HD
ENDROOT
BRANCH   5  15
ATOM     15  C   UNL     1       2.778   6.859  18.653  0.00  0.00    +0.000 C 
BRANCH  15  16
ATOM     16  S   UNL     1       2.123   5.219  18.241  0.00  0.00    +0.000 S 
BRANCH  16  17
ATOM     17  C   UNL     1       3.102   4.165  19.203  0.00  0.00    +0.000 A 
ATOM     18  N   UNL     1       2.719   3.547  20.299  0.00  0.00    +0.000 NA
ATOM     19  N   UNL     1       3.702   2.635  20.578  0.00  0.00    +0.000 NA
ATOM     20  N   UNL     1       4.663   2.668  19.666  0.00  0.00    +0.000 NA
ATOM     21  N   UNL     1       4.355   3.695  18.830  0.00  0.00    +0.000 N 
BRANCH  21  22
ATOM     22  C   UNL     1       5.254   4.112  17.814  0.00  0.00    +0.000 A 
ATOM     23  C   UNL     1       4.957   3.832  16.473  0.00  0.00    +0.000 A 
ATOM     24  C   UNL     1       5.812   4.280  15.462  0.00  0.00    +0.000 A 
ATOM     25  C   UNL     1       6.977   4.975  15.782  0.00  0.00    +0.000 A 
ATOM     26  C   UNL     1       7.298   5.217  17.114  0.00  0.00    +0.000 A 
ATOM     27  C   UNL     1       6.442   4.785  18.128  0.00  0.00    +0.000 A 
ENDBRANCH  21  22
ENDBRANCH  16  17
ENDBRANCH  15  16
ENDBRANCH   5  15
TORSDOF 4
ENDMDL
MODEL 3
REMARK VINA RESULT:      -8.1      3.042      7.355
REMARK  Name = 
REMARK  4 active torsions:
REMARK  status: ('A' for Active; 'I' for Inactive)
REMARK    1  A    between atoms: C_5  and  C_7
REMARK    2  A    between atoms: C_7  and  S_8
REMARK    3  A    between atoms: S_8  and  C_9
REMARK    4  A    between atoms: N_13  and  C_14
REMARK                            x       y       z     vdW  Elec       q    Type
REMARK                         _______ _______ _______ _____ _____    ______ ____
ROOT
ATOM      1  O   UNL     1       5.354   4.038  14.020  0.00  0.00    +0.000 OA
ATOM      2  C   UNL     1       5.497   4.278  15.217  0.00  0.00    +0.000 C 
ATOM      3  C   UNL     1       4.401   4.025  16.237  0.00  0.00    +0.000 C 
ATOM      4  N   UNL     1       4.866   3.881  17.624  0.00  0.00    +0.000 N 
ATOM      5  C   UNL     1       4.401   2.886  18.498  0.00  0.00    +0.000 C 
ATOM      6  O   UNL     1       4.895   2.697  19.615  0.00  0.00    +0.000 OA
ATOM      7  C   UNL     1       5.916   4.792  18.005  0.00  0.00    +0.000 A 
ATOM      8  C   UNL     1       6.150   5.176  19.330  0.00  0.00    +0.000 A 
ATOM      9  C   UNL     1       7.217   6.024  19.654  0.00  0.00    +0.000 A 
ATOM     10  C   UNL     1       8.075   6.488  18.660  0.00  0.00    +0.000 A 
ATOM     11  C   UNL     1       7.856   6.122  17.335  0.00  0.00    +0.000 A 
ATOM     12  C   UNL     1       6.770   5.302  17.009  0.00  0.00    +0.000 A 
ATOM     13  N   UNL     1       6.595   4.956  15.666  0.00  0.00    +0.000 N 
ATOM     14  H   UNL     1       7.274   5.220  14.970  0.00  0.00    +0.000 HD
ENDROOT
BRANCH   5  15
ATOM     15  C   UNL     1       3.298   1.950  17.988  0.00  0.00    +0.000 C 
BRANCH  15  16
ATOM     16  S   UNL     1       1.668   2.690  18.276  0.00  0.00    +0.000 S 
BRANCH  16  17
ATOM     17  C   UNL     1       1.706   3.052  19.968  0.00  0.00    +0.000 A 
ATOM     18  N   UNL     1       1.657   2.171  20.943  0.00  0.00    +0.000 NA
ATOM     19  N   UNL     1       1.973   2.859  22.085  0.00  0.00    +0.000 NA
ATOM     20  N   UNL     1       2.235   4.132  21.823  0.00  0.00    +0.000 NA
ATOM     21  N   UNL     1       1.983   4.305  20.499  0.00  0.00    +0.000 N 
BRANCH  21  22
ATOM     22  C   UNL     1       2.018   5.593  19.906  0.00  0.00    +0.000 A 
ATOM     23  C   UNL     1       1.717   6.720  20.683  0.00  0.00    +0.000 A 
ATOM     24  C   UNL     1       1.795   7.997  20.120  0.00  0.00    +0.000 A 
ATOM     25  C   UNL     1       2.139   8.154  18.778  0.00  0.00    +0.000 A 
ATOM     26  C   UNL     1       2.397   7.036  17.991  0.00  0.00    +0.000 A 
ATOM     27  C   UNL     1       2.334   5.759  18.550  0.00  0.00    +0.000 A 
ENDBRANCH  21  22
ENDBRANCH  16  17
ENDBRANCH  15  16
ENDBRANCH   5  15
TORSDOF 4
ENDMDL
MODEL 4
REMARK VINA RESULT:      -8.1      4.619      7.178
REMARK  Name = 
REMARK  4 active torsions:
REMARK  status: ('A' for Active; 'I' for Inactive)
REMARK    1  A    between atoms: C_5  and  C_7
REMARK    2  A    between atoms: C_7  and  S_8
REMARK    3  A    between atoms: S_8  and  C_9
REMARK    4  A    between atoms: N_13  and  C_14
REMARK                            x       y       z     vdW  Elec       q    Type
REMARK                         _______ _______ _______ _____ _____    ______ ____
ROOT
ATOM      1  O   UNL     1      -0.783   8.148  22.166  0.00  0.00    +0.000 OA
ATOM      2  C   UNL     1      -0.236   8.903  21.367  0.00  0.00    +0.000 C 
ATOM      3  C   UNL     1       1.157   8.641  20.819  0.00  0.00    +0.000 C 
ATOM      4  N   UNL     1       1.461   9.315  19.549  0.00  0.00    +0.000 N 
ATOM      5  C   UNL     1       2.106   8.687  18.473  0.00  0.00    +0.000 C 
ATOM      6  O   UNL     1       2.238   9.225  17.368  0.00  0.00    +0.000 OA
ATOM      7  C   UNL     1       0.961  10.664  19.448  0.00  0.00    +0.000 A 
ATOM      8  C   UNL     1       1.528  11.627  18.606  0.00  0.00    +0.000 A 
ATOM      9  C   UNL     1       0.973  12.909  18.506  0.00  0.00    +0.000 A 
ATOM     10  C   UNL     1      -0.166  13.243  19.234  0.00  0.00    +0.000 A 
ATOM     11  C   UNL     1      -0.742  12.301  20.082  0.00  0.00    +0.000 A 
ATOM     12  C   UNL     1      -0.167  11.031  20.206  0.00  0.00    +0.000 A 
ATOM     13  N   UNL     1      -0.785  10.117  21.064  0.00  0.00    +0.000 N 
ATOM     14  H   UNL     1      -1.659  10.338  21.513  0.00  0.00    +0.000 HD
ENDROOT
BRANCH   5  15
ATOM     15  C   UNL     1       2.578   7.241  18.673  0.00  0.00    +0.000 C 
BRANCH  15  16
ATOM     16  S   UNL     1       3.766   6.787  17.382  0.00  0.00    +0.000 S 
BRANCH  16  17
ATOM     17  C   UNL     1       4.871   5.756  18.226  0.00  0.00    +0.000 A 
ATOM     18  N   UNL     1       6.170   5.934  18.318  0.00  0.00    +0.000 NA
ATOM     19  N   UNL     1       6.603   5.051  19.272  0.00  0.00    +0.000 NA
ATOM     20  N   UNL     1       5.594   4.355  19.777  0.00  0.00    +0.000 NA
ATOM     21  N   UNL     1       4.493   4.716  19.065  0.00  0.00    +0.000 N 
BRANCH  21  22
ATOM     22  C   UNL     1       3.252   4.052  19.243  0.00  0.00    +0.000 A 
ATOM     23  C   UNL     1       2.564   4.187  20.457  0.00  0.00    +0.000 A 
ATOM     24  C   UNL     1       1.318   3.576  20.624  0.00  0.00    +0.000 A 
ATOM     25  C   UNL     1       0.771   2.803  19.601  0.00  0.00    +0.000 A 
ATOM     26  C   UNL     1       1.470   2.630  18.411  0.00  0.00    +0.000 A 
ATOM     27  C   UNL     1       2.708   3.249  18.232  0.00  0.00    +0.000 A 
ENDBRANCH  21  22
ENDBRANCH  16  17
ENDBRANCH  15  16
ENDBRANCH   5  15
TORSDOF 4
ENDMDL
MODEL 5
REMARK VINA RESULT:      -7.9      4.754      7.009
REMARK  Name = 
REMARK  4 active torsions:
REMARK  status: ('A' for Active; 'I' for Inactive)
REMARK    1  A    between atoms: C_5  and  C_7
REMARK    2  A    between atoms: C_7  and  S_8
REMARK    3  A    between atoms: S_8  and  C_9
REMARK    4  A    between atoms: N_13  and  C_14
REMARK                            x       y       z     vdW  Elec       q    Type
REMARK                         _______ _______ _______ _____ _____    ______ ____
ROOT
ATOM      1  O   UNL     1       2.470  11.933  17.686  0.00  0.00    +0.000 OA
ATOM      2  C   UNL     1       1.821  11.473  18.623  0.00  0.00    +0.000 C 
ATOM      3  C   UNL     1       1.357  10.027  18.662  0.00  0.00    +0.000 C 
ATOM      4  N   UNL     1       1.054   9.509  20.004  0.00  0.00    +0.000 N 
ATOM      5  C   UNL     1       1.465   8.246  20.459  0.00  0.00    +0.000 C 
ATOM      6  O   UNL     1       1.315   7.879  21.629  0.00  0.00    +0.000 OA
ATOM      7  C   UNL     1       0.369  10.439  20.867  0.00  0.00    +0.000 A 
ATOM      8  C   UNL     1      -0.434  10.035  21.939  0.00  0.00    +0.000 A 
ATOM      9  C   UNL     1      -1.036  10.978  22.781  0.00  0.00    +0.000 A 
ATOM     10  C   UNL     1      -0.830  12.340  22.573  0.00  0.00    +0.000 A 
ATOM     11  C   UNL     1      -0.039  12.763  21.509  0.00  0.00    +0.000 A 
ATOM     12  C   UNL     1       0.535  11.819  20.649  0.00  0.00    +0.000 A 
ATOM     13  N   UNL     1       1.327  12.291  19.599  0.00  0.00    +0.000 N 
ATOM     14  H   UNL     1       1.544  13.272  19.514  0.00  0.00    +0.000 HD
ENDROOT
BRANCH   5  15
ATOM     15  C   UNL     1       2.208   7.342  19.468  0.00  0.00    +0.000 C 
BRANCH  15  16
ATOM     16  S   UNL     1       2.528   5.723  20.219  0.00  0.00    +0.000 S 
BRANCH  16  17
ATOM     17  C   UNL     1       2.712   4.692  18.841  0.00  0.00    +0.000 A 
ATOM     18  N   UNL     1       1.799   3.873  18.367  0.00  0.00    +0.000 NA
ATOM     19  N   UNL     1       2.263   3.461  17.146  0.00  0.00    +0.000 NA
ATOM     20  N   UNL     1       3.426   4.027  16.857  0.00  0.00    +0.000 NA
ATOM     21  N   UNL     1       3.781   4.743  17.956  0.00  0.00    +0.000 N 
BRANCH  21  22
ATOM     22  C   UNL     1       5.053   5.365  18.050  0.00  0.00    +0.000 A 
ATOM     23  C   UNL     1       5.398   6.372  17.138  0.00  0.00    +0.000 A 
ATOM     24  C   UNL     1       6.630   7.023  17.251  0.00  0.00    +0.000 A 
ATOM     25  C   UNL     1       7.532   6.653  18.248  0.00  0.00    +0.000 A 
ATOM     26  C   UNL     1       7.212   5.624  19.128  0.00  0.00    +0.000 A 
ATOM     27  C   UNL     1       5.978   4.979  19.029  0.00  0.00    +0.000 A 
ENDBRANCH  21  22
ENDBRANCH  16  17
ENDBRANCH  15  16
ENDBRANCH   5  15
TORSDOF 4
ENDMDL
MODEL 6
REMARK VINA RESULT:      -7.9      3.917      5.822
REMARK  Name = 
REMARK  4 active torsions:
REMARK  status: ('A' for Active; 'I' for Inactive)
REMARK    1  A    between atoms: C_5  and  C_7
REMARK    2  A    between atoms: C_7  and  S_8
REMARK    3  A    between atoms: S_8  and  C_9
REMARK    4  A    between atoms: N_13  and  C_14
REMARK                            x       y       z     vdW  Elec       q    Type
REMARK                         _______ _______ _______ _____ _____    ______ ____
ROOT
ATOM      1  O   UNL     1       2.111  12.537  17.914  0.00  0.00    +0.000 OA
ATOM      2  C   UNL     1       1.659  11.659  18.646  0.00  0.00    +0.000 C 
ATOM      3  C   UNL     1       1.395  10.245  18.157  0.00  0.00    +0.000 C 
ATOM      4  N   UNL     1       1.344   9.223  19.212  0.00  0.00    +0.000 N 
ATOM      5  C   UNL     1       1.972   7.972  19.111  0.00  0.00    +0.000 C 
ATOM      6  O   UNL     1       2.030   7.177  20.055  0.00  0.00    +0.000 OA
ATOM      7  C   UNL     1       0.668   9.635  20.417  0.00  0.00    +0.000 A 
ATOM      8  C   UNL     1       0.075   8.732  21.307  0.00  0.00    +0.000 A 
ATOM      9  C   UNL     1      -0.524   9.180  22.491  0.00  0.00    +0.000 A 
ATOM     10  C   UNL     1      -0.525  10.535  22.811  0.00  0.00    +0.000 A 
ATOM     11  C   UNL     1       0.055  11.450  21.937  0.00  0.00    +0.000 A 
ATOM     12  C   UNL     1       0.624  11.005  20.739  0.00  0.00    +0.000 A 
ATOM     13  N   UNL     1       1.200  11.960  19.897  0.00  0.00    +0.000 N 
ATOM     14  H   UNL     1       1.276  12.924  20.182  0.00  0.00    +0.000 HD
ENDROOT
BRANCH   5  15
ATOM     15  C   UNL     1       2.685   7.640  17.794  0.00  0.00    +0.000 C 
BRANCH  15  16
ATOM     16  S   UNL     1       4.397   7.137  18.121  0.00  0.00    +0.000 S 
BRANCH  16  17
ATOM     17  C   UNL     1       4.788   6.188  16.727  0.00  0.00    +0.000 A 
ATOM     18  N   UNL     1       5.406   6.622  15.651  0.00  0.00    +0.000 NA
ATOM     19  N   UNL     1       5.735   5.504  14.932  0.00  0.00    +0.000 NA
ATOM     20  N   UNL     1       5.351   4.400  15.556  0.00  0.00    +0.000 NA
ATOM     21  N   UNL     1       4.664   4.807  16.655  0.00  0.00    +0.000 N 
BRANCH  21  22
ATOM     22  C   UNL     1       3.980   3.878  17.481  0.00  0.00    +0.000 A 
ATOM     23  C   UNL     1       4.617   3.368  18.621  0.00  0.00    +0.000 A 
ATOM     24  C   UNL     1       3.934   2.489  19.467  0.00  0.00    +0.000 A 
ATOM     25  C   UNL     1       2.633   2.089  19.164  0.00  0.00    +0.000 A 
ATOM     26  C   UNL     1       2.013   2.559  18.010  0.00  0.00    +0.000 A 
ATOM     27  C   UNL     1       2.684   3.448  17.169  0.00  0.00    +0.000 A 
ENDBRANCH  21  22
ENDBRANCH  16  17
ENDBRANCH  15  16
ENDBRANCH   5  15
TORSDOF 4
ENDMDL
MODEL 7
REMARK VINA RESULT:      -7.8      3.324      8.562
REMARK  Name = 
REMARK  4 active torsions:
REMARK  status: ('A' for Active; 'I' for Inactive)
REMARK    1  A    between atoms: C_5  and  C_7
REMARK    2  A    between atoms: C_7  and  S_8
REMARK    3  A    between atoms: S_8  and  C_9
REMARK    4  A    between atoms: N_13  and  C_14
REMARK                            x       y       z     vdW  Elec       q    Type
REMARK                         _______ _______ _______ _____ _____    ______ ____
ROOT
ATOM      1  O   UNL     1       8.129   7.491  18.462  0.00  0.00    +0.000 OA
ATOM      2  C   UNL     1       7.422   6.665  17.891  0.00  0.00    +0.000 C 
ATOM      3  C   UNL     1       6.465   5.753  18.640  0.00  0.00    +0.000 C 
ATOM      4  N   UNL     1       5.368   5.205  17.829  0.00  0.00    +0.000 N 
ATOM      5  C   UNL     1       4.035   5.149  18.265  0.00  0.00    +0.000 C 
ATOM      6  O   UNL     1       3.106   4.807  17.525  0.00  0.00    +0.000 OA
ATOM      7  C   UNL     1       5.746   4.804  16.497  0.00  0.00    +0.000 A 
ATOM      8  C   UNL     1       5.045   3.841  15.762  0.00  0.00    +0.000 A 
ATOM      9  C   UNL     1       5.422   3.524  14.451  0.00  0.00    +0.000 A 
ATOM     10  C   UNL     1       6.495   4.176  13.849  0.00  0.00    +0.000 A 
ATOM     11  C   UNL     1       7.209   5.134  14.565  0.00  0.00    +0.000 A 
ATOM     12  C   UNL     1       6.851   5.426  15.886  0.00  0.00    +0.000 A 
ATOM     13  N   UNL     1       7.592   6.399  16.561  0.00  0.00    +0.000 N 
ATOM     14  H   UNL     1       8.305   6.930  16.086  0.00  0.00    +0.000 HD
ENDROOT
BRANCH   5  15
ATOM     15  C   UNL     1       3.734   5.623  19.692  0.00  0.00    +0.000 C 
BRANCH  15  16
ATOM     16  S   UNL     1       2.052   6.294  19.786  0.00  0.00    +0.000 S 
BRANCH  16  17
ATOM     17  C   UNL     1       2.203   7.817  18.980  0.00  0.00    +0.000 A 
ATOM     18  N   UNL     1       2.803   8.021  17.828  0.00  0.00    +0.000 NA
ATOM     19  N   UNL     1       2.463   9.292  17.448  0.00  0.00    +0.000 NA
ATOM     20  N   UNL     1       1.653   9.859  18.331  0.00  0.00    +0.000 NA
ATOM     21  N   UNL     1       1.544   8.979  19.362  0.00  0.00    +0.000 N 
BRANCH  21  22
ATOM     22  C   UNL     1       0.863   9.327  20.557  0.00  0.00    +0.000 A 
ATOM     23  C   UNL     1       1.335   8.844  21.786  0.00  0.00    +0.000 A 
ATOM     24  C   UNL     1       0.700   9.219  22.973  0.00  0.00    +0.000 A 
ATOM     25  C   UNL     1      -0.424  10.045  22.939  0.00  0.00    +0.000 A 
ATOM     26  C   UNL     1      -0.922  10.490  21.719  0.00  0.00    +0.000 A 
ATOM     27  C   UNL     1      -0.284  10.131  20.531  0.00  0.00    +0.000 A 
ENDBRANCH  21  22
ENDBRANCH  16  17
ENDBRANCH  15  16
ENDBRANCH   5  15
TORSDOF 4
ENDMDL
MODEL 8
REMARK VINA RESULT:      -7.7      4.335      7.200
REMARK  Name = 
REMARK  4 active torsions:
REMARK  status: ('A' for Active; 'I' for Inactive)
REMARK    1  A    between atoms: C_5  and  C_7
REMARK    2  A    between atoms: C_7  and  S_8
REMARK    3  A    between atoms: S_8  and  C_9
REMARK    4  A    between atoms: N_13  and  C_14
REMARK                            x       y       z     vdW  Elec       q    Type
REMARK                         _______ _______ _______ _____ _____    ______ ____
ROOT
ATOM      1  O   UNL     1      -0.788   8.276  22.144  0.00  0.00    +0.000 OA
ATOM      2  C   UNL     1      -0.188   9.007  21.360  0.00  0.00    +0.000 C 
ATOM      3  C   UNL     1       1.102   8.587  20.678  0.00  0.00    +0.000 C 
ATOM      4  N   UNL     1       1.416   9.317  19.441  0.00  0.00    +0.000 N 
ATOM      5  C   UNL     1       1.875   8.696  18.269  0.00  0.00    +0.000 C 
ATOM      6  O   UNL     1       2.009   9.303  17.201  0.00  0.00    +0.000 OA
ATOM      7  C   UNL     1       1.129  10.729  19.485  0.00  0.00    +0.000 A 
ATOM      8  C   UNL     1       1.777  11.666  18.673  0.00  0.00    +0.000 A 
ATOM      9  C   UNL     1       1.425  13.020  18.717  0.00  0.00    +0.000 A 
ATOM     10  C   UNL     1       0.408  13.456  19.563  0.00  0.00    +0.000 A 
ATOM     11  C   UNL     1      -0.246  12.541  20.383  0.00  0.00    +0.000 A 
ATOM     12  C   UNL     1       0.130  11.194  20.362  0.00  0.00    +0.000 A 
ATOM     13  N   UNL     1      -0.560  10.312  21.197  0.00  0.00    +0.000 N 
ATOM     14  H   UNL     1      -1.354  10.621  21.735  0.00  0.00    +0.000 HD
ENDROOT
BRANCH   5  15
ATOM     15  C   UNL     1       2.127   7.183  18.319  0.00  0.00    +0.000 C 
BRANCH  15  16
ATOM     16  S   UNL     1       3.900   6.850  18.500  0.00  0.00    +0.000 S 
BRANCH  16  17
ATOM     17  C   UNL     1       4.124   5.435  17.529  0.00  0.00    +0.000 A 
ATOM     18  N   UNL     1       4.807   5.373  16.408  0.00  0.00    +0.000 NA
ATOM     19  N   UNL     1       4.941   4.040  16.123  0.00  0.00    +0.000 NA
ATOM     20  N   UNL     1       4.373   3.289  17.057  0.00  0.00    +0.000 NA
ATOM     21  N   UNL     1       3.765   4.150  17.915  0.00  0.00    +0.000 N 
BRANCH  21  22
ATOM     22  C   UNL     1       2.931   3.679  18.962  0.00  0.00    +0.000 A 
ATOM     23  C   UNL     1       3.511   3.227  20.156  0.00  0.00    +0.000 A 
ATOM     24  C   UNL     1       2.697   2.805  21.211  0.00  0.00    +0.000 A 
ATOM     25  C   UNL     1       1.309   2.800  21.070  0.00  0.00    +0.000 A 
ATOM     26  C   UNL     1       0.731   3.207  19.872  0.00  0.00    +0.000 A 
ATOM     27  C   UNL     1       1.538   3.642  18.819  0.00  0.00    +0.000 A 
ENDBRANCH  21  22
ENDBRANCH  16  17
ENDBRANCH  15  16
ENDBRANCH   5  15
TORSDOF 4
ENDMDL
MODEL 9
REMARK VINA RESULT:      -7.7      4.275      7.184
REMARK  Name = 
REMARK  4 active torsions:
REMARK  status: ('A' for Active; 'I' for Inactive)
REMARK    1  A    between atoms: C_5  and  C_7
REMARK    2  A    between atoms: C_7  and  S_8
REMARK    3  A    between atoms: S_8  and  C_9
REMARK    4  A    between atoms: N_13  and  C_14
REMARK                            x       y       z     vdW  Elec       q    Type
REMARK                         _______ _______ _______ _____ _____    ______ ____
ROOT
ATOM      1  O   UNL     1      -0.253   9.566  23.781  0.00  0.00    +0.000 OA
ATOM      2  C   UNL     1      -0.011  10.009  22.661  0.00  0.00    +0.000 C 
ATOM      3  C   UNL     1       1.198   9.569  21.853  0.00  0.00    +0.000 C 
ATOM      4  N   UNL     1       1.086   9.782  20.403  0.00  0.00    +0.000 N 
ATOM      5  C   UNL     1       1.467   8.827  19.447  0.00  0.00    +0.000 C 
ATOM      6  O   UNL     1       1.246   8.968  18.240  0.00  0.00    +0.000 OA
ATOM      7  C   UNL     1       0.463  11.026  20.024  0.00  0.00    +0.000 A 
ATOM      8  C   UNL     1       0.695  11.651  18.793  0.00  0.00    +0.000 A 
ATOM      9  C   UNL     1       0.025  12.832  18.451  0.00  0.00    +0.000 A 
ATOM     10  C   UNL     1      -0.898  13.397  19.327  0.00  0.00    +0.000 A 
ATOM     11  C   UNL     1      -1.138  12.794  20.559  0.00  0.00    +0.000 A 
ATOM     12  C   UNL     1      -0.444  11.632  20.913  0.00  0.00    +0.000 A 
ATOM     13  N   UNL     1      -0.724  11.059  22.156  0.00  0.00    +0.000 N 
ATOM     14  H   UNL     1      -1.459  11.424  22.741  0.00  0.00    +0.000 HD
ENDROOT
BRANCH   5  15
ATOM     15  C   UNL     1       2.099   7.525  19.957  0.00  0.00    +0.000 C 
BRANCH  15  16
ATOM     16  S   UNL     1       2.652   6.511  18.559  0.00  0.00    +0.000 S 
BRANCH  16  17
ATOM     17  C   UNL     1       3.120   5.030  19.323  0.00  0.00    +0.000 A 
ATOM     18  N   UNL     1       2.532   4.485  20.365  0.00  0.00    +0.000 NA
ATOM     19  N   UNL     1       3.050   3.221  20.468  0.00  0.00    +0.000 NA
ATOM     20  N   UNL     1       3.924   2.978  19.502  0.00  0.00    +0.000 NA
ATOM     21  N   UNL     1       4.058   4.143  18.813  0.00  0.00    +0.000 N 
BRANCH  21  22
ATOM     22  C   UNL     1       5.032   4.286  17.791  0.00  0.00    +0.000 A 
ATOM     23  C   UNL     1       6.331   4.692  18.128  0.00  0.00    +0.000 A 
ATOM     24  C   UNL     1       7.310   4.790  17.135  0.00  0.00    +0.000 A 
ATOM     25  C   UNL     1       6.992   4.518  15.805  0.00  0.00    +0.000 A 
ATOM     26  C   UNL     1       5.694   4.157  15.460  0.00  0.00    +0.000 A 
ATOM     27  C   UNL     1       4.715   4.043  16.448  0.00  0.00    +0.000 A 
ENDBRANCH  21  22
ENDBRANCH  16  17
ENDBRANCH  15  16
ENDBRANCH   5  15
TORSDOF 4
ENDMDL
