MODEL 1
REMARK VINA RESULT:      -8.0      0.000      0.000
REMARK  Name = 
REMARK  7 active torsions:
REMARK  status: ('A' for Active; 'I' for Inactive)
REMARK    1  A    between atoms: C_1  and  C_2
REMARK    2  A    between atoms: C_2  and  C_6
REMARK    3  A    between atoms: C_10  and  N_11
REMARK    4  A    between atoms: C_16  and  C_17
REMARK    5  A    between atoms: C_17  and  N_18
REMARK    6  A    between atoms: N_18  and  C_19
REMARK    7  A    between atoms: C_23  and  C_24
REMARK                            x       y       z     vdW  Elec       q    Type
REMARK                         _______ _______ _______ _____ _____    ______ ____
ROOT
ATOM      1  N   UNL     1       4.060   4.791  18.926  0.00  0.00    +0.000 N 
ATOM      2  C   UNL     1       5.360   5.470  19.161  0.00  0.00    +0.000 C 
ATOM      3  C   UNL     1       6.061   5.272  17.849  0.00  0.00    +0.000 A 
ATOM      4  C   UNL     1       5.526   4.126  17.259  0.00  0.00    +0.000 A 
ATOM      5  C   UNL     1       5.806   3.737  15.961  0.00  0.00    +0.000 A 
ATOM      6  C   UNL     1       6.679   4.542  15.222  0.00  0.00    +0.000 A 
ATOM      7  C   UNL     1       7.232   5.704  15.819  0.00  0.00    +0.000 A 
ATOM      8  C   UNL     1       6.941   6.084  17.147  0.00  0.00    +0.000 A 
ATOM      9  C   UNL     1       4.364   3.711  18.071  0.00  0.00    +0.000 C 
ATOM     10  O   UNL     1       3.701   2.709  17.841  0.00  0.00    +0.000 OA
ENDROOT
BRANCH   1  15
ATOM     11  C   UNL     1       2.054   7.750  19.278  0.00  0.00    +0.000 A 
ATOM     12  C   UNL     1       2.686   8.446  18.227  0.00  0.00    +0.000 A 
ATOM     13  C   UNL     1       3.271   7.769  17.160  0.00  0.00    +0.000 A 
ATOM     14  C   UNL     1       3.364   6.387  17.194  0.00  0.00    +0.000 A 
ATOM     15  C   UNL     1       3.066   5.733  18.395  0.00  0.00    +0.000 A 
ATOM     16  C   UNL     1       2.223   6.360  19.321  0.00  0.00    +0.000 A 
BRANCH  11  18
ATOM     17  C   UNL     1       1.044   7.735  21.642  0.00  0.00    +0.000 C 
ATOM     18  C   UNL     1       1.351   8.488  20.366  0.00  0.00    +0.000 C 
ATOM     19  C   UNL     1       1.060   9.759  20.101  0.00  0.00    +0.000 C 
ATOM     20  N   UNL     1       0.609  11.024  20.213  0.00  0.00    +0.000 NA
ATOM     21  N   UNL     1       0.393  10.349  21.186  0.00  0.00    +0.000 NA
ENDBRANCH  11  18
ENDBRANCH   1  15
BRANCH   8  22
ATOM     22  C   UNL     1       7.524   7.358  17.698  0.00  0.00    +0.000 C 
ATOM     23  F   UNL     1       8.404   7.969  16.858  0.00  0.00    +0.000 F 
ATOM     24  F   UNL     1       6.569   8.288  17.971  0.00  0.00    +0.000 F 
ATOM     25  F   UNL     1       8.199   7.160  18.863  0.00  0.00    +0.000 F 
ENDBRANCH   8  22
BRANCH   6  26
ATOM     26  C   UNL     1       7.015   4.188  13.789  0.00  0.00    +0.000 C 
BRANCH  26  27
ATOM     27  N   UNL     1       6.001   3.311  13.234  0.00  0.00    +0.000 N 
ATOM     28  H   UNL     1       6.198   2.315  13.277  0.00  0.00    +0.000 HD
BRANCH  27  29
ATOM     29  C   UNL     1       4.995   3.689  12.381  0.00  0.00    +0.000 C 
ATOM     30  C   UNL     1       4.456   2.969  11.400  0.00  0.00    +0.000 C 
ATOM     31  F   UNL     1       3.450   3.452  10.644  0.00  0.00    +0.000 F 
ENDBRANCH  27  29
ENDBRANCH  26  27
ENDBRANCH   6  26
TORSDOF 6
ENDMDL
MODEL 2
REMARK VINA RESULT:      -7.9      7.376     11.697
REMARK  Name = 
REMARK  7 active torsions:
REMARK  status: ('A' for Active; 'I' for Inactive)
REMARK    1  A    between atoms: C_1  and  C_2
REMARK    2  A    between atoms: C_2  and  C_6
REMARK    3  A    between atoms: C_10  and  N_11
REMARK    4  A    between atoms: C_16  and  C_17
REMARK    5  A    between atoms: C_17  and  N_18
REMARK    6  A    between atoms: N_18  and  C_19
REMARK    7  A    between atoms: C_23  and  C_24
REMARK                            x       y       z     vdW  Elec       q    Type
REMARK                         _______ _______ _______ _____ _____    ______ ____
ROOT
ATOM      1  N   UNL     1      -1.000  12.377  21.459  0.00  0.00    +0.000 N 
ATOM      2  C   UNL     1      -1.754  13.027  22.562  0.00  0.00    +0.000 C 
ATOM      3  C   UNL     1      -3.152  13.047  22.019  0.00  0.00    +0.000 A 
ATOM      4  C   UNL     1      -3.059  13.036  20.627  0.00  0.00    +0.000 A 
ATOM      5  C   UNL     1      -4.151  12.869  19.793  0.00  0.00    +0.000 A 
ATOM      6  C   UNL     1      -5.404  12.715  20.396  0.00  0.00    +0.000 A 
ATOM      7  C   UNL     1      -5.505  12.733  21.811  0.00  0.00    +0.000 A 
ATOM      8  C   UNL     1      -4.382  12.909  22.648  0.00  0.00    +0.000 A 
ATOM      9  C   UNL     1      -1.643  12.805  20.278  0.00  0.00    +0.000 C 
ATOM     10  O   UNL     1      -1.223  12.785  19.130  0.00  0.00    +0.000 OA
ENDROOT
BRANCH   1  15
ATOM     11  C   UNL     1       0.606   9.205  20.946  0.00  0.00    +0.000 A 
ATOM     12  C   UNL     1       0.866   8.982  22.314  0.00  0.00    +0.000 A 
ATOM     13  C   UNL     1       0.053   9.531  23.303  0.00  0.00    +0.000 A 
ATOM     14  C   UNL     1      -0.942  10.427  22.952  0.00  0.00    +0.000 A 
ATOM     15  C   UNL     1      -0.958  10.921  21.641  0.00  0.00    +0.000 A 
ATOM     16  C   UNL     1      -0.361  10.166  20.623  0.00  0.00    +0.000 A 
BRANCH  11  18
ATOM     17  C   UNL     1       1.991   7.167  20.211  0.00  0.00    +0.000 C 
ATOM     18  C   UNL     1       1.426   8.535  19.896  0.00  0.00    +0.000 C 
ATOM     19  C   UNL     1       1.580   9.220  18.766  0.00  0.00    +0.000 C 
ATOM     20  N   UNL     1       1.955   9.579  17.522  0.00  0.00    +0.000 NA
ATOM     21  N   UNL     1       2.374   8.502  17.859  0.00  0.00    +0.000 NA
ENDBRANCH  11  18
ENDBRANCH   1  15
BRANCH   8  22
ATOM     22  C   UNL     1      -4.558  12.866  24.142  0.00  0.00    +0.000 C 
ATOM     23  F   UNL     1      -5.858  12.817  24.543  0.00  0.00    +0.000 F 
ATOM     24  F   UNL     1      -3.958  11.781  24.702  0.00  0.00    +0.000 F 
ATOM     25  F   UNL     1      -4.020  13.954  24.760  0.00  0.00    +0.000 F 
ENDBRANCH   8  22
BRANCH   6  26
ATOM     26  C   UNL     1      -6.639  12.508  19.546  0.00  0.00    +0.000 C 
BRANCH  26  27
ATOM     27  N   UNL     1      -7.327  11.294  19.940  0.00  0.00    +0.000 N 
ATOM     28  H   UNL     1      -7.946  11.371  20.743  0.00  0.00    +0.000 HD
BRANCH  27  29
ATOM     29  C   UNL     1      -6.982  10.019  19.567  0.00  0.00    +0.000 C 
ATOM     30  C   UNL     1      -7.280   8.885  20.196  0.00  0.00    +0.000 C 
ATOM     31  F   UNL     1      -6.898   7.689  19.709  0.00  0.00    +0.000 F 
ENDBRANCH  27  29
ENDBRANCH  26  27
ENDBRANCH   6  26
TORSDOF 6
ENDMDL
MODEL 3
REMARK VINA RESULT:      -7.7      0.859      1.288
REMARK  Name = 
REMARK  7 active torsions:
REMARK  status: ('A' for Active; 'I' for Inactive)
REMARK    1  A    between atoms: C_1  and  C_2
REMARK    2  A    between atoms: C_2  and  C_6
REMARK    3  A    between atoms: C_10  and  N_11
REMARK    4  A    between atoms: C_16  and  C_17
REMARK    5  A    between atoms: C_17  and  N_18
REMARK    6  A    between atoms: N_18  and  C_19
REMARK    7  A    between atoms: C_23  and  C_24
REMARK                            x       y       z     vdW  Elec       q    Type
REMARK                         _______ _______ _______ _____ _____    ______ ____
ROOT
ATOM      1  N   UNL     1       3.741   5.212  19.273  0.00  0.00    +0.000 N 
ATOM      2  C   UNL     1       5.104   5.795  19.378  0.00  0.00    +0.000 C 
ATOM      3  C   UNL     1       5.724   5.381  18.076  0.00  0.00    +0.000 A 
ATOM      4  C   UNL     1       5.067   4.226  17.650  0.00  0.00    +0.000 A 
ATOM      5  C   UNL     1       5.254   3.663  16.400  0.00  0.00    +0.000 A 
ATOM      6  C   UNL     1       6.157   4.293  15.537  0.00  0.00    +0.000 A 
ATOM      7  C   UNL     1       6.834   5.463  15.968  0.00  0.00    +0.000 A 
ATOM      8  C   UNL     1       6.637   6.022  17.249  0.00  0.00    +0.000 A 
ATOM      9  C   UNL     1       3.913   4.016  18.546  0.00  0.00    +0.000 C 
ATOM     10  O   UNL     1       3.158   3.057  18.464  0.00  0.00    +0.000 OA
ENDROOT
BRANCH   1  15
ATOM     11  C   UNL     1       1.788   8.221  19.458  0.00  0.00    +0.000 A 
ATOM     12  C   UNL     1       2.504   8.889  18.445  0.00  0.00    +0.000 A 
ATOM     13  C   UNL     1       3.143   8.185  17.427  0.00  0.00    +0.000 A 
ATOM     14  C   UNL     1       3.200   6.803  17.482  0.00  0.00    +0.000 A 
ATOM     15  C   UNL     1       2.808   6.170  18.667  0.00  0.00    +0.000 A 
ATOM     16  C   UNL     1       1.920   6.828  19.528  0.00  0.00    +0.000 A 
BRANCH  11  18
ATOM     17  C   UNL     1      -0.262   9.651  20.063  0.00  0.00    +0.000 C 
ATOM     18  C   UNL     1       1.031   8.988  20.489  0.00  0.00    +0.000 C 
ATOM     19  C   UNL     1       1.577   9.013  21.702  0.00  0.00    +0.000 C 
ATOM     20  N   UNL     1       1.796   9.264  23.007  0.00  0.00    +0.000 NA
ATOM     21  N   UNL     1       0.788   9.768  22.583  0.00  0.00    +0.000 NA
ENDBRANCH  11  18
ENDBRANCH   1  15
BRANCH   8  22
ATOM     22  C   UNL     1       7.350   7.295  17.620  0.00  0.00    +0.000 C 
ATOM     23  F   UNL     1       8.093   7.199  18.757  0.00  0.00    +0.000 F 
ATOM     24  F   UNL     1       8.212   7.706  16.651  0.00  0.00    +0.000 F 
ATOM     25  F   UNL     1       6.492   8.332  17.825  0.00  0.00    +0.000 F 
ENDBRANCH   8  22
BRANCH   6  26
ATOM     26  C   UNL     1       6.395   3.743  14.148  0.00  0.00    +0.000 C 
BRANCH  26  27
ATOM     27  N   UNL     1       5.254   4.014  13.294  0.00  0.00    +0.000 N 
ATOM     28  H   UNL     1       4.579   4.685  13.650  0.00  0.00    +0.000 HD
BRANCH  27  29
ATOM     29  C   UNL     1       4.832   3.232  12.249  0.00  0.00    +0.000 C 
ATOM     30  C   UNL     1       3.964   3.560  11.294  0.00  0.00    +0.000 C 
ATOM     31  F   UNL     1       3.650   2.703  10.304  0.00  0.00    +0.000 F 
ENDBRANCH  27  29
ENDBRANCH  26  27
ENDBRANCH   6  26
TORSDOF 6
ENDMDL
MODEL 4
REMARK VINA RESULT:      -7.6      7.705     11.046
REMARK  Name = 
REMARK  7 active torsions:
REMARK  status: ('A' for Active; 'I' for Inactive)
REMARK    1  A    between atoms: C_1  and  C_2
REMARK    2  A    between atoms: C_2  and  C_6
REMARK    3  A    between atoms: C_10  and  N_11
REMARK    4  A    between atoms: C_16  and  C_17
REMARK    5  A    between atoms: C_17  and  N_18
REMARK    6  A    between atoms: N_18  and  C_19
REMARK    7  A    between atoms: C_23  and  C_24
REMARK                            x       y       z     vdW  Elec       q    Type
REMARK                         _______ _______ _______ _____ _____    ______ ____
ROOT
ATOM      1  N   UNL     1      -0.269  11.057  18.398  0.00  0.00    +0.000 N 
ATOM      2  C   UNL     1       0.429  10.366  19.513  0.00  0.00    +0.000 C 
ATOM      3  C   UNL     1      -0.036  11.144  20.707  0.00  0.00    +0.000 A 
ATOM      4  C   UNL     1      -0.373  12.424  20.266  0.00  0.00    +0.000 A 
ATOM      5  C   UNL     1      -1.008  13.360  21.062  0.00  0.00    +0.000 A 
ATOM      6  C   UNL     1      -1.313  12.989  22.376  0.00  0.00    +0.000 A 
ATOM      7  C   UNL     1      -0.966  11.692  22.832  0.00  0.00    +0.000 A 
ATOM      8  C   UNL     1      -0.312  10.749  22.010  0.00  0.00    +0.000 A 
ATOM      9  C   UNL     1      -0.325  12.412  18.790  0.00  0.00    +0.000 C 
ATOM     10  O   UNL     1      -0.527  13.399  18.097  0.00  0.00    +0.000 OA
ENDROOT
BRANCH   1  15
ATOM     11  C   UNL     1      -3.827  11.322  17.981  0.00  0.00    +0.000 A 
ATOM     12  C   UNL     1      -3.817  10.926  16.628  0.00  0.00    +0.000 A 
ATOM     13  C   UNL     1      -2.821  10.090  16.127  0.00  0.00    +0.000 A 
ATOM     14  C   UNL     1      -1.743   9.754  16.927  0.00  0.00    +0.000 A 
ATOM     15  C   UNL     1      -1.575  10.440  18.136  0.00  0.00    +0.000 A 
ATOM     16  C   UNL     1      -2.692  11.025  18.747  0.00  0.00    +0.000 A 
BRANCH  11  18
ATOM     17  C   UNL     1      -4.854  12.590  19.968  0.00  0.00    +0.000 C 
ATOM     18  C   UNL     1      -4.949  12.140  18.526  0.00  0.00    +0.000 C 
ATOM     19  C   UNL     1      -5.937  12.398  17.674  0.00  0.00    +0.000 C 
ATOM     20  N   UNL     1      -7.086  12.857  17.141  0.00  0.00    +0.000 NA
ATOM     21  N   UNL     1      -6.937  13.161  18.295  0.00  0.00    +0.000 NA
ENDBRANCH  11  18
ENDBRANCH   1  15
BRANCH   8  22
ATOM     22  C   UNL     1      -0.021   9.373  22.545  0.00  0.00    +0.000 C 
ATOM     23  F   UNL     1      -0.855   8.409  22.067  0.00  0.00    +0.000 F 
ATOM     24  F   UNL     1       1.238   8.956  22.242  0.00  0.00    +0.000 F 
ATOM     25  F   UNL     1      -0.122   9.311  23.902  0.00  0.00    +0.000 F 
ENDBRANCH   8  22
BRANCH   6  26
ATOM     26  C   UNL     1      -2.026  13.956  23.296  0.00  0.00    +0.000 C 
BRANCH  26  27
ATOM     27  N   UNL     1      -2.956  13.246  24.153  0.00  0.00    +0.000 N 
ATOM     28  H   UNL     1      -2.544  12.609  24.830  0.00  0.00    +0.000 HD
BRANCH  27  29
ATOM     29  C   UNL     1      -4.300  13.093  23.924  0.00  0.00    +0.000 C 
ATOM     30  C   UNL     1      -5.159  12.353  24.621  0.00  0.00    +0.000 C 
ATOM     31  F   UNL     1      -6.468  12.307  24.303  0.00  0.00    +0.000 F 
ENDBRANCH  27  29
ENDBRANCH  26  27
ENDBRANCH   6  26
TORSDOF 6
ENDMDL
MODEL 5
REMARK VINA RESULT:      -7.6      7.692     10.972
REMARK  Name = 
REMARK  7 active torsions:
REMARK  status: ('A' for Active; 'I' for Inactive)
REMARK    1  A    between atoms: C_1  and  C_2
REMARK    2  A    between atoms: C_2  and  C_6
REMARK    3  A    between atoms: C_10  and  N_11
REMARK    4  A    between atoms: C_16  and  C_17
REMARK    5  A    between atoms: C_17  and  N_18
REMARK    6  A    between atoms: N_18  and  C_19
REMARK    7  A    between atoms: C_23  and  C_24
REMARK                            x       y       z     vdW  Elec       q    Type
REMARK                         _______ _______ _______ _____ _____    ______ ____
ROOT
ATOM      1  N   UNL     1      -0.408  11.070  18.303  0.00  0.00    +0.000 N 
ATOM      2  C   UNL     1       0.336  10.324  19.351  0.00  0.00    +0.000 C 
ATOM      3  C   UNL     1      -0.043  11.068  20.596  0.00  0.00    +0.000 A 
ATOM      4  C   UNL     1      -0.375  12.370  20.220  0.00  0.00    +0.000 A 
ATOM      5  C   UNL     1      -0.943  13.290  21.083  0.00  0.00    +0.000 A 
ATOM      6  C   UNL     1      -1.182  12.877  22.399  0.00  0.00    +0.000 A 
ATOM      7  C   UNL     1      -0.840  11.557  22.789  0.00  0.00    +0.000 A 
ATOM      8  C   UNL     1      -0.255  10.632  21.898  0.00  0.00    +0.000 A 
ATOM      9  C   UNL     1      -0.411  12.410  18.745  0.00  0.00    +0.000 C 
ATOM     10  O   UNL     1      -0.629  13.426  18.100  0.00  0.00    +0.000 OA
ENDROOT
BRANCH   1  15
ATOM     11  C   UNL     1      -3.958  11.449  17.906  0.00  0.00    +0.000 A 
ATOM     12  C   UNL     1      -3.981  10.968  16.582  0.00  0.00    +0.000 A 
ATOM     13  C   UNL     1      -3.025  10.063  16.125  0.00  0.00    +0.000 A 
ATOM     14  C   UNL     1      -1.950   9.736  16.933  0.00  0.00    +0.000 A 
ATOM     15  C   UNL     1      -1.741  10.490  18.094  0.00  0.00    +0.000 A 
ATOM     16  C   UNL     1      -2.826  11.156  18.678  0.00  0.00    +0.000 A 
BRANCH  11  18
ATOM     17  C   UNL     1      -6.220  12.602  17.500  0.00  0.00    +0.000 C 
ATOM     18  C   UNL     1      -5.040  12.343  18.411  0.00  0.00    +0.000 C 
ATOM     19  C   UNL     1      -4.856  12.831  19.635  0.00  0.00    +0.000 C 
ATOM     20  N   UNL     1      -5.032  13.502  20.790  0.00  0.00    +0.000 NA
ATOM     21  N   UNL     1      -5.925  13.663  19.999  0.00  0.00    +0.000 NA
ENDBRANCH  11  18
ENDBRANCH   1  15
BRANCH   8  22
ATOM     22  C   UNL     1       0.035   9.231  22.367  0.00  0.00    +0.000 C 
ATOM     23  F   UNL     1       1.296   8.805  22.083  0.00  0.00    +0.000 F 
ATOM     24  F   UNL     1      -0.105   9.098  23.714  0.00  0.00    +0.000 F 
ATOM     25  F   UNL     1      -0.802   8.312  21.810  0.00  0.00    +0.000 F 
ENDBRANCH   8  22
BRANCH   6  26
ATOM     26  C   UNL     1      -1.820  13.825  23.392  0.00  0.00    +0.000 C 
BRANCH  26  27
ATOM     27  N   UNL     1      -3.264  13.694  23.360  0.00  0.00    +0.000 N 
ATOM     28  H   UNL     1      -3.762  14.368  22.784  0.00  0.00    +0.000 HD
BRANCH  27  29
ATOM     29  C   UNL     1      -4.026  12.994  24.261  0.00  0.00    +0.000 C 
ATOM     30  C   UNL     1      -5.306  12.650  24.141  0.00  0.00    +0.000 C 
ATOM     31  F   UNL     1      -5.935  11.937  25.095  0.00  0.00    +0.000 F 
ENDBRANCH  27  29
ENDBRANCH  26  27
ENDBRANCH   6  26
TORSDOF 6
ENDMDL
MODEL 6
REMARK VINA RESULT:      -7.6      7.104     11.628
REMARK  Name = 
REMARK  7 active torsions:
REMARK  status: ('A' for Active; 'I' for Inactive)
REMARK    1  A    between atoms: C_1  and  C_2
REMARK    2  A    between atoms: C_2  and  C_6
REMARK    3  A    between atoms: C_10  and  N_11
REMARK    4  A    between atoms: C_16  and  C_17
REMARK    5  A    between atoms: C_17  and  N_18
REMARK    6  A    between atoms: N_18  and  C_19
REMARK    7  A    between atoms: C_23  and  C_24
REMARK                            x       y       z     vdW  Elec       q    Type
REMARK                         _______ _______ _______ _____ _____    ______ ____
ROOT
ATOM      1  N   UNL     1      -0.905  12.334  20.903  0.00  0.00    +0.000 N 
ATOM      2  C   UNL     1      -1.563  13.017  22.047  0.00  0.00    +0.000 C 
ATOM      3  C   UNL     1      -3.006  12.997  21.639  0.00  0.00    +0.000 A 
ATOM      4  C   UNL     1      -3.045  12.933  20.245  0.00  0.00    +0.000 A 
ATOM      5  C   UNL     1      -4.207  12.721  19.526  0.00  0.00    +0.000 A 
ATOM      6  C   UNL     1      -5.395  12.573  20.249  0.00  0.00    +0.000 A 
ATOM      7  C   UNL     1      -5.363  12.645  21.665  0.00  0.00    +0.000 A 
ATOM      8  C   UNL     1      -4.170  12.868  22.385  0.00  0.00    +0.000 A 
ATOM      9  C   UNL     1      -1.664  12.708  19.774  0.00  0.00    +0.000 C 
ATOM     10  O   UNL     1      -1.353  12.649  18.592  0.00  0.00    +0.000 OA
ENDROOT
BRANCH   1  15
ATOM     11  C   UNL     1       0.764   9.185  20.456  0.00  0.00    +0.000 A 
ATOM     12  C   UNL     1       1.067   9.017  21.823  0.00  0.00    +0.000 A 
ATOM     13  C   UNL     1       0.268   9.582  22.815  0.00  0.00    +0.000 A 
ATOM     14  C   UNL     1      -0.758  10.441  22.461  0.00  0.00    +0.000 A 
ATOM     15  C   UNL     1      -0.822  10.887  21.136  0.00  0.00    +0.000 A 
ATOM     16  C   UNL     1      -0.235  10.111  20.128  0.00  0.00    +0.000 A 
BRANCH  11  18
ATOM     17  C   UNL     1       1.631   9.136  18.037  0.00  0.00    +0.000 C 
ATOM     18  C   UNL     1       1.571   8.498  19.407  0.00  0.00    +0.000 C 
ATOM     19  C   UNL     1       2.170   7.374  19.790  0.00  0.00    +0.000 C 
ATOM     20  N   UNL     1       2.905   6.244  19.786  0.00  0.00    +0.000 NA
ATOM     21  N   UNL     1       2.890   6.811  18.724  0.00  0.00    +0.000 NA
ENDBRANCH  11  18
ENDBRANCH   1  15
BRANCH   8  22
ATOM     22  C   UNL     1      -4.203  12.880  23.890  0.00  0.00    +0.000 C 
ATOM     23  F   UNL     1      -3.527  11.848  24.464  0.00  0.00    +0.000 F 
ATOM     24  F   UNL     1      -3.658  14.013  24.410  0.00  0.00    +0.000 F 
ATOM     25  F   UNL     1      -5.471  12.813  24.383  0.00  0.00    +0.000 F 
ENDBRANCH   8  22
BRANCH   6  26
ATOM     26  C   UNL     1      -6.701  12.318  19.527  0.00  0.00    +0.000 C 
BRANCH  26  27
ATOM     27  N   UNL     1      -7.574  11.492  20.339  0.00  0.00    +0.000 N 
ATOM     28  H   UNL     1      -8.115  11.976  21.051  0.00  0.00    +0.000 HD
BRANCH  27  29
ATOM     29  C   UNL     1      -7.494  10.128  20.470  0.00  0.00    +0.000 C 
ATOM     30  C   UNL     1      -7.144   9.247  19.536  0.00  0.00    +0.000 C 
ATOM     31  F   UNL     1      -7.082   7.928  19.801  0.00  0.00    +0.000 F 
ENDBRANCH  27  29
ENDBRANCH  26  27
ENDBRANCH   6  26
TORSDOF 6
ENDMDL
MODEL 7
REMARK VINA RESULT:      -7.6      1.100      1.197
REMARK  Name = 
REMARK  7 active torsions:
REMARK  status: ('A' for Active; 'I' for Inactive)
REMARK    1  A    between atoms: C_1  and  C_2
REMARK    2  A    between atoms: C_2  and  C_6
REMARK    3  A    between atoms: C_10  and  N_11
REMARK    4  A    between atoms: C_16  and  C_17
REMARK    5  A    between atoms: C_17  and  N_18
REMARK    6  A    between atoms: N_18  and  C_19
REMARK    7  A    between atoms: C_23  and  C_24
REMARK                            x       y       z     vdW  Elec       q    Type
REMARK                         _______ _______ _______ _____ _____    ______ ____
ROOT
ATOM      1  N   UNL     1       3.984   4.741  19.154  0.00  0.00    +0.000 N 
ATOM      2  C   UNL     1       5.299   5.418  19.310  0.00  0.00    +0.000 C 
ATOM      3  C   UNL     1       5.901   5.254  17.947  0.00  0.00    +0.000 A 
ATOM      4  C   UNL     1       5.325   4.122  17.369  0.00  0.00    +0.000 A 
ATOM      5  C   UNL     1       5.509   3.766  16.045  0.00  0.00    +0.000 A 
ATOM      6  C   UNL     1       6.326   4.591  15.264  0.00  0.00    +0.000 A 
ATOM      7  C   UNL     1       6.921   5.739  15.848  0.00  0.00    +0.000 A 
ATOM      8  C   UNL     1       6.727   6.086  17.202  0.00  0.00    +0.000 A 
ATOM      9  C   UNL     1       4.226   3.684  18.252  0.00  0.00    +0.000 C 
ATOM     10  O   UNL     1       3.548   2.686  18.047  0.00  0.00    +0.000 OA
ENDROOT
BRANCH   1  15
ATOM     11  C   UNL     1       1.824   7.532  19.825  0.00  0.00    +0.000 A 
ATOM     12  C   UNL     1       2.439   8.386  18.888  0.00  0.00    +0.000 A 
ATOM     13  C   UNL     1       3.078   7.878  17.759  0.00  0.00    +0.000 A 
ATOM     14  C   UNL     1       3.241   6.510  17.620  0.00  0.00    +0.000 A 
ATOM     15  C   UNL     1       2.955   5.694  18.721  0.00  0.00    +0.000 A 
ATOM     16  C   UNL     1       2.062   6.157  19.697  0.00  0.00    +0.000 A 
BRANCH  11  18
ATOM     17  C   UNL     1      -0.421   7.800  21.049  0.00  0.00    +0.000 C 
ATOM     18  C   UNL     1       1.062   8.090  20.979  0.00  0.00    +0.000 C 
ATOM     19  C   UNL     1       1.778   8.799  21.849  0.00  0.00    +0.000 C 
ATOM     20  N   UNL     1       2.134   9.549  22.910  0.00  0.00    +0.000 NA
ATOM     21  N   UNL     1       0.960   9.282  22.882  0.00  0.00    +0.000 NA
ENDBRANCH  11  18
ENDBRANCH   1  15
BRANCH   8  22
ATOM     22  C   UNL     1       7.348   7.346  17.741  0.00  0.00    +0.000 C 
ATOM     23  F   UNL     1       8.261   7.911  16.904  0.00  0.00    +0.000 F 
ATOM     24  F   UNL     1       6.424   8.314  17.985  0.00  0.00    +0.000 F 
ATOM     25  F   UNL     1       8.001   7.143  18.919  0.00  0.00    +0.000 F 
ENDBRANCH   8  22
BRANCH   6  26
ATOM     26  C   UNL     1       6.556   4.274  13.802  0.00  0.00    +0.000 C 
BRANCH  26  27
ATOM     27  N   UNL     1       5.317   3.852  13.175  0.00  0.00    +0.000 N 
ATOM     28  H   UNL     1       4.460   4.157  13.628  0.00  0.00    +0.000 HD
BRANCH  27  29
ATOM     29  C   UNL     1       5.187   2.838  12.261  0.00  0.00    +0.000 C 
ATOM     30  C   UNL     1       6.163   2.160  11.662  0.00  0.00    +0.000 C 
ATOM     31  F   UNL     1       5.899   1.163  10.795  0.00  0.00    +0.000 F 
ENDBRANCH  27  29
ENDBRANCH  26  27
ENDBRANCH   6  26
TORSDOF 6
ENDMDL
MODEL 8
REMARK VINA RESULT:      -7.6      4.448      8.156
REMARK  Name = 
REMARK  7 active torsions:
REMARK  status: ('A' for Active; 'I' for Inactive)
REMARK    1  A    between atoms: C_1  and  C_2
REMARK    2  A    between atoms: C_2  and  C_6
REMARK    3  A    between atoms: C_10  and  N_11
REMARK    4  A    between atoms: C_16  and  C_17
REMARK    5  A    between atoms: C_17  and  N_18
REMARK    6  A    between atoms: N_18  and  C_19
REMARK    7  A    between atoms: C_23  and  C_24
REMARK                            x       y       z     vdW  Elec       q    Type
REMARK                         _______ _______ _______ _____ _____    ______ ____
ROOT
ATOM      1  N   UNL     1       2.537   7.979  19.391  0.00  0.00    +0.000 N 
ATOM      2  C   UNL     1       2.128   8.710  20.619  0.00  0.00    +0.000 C 
ATOM      3  C   UNL     1       0.889   9.422  20.163  0.00  0.00    +0.000 A 
ATOM      4  C   UNL     1       0.989   9.592  18.782  0.00  0.00    +0.000 A 
ATOM      5  C   UNL     1      -0.052  10.051  17.994  0.00  0.00    +0.000 A 
ATOM      6  C   UNL     1      -1.255  10.365  18.635  0.00  0.00    +0.000 A 
ATOM      7  C   UNL     1      -1.360  10.203  20.041  0.00  0.00    +0.000 A 
ATOM      8  C   UNL     1      -0.287   9.738  20.831  0.00  0.00    +0.000 A 
ATOM      9  C   UNL     1       2.165   8.825  18.325  0.00  0.00    +0.000 C 
ATOM     10  O   UNL     1       2.552   8.805  17.165  0.00  0.00    +0.000 OA
ENDROOT
BRANCH   1  15
ATOM     11  C   UNL     1       2.769   4.459  18.713  0.00  0.00    +0.000 A 
ATOM     12  C   UNL     1       2.582   4.068  20.054  0.00  0.00    +0.000 A 
ATOM     13  C   UNL     1       1.858   4.859  20.943  0.00  0.00    +0.000 A 
ATOM     14  C   UNL     1       1.433   6.117  20.551  0.00  0.00    +0.000 A 
ATOM     15  C   UNL     1       1.932   6.642  19.353  0.00  0.00    +0.000 A 
ATOM     16  C   UNL     1       2.389   5.762  18.364  0.00  0.00    +0.000 A 
BRANCH  11  18
ATOM     17  C   UNL     1       3.054   2.105  17.720  0.00  0.00    +0.000 C 
ATOM     18  C   UNL     1       3.465   3.561  17.747  0.00  0.00    +0.000 C 
ATOM     19  C   UNL     1       4.393   4.141  16.991  0.00  0.00    +0.000 C 
ATOM     20  N   UNL     1       5.365   4.345  16.080  0.00  0.00    +0.000 NA
ATOM     21  N   UNL     1       4.987   3.204  16.132  0.00  0.00    +0.000 NA
ENDBRANCH  11  18
ENDBRANCH   1  15
BRANCH   8  22
ATOM     22  C   UNL     1      -0.486   9.540  22.310  0.00  0.00    +0.000 C 
ATOM     23  F   UNL     1      -1.360  10.421  22.870  0.00  0.00    +0.000 F 
ATOM     24  F   UNL     1      -0.969   8.304  22.606  0.00  0.00    +0.000 F 
ATOM     25  F   UNL     1       0.673   9.670  23.013  0.00  0.00    +0.000 F 
ENDBRANCH   8  22
BRANCH   6  26
ATOM     26  C   UNL     1      -2.442  10.855  17.834  0.00  0.00    +0.000 C 
BRANCH  26  27
ATOM     27  N   UNL     1      -2.201  10.678  16.414  0.00  0.00    +0.000 N 
ATOM     28  H   UNL     1      -1.278  10.945  16.080  0.00  0.00    +0.000 HD
BRANCH  27  29
ATOM     29  C   UNL     1      -3.165  10.514  15.452  0.00  0.00    +0.000 C 
ATOM     30  C   UNL     1      -2.994  10.087  14.203  0.00  0.00    +0.000 C 
ATOM     31  F   UNL     1      -4.035   9.947  13.359  0.00  0.00    +0.000 F 
ENDBRANCH  27  29
ENDBRANCH  26  27
ENDBRANCH   6  26
TORSDOF 6
ENDMDL
MODEL 9
REMARK VINA RESULT:      -7.5      7.753     11.244
REMARK  Name = 
REMARK  7 active torsions:
REMARK  status: ('A' for Active; 'I' for Inactive)
REMARK    1  A    between atoms: C_1  and  C_2
REMARK    2  A    between atoms: C_2  and  C_6
REMARK    3  A    between atoms: C_10  and  N_11
REMARK    4  A    between atoms: C_16  and  C_17
REMARK    5  A    between atoms: C_17  and  N_18
REMARK    6  A    between atoms: N_18  and  C_19
REMARK    7  A    between atoms: C_23  and  C_24
REMARK                            x       y       z     vdW  Elec       q    Type
REMARK                         _______ _______ _______ _____ _____    ______ ____
ROOT
ATOM      1  N   UNL     1      -0.284  11.168  18.482  0.00  0.00    +0.000 N 
ATOM      2  C   UNL     1       0.440  10.469  19.575  0.00  0.00    +0.000 C 
ATOM      3  C   UNL     1      -0.077  11.172  20.795  0.00  0.00    +0.000 A 
ATOM      4  C   UNL     1      -0.477  12.450  20.402  0.00  0.00    +0.000 A 
ATOM      5  C   UNL     1      -1.169  13.317  21.228  0.00  0.00    +0.000 A 
ATOM      6  C   UNL     1      -1.466  12.877  22.522  0.00  0.00    +0.000 A 
ATOM      7  C   UNL     1      -1.054  11.581  22.930  0.00  0.00    +0.000 A 
ATOM      8  C   UNL     1      -0.344  10.710  22.077  0.00  0.00    +0.000 A 
ATOM      9  C   UNL     1      -0.415  12.500  18.928  0.00  0.00    +0.000 C 
ATOM     10  O   UNL     1      -0.663  13.503  18.273  0.00  0.00    +0.000 OA
ENDROOT
BRANCH   1  15
ATOM     11  C   UNL     1      -3.825  11.286  17.887  0.00  0.00    +0.000 A 
ATOM     12  C   UNL     1      -3.735  10.846  16.551  0.00  0.00    +0.000 A 
ATOM     13  C   UNL     1      -2.687  10.032  16.127  0.00  0.00    +0.000 A 
ATOM     14  C   UNL     1      -1.637   9.762  16.989  0.00  0.00    +0.000 A 
ATOM     15  C   UNL     1      -1.553  10.494  18.180  0.00  0.00    +0.000 A 
ATOM     16  C   UNL     1      -2.718  11.057  18.716  0.00  0.00    +0.000 A 
BRANCH  11  18
ATOM     17  C   UNL     1      -6.008  12.514  17.309  0.00  0.00    +0.000 C 
ATOM     18  C   UNL     1      -5.000  12.078  18.350  0.00  0.00    +0.000 C 
ATOM     19  C   UNL     1      -5.046  12.326  19.657  0.00  0.00    +0.000 C 
ATOM     20  N   UNL     1      -5.438  12.769  20.867  0.00  0.00    +0.000 NA
ATOM     21  N   UNL     1      -6.183  13.083  19.975  0.00  0.00    +0.000 NA
ENDBRANCH  11  18
ENDBRANCH   1  15
BRANCH   8  22
ATOM     22  C   UNL     1       0.015   9.330  22.559  0.00  0.00    +0.000 C 
ATOM     23  F   UNL     1      -0.096   9.172  23.907  0.00  0.00    +0.000 F 
ATOM     24  F   UNL     1      -0.774   8.368  22.009  0.00  0.00    +0.000 F 
ATOM     25  F   UNL     1       1.297   8.987  22.250  0.00  0.00    +0.000 F 
ENDBRANCH   8  22
BRANCH   6  26
ATOM     26  C   UNL     1      -2.237  13.766  23.473  0.00  0.00    +0.000 C 
BRANCH  26  27
ATOM     27  N   UNL     1      -3.478  14.203  22.862  0.00  0.00    +0.000 N 
ATOM     28  H   UNL     1      -3.610  13.950  21.886  0.00  0.00    +0.000 HD
BRANCH  27  29
ATOM     29  C   UNL     1      -4.310  15.180  23.348  0.00  0.00    +0.000 C 
ATOM     30  C   UNL     1      -5.573  15.041  23.744  0.00  0.00    +0.000 C 
ATOM     31  F   UNL     1      -6.278  16.083  24.227  0.00  0.00    +0.000 F 
ENDBRANCH  27  29
ENDBRANCH  26  27
ENDBRANCH   6  26
TORSDOF 6
ENDMDL
