MODEL 1
REMARK VINA RESULT:      -7.7      0.000      0.000
REMARK  Name = 
REMARK  8 active torsions:
REMARK  status: ('A' for Active; 'I' for Inactive)
REMARK    1  A    between atoms: C_1  and  C_2
REMARK    2  A    between atoms: N_4  and  C_5
REMARK    3  A    between atoms: C_8  and  S_9
REMARK    4  A    between atoms: S_9  and  N_12
REMARK    5  A    between atoms: N_12  and  C_13
REMARK    6  A    between atoms: C_13  and  C_14
REMARK    7  A    between atoms: C_13  and  C_21
REMARK    8  A    between atoms: N_25  and  C_26
REMARK                            x       y       z     vdW  Elec       q    Type
REMARK                         _______ _______ _______ _____ _____    ______ ____
ROOT
ATOM      1  N   UNL     1       4.203   4.937  17.726  0.00  0.00    +0.000 NA
ATOM      2  H   UNL     1       3.719   4.486  16.947  0.00  0.00    +0.000 HD
ENDROOT
BRANCH   1   3
ATOM      3  S   UNL     1       5.828   4.590  17.891  0.00  0.00    +0.000 S 
ATOM      4  O   UNL     1       6.332   3.988  16.675  0.00  0.00    +0.000 OA
ATOM      5  O   UNL     1       5.963   3.929  19.172  0.00  0.00    +0.000 OA
BRANCH   3   9
ATOM      6  C   UNL     1       8.136   8.539  18.046  0.00  0.00    +0.000 A 
ATOM      7  C   UNL     1       8.499   7.465  18.862  0.00  0.00    +0.000 A 
ATOM      8  C   UNL     1       7.749   6.286  18.863  0.00  0.00    +0.000 A 
ATOM      9  C   UNL     1       6.634   6.168  18.029  0.00  0.00    +0.000 A 
ATOM     10  C   UNL     1       6.256   7.238  17.217  0.00  0.00    +0.000 A 
ATOM     11  C   UNL     1       6.984   8.431  17.254  0.00  0.00    +0.000 A 
BRANCH   6  15
ATOM     12  C   UNL     1      10.059  11.739  18.546  0.00  0.00    +0.000 C 
ATOM     13  C   UNL     1       9.301  10.520  19.007  0.00  0.00    +0.000 C 
ATOM     14  O   UNL     1       9.118  10.311  20.200  0.00  0.00    +0.000 OA
ATOM     15  N   UNL     1       8.883   9.731  17.950  0.00  0.00    +0.000 N 
ATOM     16  H   UNL     1       9.258   9.955  17.038  0.00  0.00    +0.000 HD
ENDBRANCH   6  15
ENDBRANCH   3   9
ENDBRANCH   1   3
BRANCH   1  17
ATOM     17  C   UNL     1       3.361   5.190  18.902  0.00  0.00    +0.000 C 
BRANCH  17  18
ATOM     18  C   UNL     1       2.762   6.578  18.908  0.00  0.00    +0.000 A 
ATOM     19  C   UNL     1       2.811   7.414  17.780  0.00  0.00    +0.000 A 
ATOM     20  C   UNL     1       2.156   8.646  17.791  0.00  0.00    +0.000 A 
ATOM     21  C   UNL     1       1.459   9.062  18.927  0.00  0.00    +0.000 A 
ATOM     22  C   UNL     1       1.440   8.259  20.065  0.00  0.00    +0.000 A 
ATOM     23  C   UNL     1       2.095   7.032  20.048  0.00  0.00    +0.000 A 
ATOM     24  F   UNL     1       2.017   6.242  21.130  0.00  0.00    +0.000 F 
ENDBRANCH  17  18
BRANCH  17  25
ATOM     25  C   UNL     1       2.269   4.124  18.936  0.00  0.00    +0.000 A 
ATOM     26  N   UNL     1       1.364   3.907  17.989  0.00  0.00    +0.000 NA
ATOM     27  C   UNL     1       0.534   2.927  18.473  0.00  0.00    +0.000 A 
ATOM     28  C   UNL     1       0.954   2.500  19.707  0.00  0.00    +0.000 A 
ATOM     29  N   UNL     1       2.076   3.233  19.978  0.00  0.00    +0.000 N 
ATOM     30  C   UNL     1       2.882   3.068  21.165  0.00  0.00    +0.000 C 
ENDBRANCH  17  25
ENDBRANCH   1  17
TORSDOF 6
ENDMDL
MODEL 2
REMARK VINA RESULT:      -7.6      1.105      1.196
REMARK  Name = 
REMARK  8 active torsions:
REMARK  status: ('A' for Active; 'I' for Inactive)
REMARK    1  A    between atoms: C_1  and  C_2
REMARK    2  A    between atoms: N_4  and  C_5
REMARK    3  A    between atoms: C_8  and  S_9
REMARK    4  A    between atoms: S_9  and  N_12
REMARK    5  A    between atoms: N_12  and  C_13
REMARK    6  A    between atoms: C_13  and  C_14
REMARK    7  A    between atoms: C_13  and  C_21
REMARK    8  A    between atoms: N_25  and  C_26
REMARK                            x       y       z     vdW  Elec       q    Type
REMARK                         _______ _______ _______ _____ _____    ______ ____
ROOT
ATOM      1  N   UNL     1       4.097   5.014  16.694  0.00  0.00    +0.000 NA
ATOM      2  H   UNL     1       3.413   4.566  16.080  0.00  0.00    +0.000 HD
ENDROOT
BRANCH   1   3
ATOM      3  S   UNL     1       5.701   4.862  16.254  0.00  0.00    +0.000 S 
ATOM      4  O   UNL     1       5.872   5.243  14.869  0.00  0.00    +0.000 OA
ATOM      5  O   UNL     1       6.123   3.564  16.737  0.00  0.00    +0.000 OA
BRANCH   3   9
ATOM      6  C   UNL     1       8.205   7.930  18.548  0.00  0.00    +0.000 A 
ATOM      7  C   UNL     1       8.215   6.582  18.912  0.00  0.00    +0.000 A 
ATOM      8  C   UNL     1       7.395   5.660  18.255  0.00  0.00    +0.000 A 
ATOM      9  C   UNL     1       6.569   6.083  17.211  0.00  0.00    +0.000 A 
ATOM     10  C   UNL     1       6.544   7.429  16.845  0.00  0.00    +0.000 A 
ATOM     11  C   UNL     1       7.333   8.354  17.536  0.00  0.00    +0.000 A 
BRANCH   6  15
ATOM     12  C   UNL     1      10.160  10.981  19.576  0.00  0.00    +0.000 C 
ATOM     13  C   UNL     1       9.131  10.233  18.768  0.00  0.00    +0.000 C 
ATOM     14  O   UNL     1       8.470  10.806  17.911  0.00  0.00    +0.000 OA
ATOM     15  N   UNL     1       9.051   8.898  19.126  0.00  0.00    +0.000 N 
ATOM     16  H   UNL     1       9.546   8.621  19.965  0.00  0.00    +0.000 HD
ENDBRANCH   6  15
ENDBRANCH   3   9
ENDBRANCH   1   3
BRANCH   1  17
ATOM     17  C   UNL     1       3.704   5.069  18.108  0.00  0.00    +0.000 C 
BRANCH  17  18
ATOM     18  C   UNL     1       3.063   6.383  18.488  0.00  0.00    +0.000 A 
ATOM     19  C   UNL     1       2.939   7.443  17.574  0.00  0.00    +0.000 A 
ATOM     20  C   UNL     1       2.248   8.601  17.932  0.00  0.00    +0.000 A 
ATOM     21  C   UNL     1       1.686   8.720  19.204  0.00  0.00    +0.000 A 
ATOM     22  C   UNL     1       1.838   7.692  20.132  0.00  0.00    +0.000 A 
ATOM     23  C   UNL     1       2.528   6.541  19.769  0.00  0.00    +0.000 A 
ATOM     24  F   UNL     1       2.615   5.534  20.653  0.00  0.00    +0.000 F 
ENDBRANCH  17  18
BRANCH  17  25
ATOM     25  C   UNL     1       2.758   3.902  18.377  0.00  0.00    +0.000 A 
ATOM     26  N   UNL     1       1.531   3.765  17.888  0.00  0.00    +0.000 NA
ATOM     27  C   UNL     1       1.018   2.627  18.459  0.00  0.00    +0.000 A 
ATOM     28  C   UNL     1       1.948   2.028  19.270  0.00  0.00    +0.000 A 
ATOM     29  N   UNL     1       3.061   2.817  19.184  0.00  0.00    +0.000 N 
ATOM     30  C   UNL     1       4.312   2.525  19.844  0.00  0.00    +0.000 C 
ENDBRANCH  17  25
ENDBRANCH   1  17
TORSDOF 6
ENDMDL
MODEL 3
REMARK VINA RESULT:      -7.4      3.116      4.901
REMARK  Name = 
REMARK  8 active torsions:
REMARK  status: ('A' for Active; 'I' for Inactive)
REMARK    1  A    between atoms: C_1  and  C_2
REMARK    2  A    between atoms: N_4  and  C_5
REMARK    3  A    between atoms: C_8  and  S_9
REMARK    4  A    between atoms: S_9  and  N_12
REMARK    5  A    between atoms: N_12  and  C_13
REMARK    6  A    between atoms: C_13  and  C_14
REMARK    7  A    between atoms: C_13  and  C_21
REMARK    8  A    between atoms: N_25  and  C_26
REMARK                            x       y       z     vdW  Elec       q    Type
REMARK                         _______ _______ _______ _____ _____    ______ ____
ROOT
ATOM      1  N   UNL     1       4.193   6.721  18.234  0.00  0.00    +0.000 NA
ATOM      2  H   UNL     1       3.880   6.982  17.297  0.00  0.00    +0.000 HD
ENDROOT
BRANCH   1   3
ATOM      3  S   UNL     1       5.552   5.756  18.322  0.00  0.00    +0.000 S 
ATOM      4  O   UNL     1       5.313   4.643  19.215  0.00  0.00    +0.000 OA
ATOM      5  O   UNL     1       6.666   6.658  18.524  0.00  0.00    +0.000 OA
BRANCH   3   9
ATOM      6  C   UNL     1       6.283   3.781  14.258  0.00  0.00    +0.000 A 
ATOM      7  C   UNL     1       7.008   4.909  14.646  0.00  0.00    +0.000 A 
ATOM      8  C   UNL     1       6.733   5.551  15.857  0.00  0.00    +0.000 A 
ATOM      9  C   UNL     1       5.736   5.053  16.699  0.00  0.00    +0.000 A 
ATOM     10  C   UNL     1       4.998   3.932  16.317  0.00  0.00    +0.000 A 
ATOM     11  C   UNL     1       5.248   3.321  15.084  0.00  0.00    +0.000 A 
BRANCH   6  15
ATOM     12  C   UNL     1       6.293   2.033  10.922  0.00  0.00    +0.000 C 
ATOM     13  C   UNL     1       5.699   2.900  12.002  0.00  0.00    +0.000 C 
ATOM     14  O   UNL     1       4.584   3.390  11.869  0.00  0.00    +0.000 OA
ATOM     15  N   UNL     1       6.550   3.050  13.083  0.00  0.00    +0.000 N 
ATOM     16  H   UNL     1       7.499   2.719  12.964  0.00  0.00    +0.000 HD
ENDBRANCH   6  15
ENDBRANCH   3   9
ENDBRANCH   1   3
BRANCH   1  17
ATOM     17  C   UNL     1       3.115   6.600  19.224  0.00  0.00    +0.000 C 
BRANCH  17  18
ATOM     18  C   UNL     1       2.189   7.795  19.234  0.00  0.00    +0.000 A 
ATOM     19  C   UNL     1       1.939   8.551  18.077  0.00  0.00    +0.000 A 
ATOM     20  C   UNL     1       0.998   9.582  18.102  0.00  0.00    +0.000 A 
ATOM     21  C   UNL     1       0.309   9.876  19.280  0.00  0.00    +0.000 A 
ATOM     22  C   UNL     1       0.580   9.159  20.443  0.00  0.00    +0.000 A 
ATOM     23  C   UNL     1       1.518   8.133  20.411  0.00  0.00    +0.000 A 
ATOM     24  F   UNL     1       1.725   7.411  21.524  0.00  0.00    +0.000 F 
ENDBRANCH  17  18
BRANCH  17  25
ATOM     25  C   UNL     1       2.346   5.316  18.926  0.00  0.00    +0.000 A 
ATOM     26  N   UNL     1       1.917   4.926  17.731  0.00  0.00    +0.000 NA
ATOM     27  C   UNL     1       1.203   3.772  17.940  0.00  0.00    +0.000 A 
ATOM     28  C   UNL     1       1.228   3.418  19.266  0.00  0.00    +0.000 A 
ATOM     29  N   UNL     1       1.987   4.377  19.879  0.00  0.00    +0.000 N 
ATOM     30  C   UNL     1       2.322   4.367  21.284  0.00  0.00    +0.000 C 
ENDBRANCH  17  25
ENDBRANCH   1  17
TORSDOF 6
ENDMDL
MODEL 4
REMARK VINA RESULT:      -7.2      2.983      4.755
REMARK  Name = 
REMARK  8 active torsions:
REMARK  status: ('A' for Active; 'I' for Inactive)
REMARK    1  A    between atoms: C_1  and  C_2
REMARK    2  A    between atoms: N_4  and  C_5
REMARK    3  A    between atoms: C_8  and  S_9
REMARK    4  A    between atoms: S_9  and  N_12
REMARK    5  A    between atoms: N_12  and  C_13
REMARK    6  A    between atoms: C_13  and  C_14
REMARK    7  A    between atoms: C_13  and  C_21
REMARK    8  A    between atoms: N_25  and  C_26
REMARK                            x       y       z     vdW  Elec       q    Type
REMARK                         _______ _______ _______ _____ _____    ______ ____
ROOT
ATOM      1  N   UNL     1       4.257   6.243  19.078  0.00  0.00    +0.000 NA
ATOM      2  H   UNL     1       4.148   6.786  18.218  0.00  0.00    +0.000 HD
ENDROOT
BRANCH   1   3
ATOM      3  S   UNL     1       5.450   5.075  19.072  0.00  0.00    +0.000 S 
ATOM      4  O   UNL     1       4.952   3.855  19.672  0.00  0.00    +0.000 OA
ATOM      5  O   UNL     1       6.644   5.725  19.568  0.00  0.00    +0.000 OA
BRANCH   3   9
ATOM      6  C   UNL     1       6.435   3.928  14.752  0.00  0.00    +0.000 A 
ATOM      7  C   UNL     1       7.109   4.974  15.387  0.00  0.00    +0.000 A 
ATOM      8  C   UNL     1       6.757   5.367  16.681  0.00  0.00    +0.000 A 
ATOM      9  C   UNL     1       5.733   4.700  17.358  0.00  0.00    +0.000 A 
ATOM     10  C   UNL     1       5.046   3.660  16.730  0.00  0.00    +0.000 A 
ATOM     11  C   UNL     1       5.373   3.301  15.419  0.00  0.00    +0.000 A 
BRANCH   6  15
ATOM     12  C   UNL     1       6.621   2.724  11.188  0.00  0.00    +0.000 C 
ATOM     13  C   UNL     1       5.926   3.298  12.396  0.00  0.00    +0.000 C 
ATOM     14  O   UNL     1       4.736   3.588  12.355  0.00  0.00    +0.000 OA
ATOM     15  N   UNL     1       6.781   3.441  13.475  0.00  0.00    +0.000 N 
ATOM     16  H   UNL     1       7.768   3.312  13.294  0.00  0.00    +0.000 HD
ENDBRANCH   6  15
ENDBRANCH   3   9
ENDBRANCH   1   3
BRANCH   1  17
ATOM     17  C   UNL     1       3.016   6.053  19.839  0.00  0.00    +0.000 C 
BRANCH  17  18
ATOM     18  C   UNL     1       2.143   7.286  19.858  0.00  0.00    +0.000 A 
ATOM     19  C   UNL     1       1.424   7.670  21.002  0.00  0.00    +0.000 A 
ATOM     20  C   UNL     1       0.713   8.871  21.013  0.00  0.00    +0.000 A 
ATOM     21  C   UNL     1       0.701   9.692  19.884  0.00  0.00    +0.000 A 
ATOM     22  C   UNL     1       1.377   9.299  18.731  0.00  0.00    +0.000 A 
ATOM     23  C   UNL     1       2.083   8.102  18.726  0.00  0.00    +0.000 A 
ATOM     24  F   UNL     1       2.780   7.766  17.629  0.00  0.00    +0.000 F 
ENDBRANCH  17  18
BRANCH  17  25
ATOM     25  C   UNL     1       2.272   4.865  19.235  0.00  0.00    +0.000 A 
ATOM     26  N   UNL     1       2.023   4.679  17.944  0.00  0.00    +0.000 NA
ATOM     27  C   UNL     1       1.258   3.542  17.863  0.00  0.00    +0.000 A 
ATOM     28  C   UNL     1       1.070   2.994  19.107  0.00  0.00    +0.000 A 
ATOM     29  N   UNL     1       1.747   3.813  19.967  0.00  0.00    +0.000 N 
ATOM     30  C   UNL     1       1.860   3.578  21.387  0.00  0.00    +0.000 C 
ENDBRANCH  17  25
ENDBRANCH   1  17
TORSDOF 6
ENDMDL
MODEL 5
REMARK VINA RESULT:      -7.2      3.705      7.153
REMARK  Name = 
REMARK  8 active torsions:
REMARK  status: ('A' for Active; 'I' for Inactive)
REMARK    1  A    between atoms: C_1  and  C_2
REMARK    2  A    between atoms: N_4  and  C_5
REMARK    3  A    between atoms: C_8  and  S_9
REMARK    4  A    between atoms: S_9  and  N_12
REMARK    5  A    between atoms: N_12  and  C_13
REMARK    6  A    between atoms: C_13  and  C_14
REMARK    7  A    between atoms: C_13  and  C_21
REMARK    8  A    between atoms: N_25  and  C_26
REMARK                            x       y       z     vdW  Elec       q    Type
REMARK                         _______ _______ _______ _____ _____    ______ ____
ROOT
ATOM      1  N   UNL     1       4.318   6.369  17.240  0.00  0.00    +0.000 NA
ATOM      2  H   UNL     1       4.272   7.325  16.881  0.00  0.00    +0.000 HD
ENDROOT
BRANCH   1   3
ATOM      3  S   UNL     1       3.264   5.989  18.478  0.00  0.00    +0.000 S 
ATOM      4  O   UNL     1       4.006   5.637  19.669  0.00  0.00    +0.000 OA
ATOM      5  O   UNL     1       2.288   5.088  17.904  0.00  0.00    +0.000 OA
BRANCH   3   9
ATOM      6  C   UNL     1       0.813   9.760  19.325  0.00  0.00    +0.000 A 
ATOM      7  C   UNL     1       1.365   9.534  18.062  0.00  0.00    +0.000 A 
ATOM      8  C   UNL     1       2.172   8.417  17.827  0.00  0.00    +0.000 A 
ATOM      9  C   UNL     1       2.417   7.505  18.857  0.00  0.00    +0.000 A 
ATOM     10  C   UNL     1       1.879   7.726  20.125  0.00  0.00    +0.000 A 
ATOM     11  C   UNL     1       1.110   8.869  20.365  0.00  0.00    +0.000 A 
BRANCH   6  15
ATOM     12  C   UNL     1      -1.989  12.259  19.624  0.00  0.00    +0.000 C 
ATOM     13  C   UNL     1      -1.349  10.985  19.138  0.00  0.00    +0.000 C 
ATOM     14  O   UNL     1      -1.962  10.213  18.410  0.00  0.00    +0.000 OA
ATOM     15  N   UNL     1      -0.058  10.831  19.613  0.00  0.00    +0.000 N 
ATOM     16  H   UNL     1       0.241  11.473  20.336  0.00  0.00    +0.000 HD
ENDBRANCH   6  15
ENDBRANCH   3   9
ENDBRANCH   1   3
BRANCH   1  17
ATOM     17  C   UNL     1       5.649   5.754  17.165  0.00  0.00    +0.000 C 
BRANCH  17  18
ATOM     18  C   UNL     1       5.963   5.196  15.796  0.00  0.00    +0.000 A 
ATOM     19  C   UNL     1       7.077   5.625  15.055  0.00  0.00    +0.000 A 
ATOM     20  C   UNL     1       7.391   5.012  13.842  0.00  0.00    +0.000 A 
ATOM     21  C   UNL     1       6.594   3.977  13.350  0.00  0.00    +0.000 A 
ATOM     22  C   UNL     1       5.465   3.572  14.057  0.00  0.00    +0.000 A 
ATOM     23  C   UNL     1       5.156   4.187  15.265  0.00  0.00    +0.000 A 
ATOM     24  F   UNL     1       4.099   3.745  15.964  0.00  0.00    +0.000 F 
ENDBRANCH  17  18
BRANCH  17  25
ATOM     25  C   UNL     1       6.677   6.805  17.575  0.00  0.00    +0.000 A 
ATOM     26  N   UNL     1       6.783   8.028  17.068  0.00  0.00    +0.000 NA
ATOM     27  C   UNL     1       7.888   8.590  17.657  0.00  0.00    +0.000 A 
ATOM     28  C   UNL     1       8.444   7.729  18.569  0.00  0.00    +0.000 A 
ATOM     29  N   UNL     1       7.650   6.616  18.542  0.00  0.00    +0.000 N 
ATOM     30  C   UNL     1       7.841   5.466  19.395  0.00  0.00    +0.000 C 
ENDBRANCH  17  25
ENDBRANCH   1  17
TORSDOF 6
ENDMDL
MODEL 6
REMARK VINA RESULT:      -7.2      3.073      5.506
REMARK  Name = 
REMARK  8 active torsions:
REMARK  status: ('A' for Active; 'I' for Inactive)
REMARK    1  A    between atoms: C_1  and  C_2
REMARK    2  A    between atoms: N_4  and  C_5
REMARK    3  A    between atoms: C_8  and  S_9
REMARK    4  A    between atoms: S_9  and  N_12
REMARK    5  A    between atoms: N_12  and  C_13
REMARK    6  A    between atoms: C_13  and  C_14
REMARK    7  A    between atoms: C_13  and  C_21
REMARK    8  A    between atoms: N_25  and  C_26
REMARK                            x       y       z     vdW  Elec       q    Type
REMARK                         _______ _______ _______ _____ _____    ______ ____
ROOT
ATOM      1  N   UNL     1       4.421   5.920  19.718  0.00  0.00    +0.000 NA
ATOM      2  H   UNL     1       4.795   6.859  19.876  0.00  0.00    +0.000 HD
ENDROOT
BRANCH   1   3
ATOM      3  S   UNL     1       5.539   4.714  19.432  0.00  0.00    +0.000 S 
ATOM      4  O   UNL     1       4.953   3.420  19.705  0.00  0.00    +0.000 OA
ATOM      5  O   UNL     1       6.759   5.142  20.084  0.00  0.00    +0.000 OA
BRANCH   3   9
ATOM      6  C   UNL     1       6.612   4.706  14.982  0.00  0.00    +0.000 A 
ATOM      7  C   UNL     1       7.016   5.752  15.814  0.00  0.00    +0.000 A 
ATOM      8  C   UNL     1       6.626   5.787  17.156  0.00  0.00    +0.000 A 
ATOM      9  C   UNL     1       5.840   4.758  17.680  0.00  0.00    +0.000 A 
ATOM     10  C   UNL     1       5.423   3.712  16.856  0.00  0.00    +0.000 A 
ATOM     11  C   UNL     1       5.778   3.707  15.504  0.00  0.00    +0.000 A 
BRANCH   6  15
ATOM     12  C   UNL     1       7.051   3.980  11.312  0.00  0.00    +0.000 C 
ATOM     13  C   UNL     1       6.310   3.959  12.624  0.00  0.00    +0.000 C 
ATOM     14  O   UNL     1       5.204   3.439  12.711  0.00  0.00    +0.000 OA
ATOM     15  N   UNL     1       7.020   4.578  13.639  0.00  0.00    +0.000 N 
ATOM     16  H   UNL     1       7.842   5.101  13.366  0.00  0.00    +0.000 HD
ENDBRANCH   6  15
ENDBRANCH   3   9
ENDBRANCH   1   3
BRANCH   1  17
ATOM     17  C   UNL     1       3.098   5.890  19.084  0.00  0.00    +0.000 C 
BRANCH  17  18
ATOM     18  C   UNL     1       2.334   4.619  19.376  0.00  0.00    +0.000 A 
ATOM     19  C   UNL     1       2.010   4.231  20.686  0.00  0.00    +0.000 A 
ATOM     20  C   UNL     1       1.215   3.106  20.908  0.00  0.00    +0.000 A 
ATOM     21  C   UNL     1       0.746   2.352  19.830  0.00  0.00    +0.000 A 
ATOM     22  C   UNL     1       1.096   2.705  18.530  0.00  0.00    +0.000 A 
ATOM     23  C   UNL     1       1.889   3.827  18.315  0.00  0.00    +0.000 A 
ATOM     24  F   UNL     1       2.168   4.190  17.053  0.00  0.00    +0.000 F 
ENDBRANCH  17  18
BRANCH  17  25
ATOM     25  C   UNL     1       2.321   7.115  19.559  0.00  0.00    +0.000 A 
ATOM     26  N   UNL     1       1.753   7.262  20.751  0.00  0.00    +0.000 NA
ATOM     27  C   UNL     1       1.092   8.464  20.712  0.00  0.00    +0.000 A 
ATOM     28  C   UNL     1       1.290   9.090  19.507  0.00  0.00    +0.000 A 
ATOM     29  N   UNL     1       2.101   8.250  18.795  0.00  0.00    +0.000 N 
ATOM     30  C   UNL     1       2.610   8.543  17.476  0.00  0.00    +0.000 C 
ENDBRANCH  17  25
ENDBRANCH   1  17
TORSDOF 6
ENDMDL
MODEL 7
REMARK VINA RESULT:      -7.2      3.042      5.088
REMARK  Name = 
REMARK  8 active torsions:
REMARK  status: ('A' for Active; 'I' for Inactive)
REMARK    1  A    between atoms: C_1  and  C_2
REMARK    2  A    between atoms: N_4  and  C_5
REMARK    3  A    between atoms: C_8  and  S_9
REMARK    4  A    between atoms: S_9  and  N_12
REMARK    5  A    between atoms: N_12  and  C_13
REMARK    6  A    between atoms: C_13  and  C_14
REMARK    7  A    between atoms: C_13  and  C_21
REMARK    8  A    between atoms: N_25  and  C_26
REMARK                            x       y       z     vdW  Elec       q    Type
REMARK                         _______ _______ _______ _____ _____    ______ ____
ROOT
ATOM      1  N   UNL     1       4.268   5.847  19.917  0.00  0.00    +0.000 NA
ATOM      2  H   UNL     1       4.580   6.726  20.335  0.00  0.00    +0.000 HD
ENDROOT
BRANCH   1   3
ATOM      3  S   UNL     1       5.464   4.759  19.500  0.00  0.00    +0.000 S 
ATOM      4  O   UNL     1       5.050   3.414  19.837  0.00  0.00    +0.000 OA
ATOM      5  O   UNL     1       6.700   5.316  20.006  0.00  0.00    +0.000 OA
BRANCH   3   9
ATOM      6  C   UNL     1       6.020   4.887  14.959  0.00  0.00    +0.000 A 
ATOM      7  C   UNL     1       6.150   6.045  15.729  0.00  0.00    +0.000 A 
ATOM      8  C   UNL     1       5.910   6.016  17.106  0.00  0.00    +0.000 A 
ATOM      9  C   UNL     1       5.554   4.816  17.725  0.00  0.00    +0.000 A 
ATOM     10  C   UNL     1       5.412   3.655  16.964  0.00  0.00    +0.000 A 
ATOM     11  C   UNL     1       5.610   3.701  15.581  0.00  0.00    +0.000 A 
BRANCH   6  15
ATOM     12  C   UNL     1       7.453   5.052  11.479  0.00  0.00    +0.000 C 
ATOM     13  C   UNL     1       7.493   5.218  12.976  0.00  0.00    +0.000 C 
ATOM     14  O   UNL     1       8.498   5.645  13.532  0.00  0.00    +0.000 OA
ATOM     15  N   UNL     1       6.308   4.834  13.580  0.00  0.00    +0.000 N 
ATOM     16  H   UNL     1       5.637   4.348  12.998  0.00  0.00    +0.000 HD
ENDBRANCH   6  15
ENDBRANCH   3   9
ENDBRANCH   1   3
BRANCH   1  17
ATOM     17  C   UNL     1       3.032   5.950  19.132  0.00  0.00    +0.000 C 
BRANCH  17  18
ATOM     18  C   UNL     1       2.171   4.711  19.226  0.00  0.00    +0.000 A 
ATOM     19  C   UNL     1       1.660   4.072  18.084  0.00  0.00    +0.000 A 
ATOM     20  C   UNL     1       0.957   2.872  18.207  0.00  0.00    +0.000 A 
ATOM     21  C   UNL     1       0.747   2.306  19.466  0.00  0.00    +0.000 A 
ATOM     22  C   UNL     1       1.214   2.954  20.607  0.00  0.00    +0.000 A 
ATOM     23  C   UNL     1       1.913   4.149  20.478  0.00  0.00    +0.000 A 
ATOM     24  F   UNL     1       2.409   4.730  21.582  0.00  0.00    +0.000 F 
ENDBRANCH  17  18
BRANCH  17  25
ATOM     25  C   UNL     1       2.271   7.182  19.613  0.00  0.00    +0.000 A 
ATOM     26  N   UNL     1       1.739   7.346  20.818  0.00  0.00    +0.000 NA
ATOM     27  C   UNL     1       1.079   8.549  20.783  0.00  0.00    +0.000 A 
ATOM     28  C   UNL     1       1.241   9.157  19.563  0.00  0.00    +0.000 A 
ATOM     29  N   UNL     1       2.030   8.306  18.840  0.00  0.00    +0.000 N 
ATOM     30  C   UNL     1       2.500   8.580  17.502  0.00  0.00    +0.000 C 
ENDBRANCH  17  25
ENDBRANCH   1  17
TORSDOF 6
ENDMDL
MODEL 8
REMARK VINA RESULT:      -7.2      0.457      1.020
REMARK  Name = 
REMARK  8 active torsions:
REMARK  status: ('A' for Active; 'I' for Inactive)
REMARK    1  A    between atoms: C_1  and  C_2
REMARK    2  A    between atoms: N_4  and  C_5
REMARK    3  A    between atoms: C_8  and  S_9
REMARK    4  A    between atoms: S_9  and  N_12
REMARK    5  A    between atoms: N_12  and  C_13
REMARK    6  A    between atoms: C_13  and  C_14
REMARK    7  A    between atoms: C_13  and  C_21
REMARK    8  A    between atoms: N_25  and  C_26
REMARK                            x       y       z     vdW  Elec       q    Type
REMARK                         _______ _______ _______ _____ _____    ______ ____
ROOT
ATOM      1  N   UNL     1       4.262   5.414  18.005  0.00  0.00    +0.000 NA
ATOM      2  H   UNL     1       3.832   5.059  17.148  0.00  0.00    +0.000 HD
ENDROOT
BRANCH   1   3
ATOM      3  S   UNL     1       5.825   4.916  18.312  0.00  0.00    +0.000 S 
ATOM      4  O   UNL     1       6.263   3.994  17.287  0.00  0.00    +0.000 OA
ATOM      5  O   UNL     1       5.857   4.554  19.714  0.00  0.00    +0.000 OA
BRANCH   3   9
ATOM      6  C   UNL     1       8.206   8.815  18.038  0.00  0.00    +0.000 A 
ATOM      7  C   UNL     1       7.058   8.621  17.266  0.00  0.00    +0.000 A 
ATOM      8  C   UNL     1       6.374   7.403  17.300  0.00  0.00    +0.000 A 
ATOM      9  C   UNL     1       6.828   6.371  18.126  0.00  0.00    +0.000 A 
ATOM     10  C   UNL     1       7.979   6.550  18.894  0.00  0.00    +0.000 A 
ATOM     11  C   UNL     1       8.684   7.756  18.821  0.00  0.00    +0.000 A 
BRANCH   6  15
ATOM     12  C   UNL     1      10.008  11.995  18.951  0.00  0.00    +0.000 C 
ATOM     13  C   UNL     1       9.300  10.698  19.249  0.00  0.00    +0.000 C 
ATOM     14  O   UNL     1       9.133  10.327  20.405  0.00  0.00    +0.000 OA
ATOM     15  N   UNL     1       8.905  10.037  18.099  0.00  0.00    +0.000 N 
ATOM     16  H   UNL     1       9.266  10.394  17.223  0.00  0.00    +0.000 HD
ENDBRANCH   6  15
ENDBRANCH   3   9
ENDBRANCH   1   3
BRANCH   1  17
ATOM     17  C   UNL     1       3.318   5.663  19.102  0.00  0.00    +0.000 C 
BRANCH  17  18
ATOM     18  C   UNL     1       2.662   7.022  19.016  0.00  0.00    +0.000 A 
ATOM     19  C   UNL     1       2.745   7.816  17.859  0.00  0.00    +0.000 A 
ATOM     20  C   UNL     1       2.040   9.017  17.781  0.00  0.00    +0.000 A 
ATOM     21  C   UNL     1       1.257   9.445  18.856  0.00  0.00    +0.000 A 
ATOM     22  C   UNL     1       1.201   8.685  20.022  0.00  0.00    +0.000 A 
ATOM     23  C   UNL     1       1.907   7.489  20.094  0.00  0.00    +0.000 A 
ATOM     24  F   UNL     1       1.795   6.737  21.200  0.00  0.00    +0.000 F 
ENDBRANCH  17  18
BRANCH  17  25
ATOM     25  C   UNL     1       2.273   4.551  19.084  0.00  0.00    +0.000 A 
ATOM     26  N   UNL     1       1.498   4.227  18.055  0.00  0.00    +0.000 NA
ATOM     27  C   UNL     1       0.656   3.243  18.508  0.00  0.00    +0.000 A 
ATOM     28  C   UNL     1       0.940   2.920  19.811  0.00  0.00    +0.000 A 
ATOM     29  N   UNL     1       1.991   3.723  20.158  0.00  0.00    +0.000 N 
ATOM     30  C   UNL     1       2.654   3.677  21.441  0.00  0.00    +0.000 C 
ENDBRANCH  17  25
ENDBRANCH   1  17
TORSDOF 6
ENDMDL
MODEL 9
REMARK VINA RESULT:      -7.1      3.035      4.159
REMARK  Name = 
REMARK  8 active torsions:
REMARK  status: ('A' for Active; 'I' for Inactive)
REMARK    1  A    between atoms: C_1  and  C_2
REMARK    2  A    between atoms: N_4  and  C_5
REMARK    3  A    between atoms: C_8  and  S_9
REMARK    4  A    between atoms: S_9  and  N_12
REMARK    5  A    between atoms: N_12  and  C_13
REMARK    6  A    between atoms: C_13  and  C_14
REMARK    7  A    between atoms: C_13  and  C_21
REMARK    8  A    between atoms: N_25  and  C_26
REMARK                            x       y       z     vdW  Elec       q    Type
REMARK                         _______ _______ _______ _____ _____    ______ ____
ROOT
ATOM      1  N   UNL     1       4.280   5.949  19.108  0.00  0.00    +0.000 NA
ATOM      2  H   UNL     1       4.142   6.430  18.217  0.00  0.00    +0.000 HD
ENDROOT
BRANCH   1   3
ATOM      3  S   UNL     1       5.467   4.775  19.143  0.00  0.00    +0.000 S 
ATOM      4  O   UNL     1       4.914   3.525  19.616  0.00  0.00    +0.000 OA
ATOM      5  O   UNL     1       6.609   5.387  19.789  0.00  0.00    +0.000 OA
BRANCH   3   9
ATOM      6  C   UNL     1       6.425   4.336  14.689  0.00  0.00    +0.000 A 
ATOM      7  C   UNL     1       5.247   3.807  15.223  0.00  0.00    +0.000 A 
ATOM      8  C   UNL     1       4.992   3.881  16.596  0.00  0.00    +0.000 A 
ATOM      9  C   UNL     1       5.911   4.505  17.443  0.00  0.00    +0.000 A 
ATOM     10  C   UNL     1       7.095   5.028  16.921  0.00  0.00    +0.000 A 
ATOM     11  C   UNL     1       7.366   4.910  15.554  0.00  0.00    +0.000 A 
BRANCH   6  15
ATOM     12  C   UNL     1       7.710   4.903  11.194  0.00  0.00    +0.000 C 
ATOM     13  C   UNL     1       7.686   5.114  12.686  0.00  0.00    +0.000 C 
ATOM     14  O   UNL     1       8.472   5.886  13.222  0.00  0.00    +0.000 OA
ATOM     15  N   UNL     1       6.714   4.350  13.309  0.00  0.00    +0.000 N 
ATOM     16  H   UNL     1       6.262   3.641  12.747  0.00  0.00    +0.000 HD
ENDBRANCH   6  15
ENDBRANCH   3   9
ENDBRANCH   1   3
BRANCH   1  17
ATOM     17  C   UNL     1       3.067   5.822  19.926  0.00  0.00    +0.000 C 
BRANCH  17  18
ATOM     18  C   UNL     1       2.221   7.074  19.922  0.00  0.00    +0.000 A 
ATOM     19  C   UNL     1       1.502   7.489  21.055  0.00  0.00    +0.000 A 
ATOM     20  C   UNL     1       0.817   8.705  21.045  0.00  0.00    +0.000 A 
ATOM     21  C   UNL     1       0.832   9.511  19.905  0.00  0.00    +0.000 A 
ATOM     22  C   UNL     1       1.509   9.089  18.763  0.00  0.00    +0.000 A 
ATOM     23  C   UNL     1       2.189   7.877  18.779  0.00  0.00    +0.000 A 
ATOM     24  F   UNL     1       2.887   7.512  17.692  0.00  0.00    +0.000 F 
ENDBRANCH  17  18
BRANCH  17  25
ATOM     25  C   UNL     1       2.275   4.625  19.407  0.00  0.00    +0.000 A 
ATOM     26  N   UNL     1       1.927   4.411  18.143  0.00  0.00    +0.000 NA
ATOM     27  C   UNL     1       1.154   3.277  18.147  0.00  0.00    +0.000 A 
ATOM     28  C   UNL     1       1.059   2.758  19.414  0.00  0.00    +0.000 A 
ATOM     29  N   UNL     1       1.803   3.593  20.201  0.00  0.00    +0.000 N 
ATOM     30  C   UNL     1       2.024   3.388  21.613  0.00  0.00    +0.000 C 
ENDBRANCH  17  25
ENDBRANCH   1  17
TORSDOF 6
ENDMDL
