MODEL 1
REMARK VINA RESULT:      -9.1      0.000      0.000
REMARK  Name = 
REMARK  4 active torsions:
REMARK  status: ('A' for Active; 'I' for Inactive)
REMARK    1  A    between atoms: C_2  and  C_4
REMARK    2  A    between atoms: C_8  and  N_9
REMARK    3  A    between atoms: N_9  and  C_10
REMARK    4  A    between atoms: C_12  and  C_13
REMARK                            x       y       z     vdW  Elec       q    Type
REMARK                         _______ _______ _______ _____ _____    ______ ____
ROOT
ATOM      1  C   UNL     1       2.946   6.056  19.133  0.00  0.00    +0.000 A 
ATOM      2  N   UNL     1       3.839   6.424  18.188  0.00  0.00    +0.000 NA
ATOM      3  C   UNL     1       4.147   5.519  17.219  0.00  0.00    +0.000 A 
ATOM      4  N   UNL     1       3.600   4.287  17.143  0.00  0.00    +0.000 NA
ATOM      5  C   UNL     1       2.704   3.938  18.058  0.00  0.00    +0.000 A 
ATOM      6  C   UNL     1       2.128   2.683  17.931  0.00  0.00    +0.000 A 
ATOM      7  C   UNL     1       1.166   2.222  18.828  0.00  0.00    +0.000 A 
ATOM      8  C   UNL     1       0.779   3.028  19.885  0.00  0.00    +0.000 A 
ATOM      9  C   UNL     1       1.347   4.295  20.027  0.00  0.00    +0.000 A 
ATOM     10  C   UNL     1       2.319   4.780  19.106  0.00  0.00    +0.000 A 
ENDROOT
BRANCH   3  11
ATOM     11  C   UNL     1       5.152   5.863  16.111  0.00  0.00    +0.000 C 
ATOM     12  F   UNL     1       4.866   7.000  15.411  0.00  0.00    +0.000 F 
ATOM     13  F   UNL     1       6.425   6.037  16.584  0.00  0.00    +0.000 F 
ATOM     14  F   UNL     1       5.255   4.873  15.168  0.00  0.00    +0.000 F 
ENDBRANCH   3  11
BRANCH   1  15
ATOM     15  N   UNL     1       2.522   6.964  20.149  0.00  0.00    +0.000 N 
ATOM     16  H   UNL     1       3.239   7.036  20.863  0.00  0.00    +0.000 HD
BRANCH  15  21
ATOM     17  C   UNL     1       0.362   9.650  21.553  0.00  0.00    +0.000 A 
ATOM     18  C   UNL     1       0.087  10.428  20.429  0.00  0.00    +0.000 A 
ATOM     19  C   UNL     1       0.593  10.041  19.188  0.00  0.00    +0.000 A 
ATOM     20  C   UNL     1       1.389   8.894  19.060  0.00  0.00    +0.000 A 
ATOM     21  C   UNL     1       1.738   8.138  20.178  0.00  0.00    +0.000 A 
ATOM     22  C   UNL     1       1.180   8.515  21.418  0.00  0.00    +0.000 A 
BRANCH  17  24
ATOM     23  N   UNL     1      -1.278  10.783  22.972  0.00  0.00    +0.000 N 
ATOM     24  C   UNL     1      -0.155  10.004  22.903  0.00  0.00    +0.000 C 
ATOM     25  O   UNL     1       0.387   9.594  23.924  0.00  0.00    +0.000 OA
ATOM     26  H   UNL     1      -1.658  10.951  23.894  0.00  0.00    +0.000 HD
ATOM     27  H   UNL     1      -1.886  10.938  22.180  0.00  0.00    +0.000 HD
ENDBRANCH  17  24
ENDBRANCH  15  21
ENDBRANCH   1  15
TORSDOF 4
ENDMDL
MODEL 2
REMARK VINA RESULT:      -8.9      0.672      1.020
REMARK  Name = 
REMARK  4 active torsions:
REMARK  status: ('A' for Active; 'I' for Inactive)
REMARK    1  A    between atoms: C_2  and  C_4
REMARK    2  A    between atoms: C_8  and  N_9
REMARK    3  A    between atoms: N_9  and  C_10
REMARK    4  A    between atoms: C_12  and  C_13
REMARK                            x       y       z     vdW  Elec       q    Type
REMARK                         _______ _______ _______ _____ _____    ______ ____
ROOT
ATOM      1  C   UNL     1       2.913   6.130  19.077  0.00  0.00    +0.000 A 
ATOM      2  N   UNL     1       3.811   6.477  18.128  0.00  0.00    +0.000 NA
ATOM      3  C   UNL     1       4.152   5.540  17.204  0.00  0.00    +0.000 A 
ATOM      4  N   UNL     1       3.633   4.293  17.173  0.00  0.00    +0.000 NA
ATOM      5  C   UNL     1       2.732   3.964  18.090  0.00  0.00    +0.000 A 
ATOM      6  C   UNL     1       2.185   2.692  18.010  0.00  0.00    +0.000 A 
ATOM      7  C   UNL     1       1.221   2.249  18.913  0.00  0.00    +0.000 A 
ATOM      8  C   UNL     1       0.801   3.091  19.929  0.00  0.00    +0.000 A 
ATOM      9  C   UNL     1       1.340   4.375  20.024  0.00  0.00    +0.000 A 
ATOM     10  C   UNL     1       2.314   4.841  19.096  0.00  0.00    +0.000 A 
ENDROOT
BRANCH   3  11
ATOM     11  C   UNL     1       5.165   5.858  16.095  0.00  0.00    +0.000 C 
ATOM     12  F   UNL     1       5.281   4.896  15.132  0.00  0.00    +0.000 F 
ATOM     13  F   UNL     1       4.869   7.013  15.421  0.00  0.00    +0.000 F 
ATOM     14  F   UNL     1       6.434   6.042  16.577  0.00  0.00    +0.000 F 
ENDBRANCH   3  11
BRANCH   1  15
ATOM     15  N   UNL     1       2.456   7.071  20.047  0.00  0.00    +0.000 N 
ATOM     16  H   UNL     1       3.146   7.163  20.786  0.00  0.00    +0.000 HD
BRANCH  15  21
ATOM     17  C   UNL     1       0.186   9.761  21.261  0.00  0.00    +0.000 A 
ATOM     18  C   UNL     1       0.019  10.545  20.120  0.00  0.00    +0.000 A 
ATOM     19  C   UNL     1       0.635  10.161  18.929  0.00  0.00    +0.000 A 
ATOM     20  C   UNL     1       1.435   9.011  18.868  0.00  0.00    +0.000 A 
ATOM     21  C   UNL     1       1.677   8.249  20.010  0.00  0.00    +0.000 A 
ATOM     22  C   UNL     1       1.010   8.623  21.195  0.00  0.00    +0.000 A 
BRANCH  17  24
ATOM     23  N   UNL     1      -0.195   9.300  23.633  0.00  0.00    +0.000 N 
ATOM     24  C   UNL     1      -0.450  10.111  22.559  0.00  0.00    +0.000 C 
ATOM     25  O   UNL     1      -1.160  11.103  22.678  0.00  0.00    +0.000 OA
ATOM     26  H   UNL     1      -0.574   9.595  24.523  0.00  0.00    +0.000 HD
ATOM     27  H   UNL     1       0.558   8.628  23.645  0.00  0.00    +0.000 HD
ENDBRANCH  17  24
ENDBRANCH  15  21
ENDBRANCH   1  15
TORSDOF 4
ENDMDL
MODEL 3
REMARK VINA RESULT:      -8.8      2.663      3.788
REMARK  Name = 
REMARK  4 active torsions:
REMARK  status: ('A' for Active; 'I' for Inactive)
REMARK    1  A    between atoms: C_2  and  C_4
REMARK    2  A    between atoms: C_8  and  N_9
REMARK    3  A    between atoms: N_9  and  C_10
REMARK    4  A    between atoms: C_12  and  C_13
REMARK                            x       y       z     vdW  Elec       q    Type
REMARK                         _______ _______ _______ _____ _____    ______ ____
ROOT
ATOM      1  C   UNL     1       2.639   5.960  19.147  0.00  0.00    +0.000 A 
ATOM      2  N   UNL     1       1.918   4.907  19.589  0.00  0.00    +0.000 NA
ATOM      3  C   UNL     1       2.052   3.724  18.930  0.00  0.00    +0.000 A 
ATOM      4  N   UNL     1       2.874   3.544  17.873  0.00  0.00    +0.000 NA
ATOM      5  C   UNL     1       3.600   4.574  17.458  0.00  0.00    +0.000 A 
ATOM      6  C   UNL     1       4.466   4.349  16.398  0.00  0.00    +0.000 A 
ATOM      7  C   UNL     1       5.285   5.357  15.891  0.00  0.00    +0.000 A 
ATOM      8  C   UNL     1       5.229   6.624  16.448  0.00  0.00    +0.000 A 
ATOM      9  C   UNL     1       4.365   6.867  17.516  0.00  0.00    +0.000 A 
ATOM     10  C   UNL     1       3.536   5.839  18.050  0.00  0.00    +0.000 A 
ENDROOT
BRANCH   3  11
ATOM     11  C   UNL     1       1.267   2.482  19.372  0.00  0.00    +0.000 C 
ATOM     12  F   UNL     1       0.167   2.199  18.614  0.00  0.00    +0.000 F 
ATOM     13  F   UNL     1       2.025   1.341  19.353  0.00  0.00    +0.000 F 
ATOM     14  F   UNL     1       0.805   2.581  20.658  0.00  0.00    +0.000 F 
ENDBRANCH   3  11
BRANCH   1  15
ATOM     15  N   UNL     1       2.603   7.220  19.817  0.00  0.00    +0.000 N 
ATOM     16  H   UNL     1       3.550   7.541  19.991  0.00  0.00    +0.000 HD
BRANCH  15  21
ATOM     17  C   UNL     1       0.274   9.820  21.109  0.00  0.00    +0.000 A 
ATOM     18  C   UNL     1      -0.053  10.526  19.952  0.00  0.00    +0.000 A 
ATOM     19  C   UNL     1       0.474  10.116  18.728  0.00  0.00    +0.000 A 
ATOM     20  C   UNL     1       1.344   9.019  18.648  0.00  0.00    +0.000 A 
ATOM     21  C   UNL     1       1.744   8.340  19.797  0.00  0.00    +0.000 A 
ATOM     22  C   UNL     1       1.166   8.736  21.021  0.00  0.00    +0.000 A 
BRANCH  17  24
ATOM     23  N   UNL     1      -0.702   9.196  23.264  0.00  0.00    +0.000 N 
ATOM     24  C   UNL     1      -0.261  10.200  22.445  0.00  0.00    +0.000 C 
ATOM     25  O   UNL     1      -0.287  11.368  22.815  0.00  0.00    +0.000 OA
ATOM     26  H   UNL     1      -0.992   9.465  24.195  0.00  0.00    +0.000 HD
ATOM     27  H   UNL     1      -0.481   8.224  23.106  0.00  0.00    +0.000 HD
ENDBRANCH  17  24
ENDBRANCH  15  21
ENDBRANCH   1  15
TORSDOF 4
ENDMDL
MODEL 4
REMARK VINA RESULT:      -8.7      1.882      2.212
REMARK  Name = 
REMARK  4 active torsions:
REMARK  status: ('A' for Active; 'I' for Inactive)
REMARK    1  A    between atoms: C_2  and  C_4
REMARK    2  A    between atoms: C_8  and  N_9
REMARK    3  A    between atoms: N_9  and  C_10
REMARK    4  A    between atoms: C_12  and  C_13
REMARK                            x       y       z     vdW  Elec       q    Type
REMARK                         _______ _______ _______ _____ _____    ______ ____
ROOT
ATOM      1  C   UNL     1       3.757   6.000  18.410  0.00  0.00    +0.000 A 
ATOM      2  N   UNL     1       5.082   6.228  18.271  0.00  0.00    +0.000 NA
ATOM      3  C   UNL     1       5.939   5.253  18.678  0.00  0.00    +0.000 A 
ATOM      4  N   UNL     1       5.540   4.072  19.196  0.00  0.00    +0.000 NA
ATOM      5  C   UNL     1       4.237   3.841  19.306  0.00  0.00    +0.000 A 
ATOM      6  C   UNL     1       3.855   2.604  19.803  0.00  0.00    +0.000 A 
ATOM      7  C   UNL     1       2.515   2.252  19.947  0.00  0.00    +0.000 A 
ATOM      8  C   UNL     1       1.530   3.162  19.600  0.00  0.00    +0.000 A 
ATOM      9  C   UNL     1       1.897   4.412  19.098  0.00  0.00    +0.000 A 
ATOM     10  C   UNL     1       3.265   4.773  18.932  0.00  0.00    +0.000 A 
ENDROOT
BRANCH   3  11
ATOM     11  C   UNL     1       7.458   5.436  18.552  0.00  0.00    +0.000 C 
ATOM     12  F   UNL     1       7.845   6.516  17.812  0.00  0.00    +0.000 F 
ATOM     13  F   UNL     1       8.076   5.586  19.765  0.00  0.00    +0.000 F 
ATOM     14  F   UNL     1       8.072   4.359  17.970  0.00  0.00    +0.000 F 
ENDBRANCH   3  11
BRANCH   1  15
ATOM     15  N   UNL     1       2.789   6.944  17.953  0.00  0.00    +0.000 N 
ATOM     16  H   UNL     1       2.101   6.475  17.373  0.00  0.00    +0.000 HD
BRANCH  15  21
ATOM     17  C   UNL     1       1.163   9.179  20.447  0.00  0.00    +0.000 A 
ATOM     18  C   UNL     1       0.961  10.346  19.712  0.00  0.00    +0.000 A 
ATOM     19  C   UNL     1       1.334  10.383  18.368  0.00  0.00    +0.000 A 
ATOM     20  C   UNL     1       1.929   9.271  17.754  0.00  0.00    +0.000 A 
ATOM     21  C   UNL     1       2.206   8.116  18.484  0.00  0.00    +0.000 A 
ATOM     22  C   UNL     1       1.780   8.078  19.828  0.00  0.00    +0.000 A 
BRANCH  17  24
ATOM     23  N   UNL     1      -0.467   8.586  22.172  0.00  0.00    +0.000 N 
ATOM     24  C   UNL     1       0.779   9.072  21.881  0.00  0.00    +0.000 C 
ATOM     25  O   UNL     1       1.555   9.384  22.776  0.00  0.00    +0.000 OA
ATOM     26  H   UNL     1      -0.683   8.450  23.151  0.00  0.00    +0.000 HD
ATOM     27  H   UNL     1      -1.037   8.099  21.495  0.00  0.00    +0.000 HD
ENDBRANCH  17  24
ENDBRANCH  15  21
ENDBRANCH   1  15
TORSDOF 4
ENDMDL
MODEL 5
REMARK VINA RESULT:      -8.6      1.593      1.931
REMARK  Name = 
REMARK  4 active torsions:
REMARK  status: ('A' for Active; 'I' for Inactive)
REMARK    1  A    between atoms: C_2  and  C_4
REMARK    2  A    between atoms: C_8  and  N_9
REMARK    3  A    between atoms: N_9  and  C_10
REMARK    4  A    between atoms: C_12  and  C_13
REMARK                            x       y       z     vdW  Elec       q    Type
REMARK                         _______ _______ _______ _____ _____    ______ ____
ROOT
ATOM      1  C   UNL     1       3.532   5.528  19.617  0.00  0.00    +0.000 A 
ATOM      2  N   UNL     1       4.814   5.914  19.428  0.00  0.00    +0.000 NA
ATOM      3  C   UNL     1       5.624   5.092  18.707  0.00  0.00    +0.000 A 
ATOM      4  N   UNL     1       5.215   3.927  18.161  0.00  0.00    +0.000 NA
ATOM      5  C   UNL     1       3.949   3.564  18.326  0.00  0.00    +0.000 A 
ATOM      6  C   UNL     1       3.547   2.384  17.719  0.00  0.00    +0.000 A 
ATOM      7  C   UNL     1       2.237   1.917  17.817  0.00  0.00    +0.000 A 
ATOM      8  C   UNL     1       1.310   2.639  18.549  0.00  0.00    +0.000 A 
ATOM      9  C   UNL     1       1.697   3.829  19.166  0.00  0.00    +0.000 A 
ATOM     10  C   UNL     1       3.030   4.321  19.058  0.00  0.00    +0.000 A 
ENDROOT
BRANCH   3  11
ATOM     11  C   UNL     1       7.091   5.461  18.449  0.00  0.00    +0.000 C 
ATOM     12  F   UNL     1       7.759   5.950  19.535  0.00  0.00    +0.000 F 
ATOM     13  F   UNL     1       7.836   4.398  18.012  0.00  0.00    +0.000 F 
ATOM     14  F   UNL     1       7.231   6.417  17.477  0.00  0.00    +0.000 F 
ENDBRANCH   3  11
BRANCH   1  15
ATOM     15  N   UNL     1       2.600   6.358  20.309  0.00  0.00    +0.000 N 
ATOM     16  H   UNL     1       2.726   6.251  21.310  0.00  0.00    +0.000 HD
BRANCH  15  21
ATOM     17  C   UNL     1       0.650   9.456  20.981  0.00  0.00    +0.000 A 
ATOM     18  C   UNL     1       0.684  10.102  19.746  0.00  0.00    +0.000 A 
ATOM     19  C   UNL     1       1.328   9.490  18.671  0.00  0.00    +0.000 A 
ATOM     20  C   UNL     1       1.959   8.247  18.821  0.00  0.00    +0.000 A 
ATOM     21  C   UNL     1       2.002   7.613  20.061  0.00  0.00    +0.000 A 
ATOM     22  C   UNL     1       1.306   8.222  21.127  0.00  0.00    +0.000 A 
BRANCH  17  24
ATOM     23  N   UNL     1      -0.632   9.199  23.049  0.00  0.00    +0.000 N 
ATOM     24  C   UNL     1      -0.028  10.052  22.165  0.00  0.00    +0.000 C 
ATOM     25  O   UNL     1      -0.028  11.262  22.361  0.00  0.00    +0.000 OA
ATOM     26  H   UNL     1      -1.022   9.614  23.885  0.00  0.00    +0.000 HD
ATOM     27  H   UNL     1      -0.453   8.205  23.060  0.00  0.00    +0.000 HD
ENDBRANCH  17  24
ENDBRANCH  15  21
ENDBRANCH   1  15
TORSDOF 4
ENDMDL
MODEL 6
REMARK VINA RESULT:      -8.6      4.180      7.177
REMARK  Name = 
REMARK  4 active torsions:
REMARK  status: ('A' for Active; 'I' for Inactive)
REMARK    1  A    between atoms: C_2  and  C_4
REMARK    2  A    between atoms: C_8  and  N_9
REMARK    3  A    between atoms: N_9  and  C_10
REMARK    4  A    between atoms: C_12  and  C_13
REMARK                            x       y       z     vdW  Elec       q    Type
REMARK                         _______ _______ _______ _____ _____    ______ ____
ROOT
ATOM      1  C   UNL     1       2.848   6.278  18.780  0.00  0.00    +0.000 A 
ATOM      2  N   UNL     1       2.436   7.394  19.420  0.00  0.00    +0.000 NA
ATOM      3  C   UNL     1       1.587   7.245  20.473  0.00  0.00    +0.000 A 
ATOM      4  N   UNL     1       1.149   6.048  20.919  0.00  0.00    +0.000 NA
ATOM      5  C   UNL     1       1.576   4.953  20.305  0.00  0.00    +0.000 A 
ATOM      6  C   UNL     1       1.143   3.736  20.810  0.00  0.00    +0.000 A 
ATOM      7  C   UNL     1       1.542   2.524  20.249  0.00  0.00    +0.000 A 
ATOM      8  C   UNL     1       2.383   2.526  19.149  0.00  0.00    +0.000 A 
ATOM      9  C   UNL     1       2.830   3.742  18.628  0.00  0.00    +0.000 A 
ATOM     10  C   UNL     1       2.439   4.984  19.205  0.00  0.00    +0.000 A 
ENDROOT
BRANCH   3  11
ATOM     11  C   UNL     1       1.075   8.465  21.252  0.00  0.00    +0.000 C 
ATOM     12  F   UNL     1       1.794   8.773  22.371  0.00  0.00    +0.000 F 
ATOM     13  F   UNL     1       1.065   9.609  20.499  0.00  0.00    +0.000 F 
ATOM     14  F   UNL     1      -0.217   8.311  21.682  0.00  0.00    +0.000 F 
ENDBRANCH   3  11
BRANCH   1  15
ATOM     15  N   UNL     1       3.785   6.341  17.705  0.00  0.00    +0.000 N 
ATOM     16  H   UNL     1       3.703   7.235  17.232  0.00  0.00    +0.000 HD
BRANCH  15  21
ATOM     17  C   UNL     1       6.677   4.965  15.808  0.00  0.00    +0.000 A 
ATOM     18  C   UNL     1       7.609   4.730  16.818  0.00  0.00    +0.000 A 
ATOM     19  C   UNL     1       7.265   4.995  18.143  0.00  0.00    +0.000 A 
ATOM     20  C   UNL     1       6.004   5.516  18.471  0.00  0.00    +0.000 A 
ATOM     21  C   UNL     1       5.080   5.827  17.475  0.00  0.00    +0.000 A 
ATOM     22  C   UNL     1       5.425   5.508  16.145  0.00  0.00    +0.000 A 
BRANCH  17  24
ATOM     23  N   UNL     1       6.342   3.640  13.779  0.00  0.00    +0.000 N 
ATOM     24  C   UNL     1       6.979   4.695  14.376  0.00  0.00    +0.000 C 
ATOM     25  O   UNL     1       7.751   5.402  13.740  0.00  0.00    +0.000 OA
ATOM     26  H   UNL     1       6.501   3.517  12.788  0.00  0.00    +0.000 HD
ATOM     27  H   UNL     1       5.533   3.189  14.182  0.00  0.00    +0.000 HD
ENDBRANCH  17  24
ENDBRANCH  15  21
ENDBRANCH   1  15
TORSDOF 4
ENDMDL
MODEL 7
REMARK VINA RESULT:      -8.6      2.016      2.477
REMARK  Name = 
REMARK  4 active torsions:
REMARK  status: ('A' for Active; 'I' for Inactive)
REMARK    1  A    between atoms: C_2  and  C_4
REMARK    2  A    between atoms: C_8  and  N_9
REMARK    3  A    between atoms: N_9  and  C_10
REMARK    4  A    between atoms: C_12  and  C_13
REMARK                            x       y       z     vdW  Elec       q    Type
REMARK                         _______ _______ _______ _____ _____    ______ ____
ROOT
ATOM      1  C   UNL     1       3.816   6.023  18.167  0.00  0.00    +0.000 A 
ATOM      2  N   UNL     1       5.143   6.268  18.235  0.00  0.00    +0.000 NA
ATOM      3  C   UNL     1       5.958   5.249  18.622  0.00  0.00    +0.000 A 
ATOM      4  N   UNL     1       5.515   4.010  18.926  0.00  0.00    +0.000 NA
ATOM      5  C   UNL     1       4.214   3.766  18.832  0.00  0.00    +0.000 A 
ATOM      6  C   UNL     1       3.793   2.474  19.110  0.00  0.00    +0.000 A 
ATOM      7  C   UNL     1       2.451   2.105  19.029  0.00  0.00    +0.000 A 
ATOM      8  C   UNL     1       1.505   3.052  18.676  0.00  0.00    +0.000 A 
ATOM      9  C   UNL     1       1.911   4.357  18.392  0.00  0.00    +0.000 A 
ATOM     10  C   UNL     1       3.282   4.738  18.457  0.00  0.00    +0.000 A 
ENDROOT
BRANCH   3  11
ATOM     11  C   UNL     1       7.476   5.448  18.722  0.00  0.00    +0.000 C 
ATOM     12  F   UNL     1       8.223   4.450  18.165  0.00  0.00    +0.000 F 
ATOM     13  F   UNL     1       7.901   6.601  18.118  0.00  0.00    +0.000 F 
ATOM     14  F   UNL     1       7.910   5.545  20.018  0.00  0.00    +0.000 F 
ENDBRANCH   3  11
BRANCH   1  15
ATOM     15  N   UNL     1       2.899   7.018  17.712  0.00  0.00    +0.000 N 
ATOM     16  H   UNL     1       2.285   6.620  17.009  0.00  0.00    +0.000 HD
BRANCH  15  21
ATOM     17  C   UNL     1       1.145   9.022  20.312  0.00  0.00    +0.000 A 
ATOM     18  C   UNL     1       0.883  10.215  19.640  0.00  0.00    +0.000 A 
ATOM     19  C   UNL     1       1.258  10.345  18.303  0.00  0.00    +0.000 A 
ATOM     20  C   UNL     1       1.914   9.302  17.634  0.00  0.00    +0.000 A 
ATOM     21  C   UNL     1       2.252   8.126  18.302  0.00  0.00    +0.000 A 
ATOM     22  C   UNL     1       1.824   7.992  19.639  0.00  0.00    +0.000 A 
BRANCH  17  24
ATOM     23  N   UNL     1       1.745   8.928  22.682  0.00  0.00    +0.000 N 
ATOM     24  C   UNL     1       0.762   8.817  21.736  0.00  0.00    +0.000 C 
ATOM     25  O   UNL     1      -0.396   8.581  22.060  0.00  0.00    +0.000 OA
ATOM     26  H   UNL     1       1.453   8.861  23.649  0.00  0.00    +0.000 HD
ATOM     27  H   UNL     1       2.642   9.352  22.493  0.00  0.00    +0.000 HD
ENDBRANCH  17  24
ENDBRANCH  15  21
ENDBRANCH   1  15
TORSDOF 4
ENDMDL
MODEL 8
REMARK VINA RESULT:      -8.6      0.871      1.088
REMARK  Name = 
REMARK  4 active torsions:
REMARK  status: ('A' for Active; 'I' for Inactive)
REMARK    1  A    between atoms: C_2  and  C_4
REMARK    2  A    between atoms: C_8  and  N_9
REMARK    3  A    between atoms: N_9  and  C_10
REMARK    4  A    between atoms: C_12  and  C_13
REMARK                            x       y       z     vdW  Elec       q    Type
REMARK                         _______ _______ _______ _____ _____    ______ ____
ROOT
ATOM      1  C   UNL     1       3.312   5.718  18.762  0.00  0.00    +0.000 A 
ATOM      2  N   UNL     1       4.304   5.868  17.857  0.00  0.00    +0.000 NA
ATOM      3  C   UNL     1       4.584   4.814  17.042  0.00  0.00    +0.000 A 
ATOM      4  N   UNL     1       3.918   3.640  17.080  0.00  0.00    +0.000 NA
ATOM      5  C   UNL     1       2.927   3.506  17.952  0.00  0.00    +0.000 A 
ATOM      6  C   UNL     1       2.234   2.305  17.940  0.00  0.00    +0.000 A 
ATOM      7  C   UNL     1       1.167   2.064  18.804  0.00  0.00    +0.000 A 
ATOM      8  C   UNL     1       0.792   3.040  19.712  0.00  0.00    +0.000 A 
ATOM      9  C   UNL     1       1.477   4.255  19.737  0.00  0.00    +0.000 A 
ATOM     10  C   UNL     1       2.559   4.515  18.847  0.00  0.00    +0.000 A 
ENDROOT
BRANCH   3  11
ATOM     11  C   UNL     1       5.696   4.907  15.988  0.00  0.00    +0.000 C 
ATOM     12  F   UNL     1       6.705   5.773  16.294  0.00  0.00    +0.000 F 
ATOM     13  F   UNL     1       6.307   3.704  15.755  0.00  0.00    +0.000 F 
ATOM     14  F   UNL     1       5.229   5.312  14.765  0.00  0.00    +0.000 F 
ENDBRANCH   3  11
BRANCH   1  15
ATOM     15  N   UNL     1       2.914   6.793  19.613  0.00  0.00    +0.000 N 
ATOM     16  H   UNL     1       3.671   7.022  20.249  0.00  0.00    +0.000 HD
BRANCH  15  21
ATOM     17  C   UNL     1       0.470   9.434  20.564  0.00  0.00    +0.000 A 
ATOM     18  C   UNL     1       0.319  10.142  19.372  0.00  0.00    +0.000 A 
ATOM     19  C   UNL     1       1.006   9.720  18.234  0.00  0.00    +0.000 A 
ATOM     20  C   UNL     1       1.860   8.609  18.277  0.00  0.00    +0.000 A 
ATOM     21  C   UNL     1       2.084   7.926  19.472  0.00  0.00    +0.000 A 
ATOM     22  C   UNL     1       1.347   8.336  20.603  0.00  0.00    +0.000 A 
BRANCH  17  24
ATOM     23  N   UNL     1      -0.543  11.151  21.982  0.00  0.00    +0.000 N 
ATOM     24  C   UNL     1      -0.240   9.827  21.811  0.00  0.00    +0.000 C 
ATOM     25  O   UNL     1      -0.569   8.997  22.651  0.00  0.00    +0.000 OA
ATOM     26  H   UNL     1      -1.092  11.390  22.797  0.00  0.00    +0.000 HD
ATOM     27  H   UNL     1      -0.512  11.821  21.227  0.00  0.00    +0.000 HD
ENDBRANCH  17  24
ENDBRANCH  15  21
ENDBRANCH   1  15
TORSDOF 4
ENDMDL
MODEL 9
REMARK VINA RESULT:      -8.6      1.343      1.702
REMARK  Name = 
REMARK  4 active torsions:
REMARK  status: ('A' for Active; 'I' for Inactive)
REMARK    1  A    between atoms: C_2  and  C_4
REMARK    2  A    between atoms: C_8  and  N_9
REMARK    3  A    between atoms: N_9  and  C_10
REMARK    4  A    between atoms: C_12  and  C_13
REMARK                            x       y       z     vdW  Elec       q    Type
REMARK                         _______ _______ _______ _____ _____    ______ ____
ROOT
ATOM      1  C   UNL     1       3.508   5.509  19.203  0.00  0.00    +0.000 A 
ATOM      2  N   UNL     1       4.706   5.637  18.591  0.00  0.00    +0.000 NA
ATOM      3  C   UNL     1       5.166   4.581  17.866  0.00  0.00    +0.000 A 
ATOM      4  N   UNL     1       4.486   3.424  17.714  0.00  0.00    +0.000 NA
ATOM      5  C   UNL     1       3.298   3.311  18.295  0.00  0.00    +0.000 A 
ATOM      6  C   UNL     1       2.605   2.128  18.088  0.00  0.00    +0.000 A 
ATOM      7  C   UNL     1       1.344   1.909  18.640  0.00  0.00    +0.000 A 
ATOM      8  C   UNL     1       0.766   2.890  19.429  0.00  0.00    +0.000 A 
ATOM      9  C   UNL     1       1.449   4.087  19.646  0.00  0.00    +0.000 A 
ATOM     10  C   UNL     1       2.732   4.325  19.073  0.00  0.00    +0.000 A 
ENDROOT
BRANCH   3  11
ATOM     11  C   UNL     1       6.517   4.651  17.141  0.00  0.00    +0.000 C 
ATOM     12  F   UNL     1       7.594   4.303  17.903  0.00  0.00    +0.000 F 
ATOM     13  F   UNL     1       6.571   3.837  16.041  0.00  0.00    +0.000 F 
ATOM     14  F   UNL     1       6.797   5.906  16.669  0.00  0.00    +0.000 F 
ENDBRANCH   3  11
BRANCH   1  15
ATOM     15  N   UNL     1       2.927   6.588  19.932  0.00  0.00    +0.000 N 
ATOM     16  H   UNL     1       3.501   6.803  20.741  0.00  0.00    +0.000 HD
BRANCH  15  21
ATOM     17  C   UNL     1       0.593   9.455  20.371  0.00  0.00    +0.000 A 
ATOM     18  C   UNL     1       0.565  10.013  19.093  0.00  0.00    +0.000 A 
ATOM     19  C   UNL     1       1.297   9.414  18.068  0.00  0.00    +0.000 A 
ATOM     20  C   UNL     1       2.077   8.274  18.310  0.00  0.00    +0.000 A 
ATOM     21  C   UNL     1       2.179   7.737  19.592  0.00  0.00    +0.000 A 
ATOM     22  C   UNL     1       1.396   8.326  20.607  0.00  0.00    +0.000 A 
BRANCH  17  24
ATOM     23  N   UNL     1      -0.007   9.479  22.742  0.00  0.00    +0.000 N 
ATOM     24  C   UNL     1      -0.172  10.041  21.505  0.00  0.00    +0.000 C 
ATOM     25  O   UNL     1      -0.908  11.009  21.349  0.00  0.00    +0.000 OA
ATOM     26  H   UNL     1      -0.475   9.936  23.514  0.00  0.00    +0.000 HD
ATOM     27  H   UNL     1       0.754   8.853  22.962  0.00  0.00    +0.000 HD
ENDBRANCH  17  24
ENDBRANCH  15  21
ENDBRANCH   1  15
TORSDOF 4
ENDMDL
