MODEL 1
REMARK VINA RESULT:      -8.7      0.000      0.000
REMARK  Name = 
REMARK  7 active torsions:
REMARK  status: ('A' for Active; 'I' for Inactive)
REMARK    1  A    between atoms: C_8  and  C_9
REMARK    2  A    between atoms: N_11  and  C_12
REMARK    3  A    between atoms: C_16  and  C_17
REMARK    4  A    between atoms: C_17  and  C_18
REMARK    5  A    between atoms: C_17  and  S_19
REMARK    6  A    between atoms: S_19  and  C_20
REMARK    7  A    between atoms: N_24  and  C_25
REMARK                            x       y       z     vdW  Elec       q    Type
REMARK                         _______ _______ _______ _____ _____    ______ ____
ROOT
ATOM      1  C   UNL     1       2.688   6.542  18.389  0.00  0.00    +0.000 A 
ATOM      2  C   UNL     1       1.861   5.413  18.360  0.00  0.00    +0.000 A 
ATOM      3  C   UNL     1       2.307   4.197  17.855  0.00  0.00    +0.000 A 
ATOM      4  C   UNL     1       3.594   4.094  17.354  0.00  0.00    +0.000 A 
ATOM      5  C   UNL     1       4.437   5.218  17.308  0.00  0.00    +0.000 A 
ATOM      6  C   UNL     1       3.958   6.453  17.802  0.00  0.00    +0.000 A 
ENDROOT
BRANCH   1   9
ATOM      7  C   UNL     1       1.781   8.840  18.353  0.00  0.00    +0.000 C 
ATOM      8  O   UNL     1       1.607   8.912  17.141  0.00  0.00    +0.000 OA
ATOM      9  N   UNL     1       2.293   7.742  19.031  0.00  0.00    +0.000 N 
ATOM     10  H   UNL     1       2.221   7.765  20.045  0.00  0.00    +0.000 HD
BRANCH   7  18
ATOM     11  C   UNL     1      -0.803   9.924  23.159  0.00  0.00    +0.000 C 
ATOM     12  C   UNL     1      -0.421  10.934  22.374  0.00  0.00    +0.000 C 
ATOM     13  C   UNL     1      -0.628  12.347  22.620  0.00  0.00    +0.000 C 
ATOM     14  C   UNL     1      -0.098  13.062  21.610  0.00  0.00    +0.000 C 
ATOM     15  C   UNL     1       0.484  12.125  20.649  0.00  0.00    +0.000 A 
ATOM     16  C   UNL     1       1.139  12.311  19.447  0.00  0.00    +0.000 A 
ATOM     17  N   UNL     1       1.593  11.277  18.682  0.00  0.00    +0.000 NA
ATOM     18  C   UNL     1       1.356  10.017  19.165  0.00  0.00    +0.000 A 
ATOM     19  C   UNL     1       0.715   9.741  20.373  0.00  0.00    +0.000 A 
ATOM     20  C   UNL     1       0.285  10.820  21.102  0.00  0.00    +0.000 A 
ENDBRANCH   7  18
ENDBRANCH   1   9
BRANCH   5  21
ATOM     21  C   UNL     1       5.873   5.081  16.822  0.00  0.00    +0.000 C 
ATOM     22  C   UNL     1       6.792   4.750  18.008  0.00  0.00    +0.000 C 
BRANCH  21  23
ATOM     23  S   UNL     1       6.087   3.753  15.581  0.00  0.00    +0.000 S 
BRANCH  23  24
ATOM     24  C   UNL     1       6.932   4.561  14.312  0.00  0.00    +0.000 A 
ATOM     25  N   UNL     1       7.836   5.505  14.424  0.00  0.00    +0.000 NA
ATOM     26  N   UNL     1       8.290   5.800  13.153  0.00  0.00    +0.000 NA
ATOM     27  C   UNL     1       7.648   5.022  12.311  0.00  0.00    +0.000 A 
ATOM     28  N   UNL     1       6.773   4.233  12.996  0.00  0.00    +0.000 N 
ATOM     29  C   UNL     1       5.875   3.268  12.422  0.00  0.00    +0.000 C 
ENDBRANCH  23  24
ENDBRANCH  21  23
ENDBRANCH   5  21
TORSDOF 5
ENDMDL
MODEL 2
REMARK VINA RESULT:      -8.2      3.798      9.731
REMARK  Name = 
REMARK  7 active torsions:
REMARK  status: ('A' for Active; 'I' for Inactive)
REMARK    1  A    between atoms: C_8  and  C_9
REMARK    2  A    between atoms: N_11  and  C_12
REMARK    3  A    between atoms: C_16  and  C_17
REMARK    4  A    between atoms: C_17  and  C_18
REMARK    5  A    between atoms: C_17  and  S_19
REMARK    6  A    between atoms: S_19  and  C_20
REMARK    7  A    between atoms: N_24  and  C_25
REMARK                            x       y       z     vdW  Elec       q    Type
REMARK                         _______ _______ _______ _____ _____    ______ ____
ROOT
ATOM      1  C   UNL     1       1.438   8.597  20.217  0.00  0.00    +0.000 A 
ATOM      2  C   UNL     1       1.349   8.419  21.602  0.00  0.00    +0.000 A 
ATOM      3  C   UNL     1       0.455   9.152  22.375  0.00  0.00    +0.000 A 
ATOM      4  C   UNL     1      -0.362  10.092  21.769  0.00  0.00    +0.000 A 
ATOM      5  C   UNL     1      -0.263  10.345  20.390  0.00  0.00    +0.000 A 
ATOM      6  C   UNL     1       0.671   9.610  19.624  0.00  0.00    +0.000 A 
ENDROOT
BRANCH   1   9
ATOM      7  C   UNL     1       2.321   6.381  19.572  0.00  0.00    +0.000 C 
ATOM      8  O   UNL     1       1.723   5.731  20.422  0.00  0.00    +0.000 OA
ATOM      9  N   UNL     1       2.240   7.757  19.405  0.00  0.00    +0.000 N 
ATOM     10  H   UNL     1       2.657   8.133  18.557  0.00  0.00    +0.000 HD
BRANCH   7  18
ATOM     11  C   UNL     1       7.352   6.689  17.218  0.00  0.00    +0.000 C 
ATOM     12  C   UNL     1       6.527   5.694  16.882  0.00  0.00    +0.000 C 
ATOM     13  C   UNL     1       6.785   4.646  15.916  0.00  0.00    +0.000 C 
ATOM     14  C   UNL     1       5.724   3.819  15.854  0.00  0.00    +0.000 C 
ATOM     15  C   UNL     1       4.715   4.308  16.795  0.00  0.00    +0.000 A 
ATOM     16  C   UNL     1       3.454   3.853  17.126  0.00  0.00    +0.000 A 
ATOM     17  N   UNL     1       2.653   4.482  18.034  0.00  0.00    +0.000 NA
ATOM     18  C   UNL     1       3.165   5.616  18.608  0.00  0.00    +0.000 A 
ATOM     19  C   UNL     1       4.431   6.136  18.341  0.00  0.00    +0.000 A 
ATOM     20  C   UNL     1       5.193   5.459  17.424  0.00  0.00    +0.000 A 
ENDBRANCH   7  18
ENDBRANCH   1   9
BRANCH   5  21
ATOM     21  C   UNL     1      -1.213  11.328  19.720  0.00  0.00    +0.000 C 
ATOM     22  C   UNL     1      -0.562  12.719  19.661  0.00  0.00    +0.000 C 
BRANCH  21  23
ATOM     23  S   UNL     1      -1.644  10.856  18.005  0.00  0.00    +0.000 S 
BRANCH  23  24
ATOM     24  C   UNL     1      -3.289  11.362  17.880  0.00  0.00    +0.000 A 
ATOM     25  N   UNL     1      -4.047  11.867  18.825  0.00  0.00    +0.000 NA
ATOM     26  N   UNL     1      -5.261  12.192  18.254  0.00  0.00    +0.000 NA
ATOM     27  C   UNL     1      -5.200  11.876  16.980  0.00  0.00    +0.000 A 
ATOM     28  N   UNL     1      -3.979  11.339  16.702  0.00  0.00    +0.000 N 
ATOM     29  C   UNL     1      -3.540  10.850  15.423  0.00  0.00    +0.000 C 
ENDBRANCH  23  24
ENDBRANCH  21  23
ENDBRANCH   5  21
TORSDOF 5
ENDMDL
MODEL 3
REMARK VINA RESULT:      -8.0      3.008      4.716
REMARK  Name = 
REMARK  7 active torsions:
REMARK  status: ('A' for Active; 'I' for Inactive)
REMARK    1  A    between atoms: C_8  and  C_9
REMARK    2  A    between atoms: N_11  and  C_12
REMARK    3  A    between atoms: C_16  and  C_17
REMARK    4  A    between atoms: C_17  and  C_18
REMARK    5  A    between atoms: C_17  and  S_19
REMARK    6  A    between atoms: S_19  and  C_20
REMARK    7  A    between atoms: N_24  and  C_25
REMARK                            x       y       z     vdW  Elec       q    Type
REMARK                         _______ _______ _______ _____ _____    ______ ____
ROOT
ATOM      1  C   UNL     1       0.923   9.514  19.694  0.00  0.00    +0.000 A 
ATOM      2  C   UNL     1       1.224   9.867  18.374  0.00  0.00    +0.000 A 
ATOM      3  C   UNL     1       2.000   9.050  17.561  0.00  0.00    +0.000 A 
ATOM      4  C   UNL     1       2.504   7.862  18.066  0.00  0.00    +0.000 A 
ATOM      5  C   UNL     1       2.275   7.498  19.404  0.00  0.00    +0.000 A 
ATOM      6  C   UNL     1       1.506   8.354  20.224  0.00  0.00    +0.000 A 
ENDROOT
BRANCH   1   9
ATOM      7  C   UNL     1       0.355  11.457  21.113  0.00  0.00    +0.000 C 
ATOM      8  O   UNL     1       1.456  11.997  21.070  0.00  0.00    +0.000 OA
ATOM      9  N   UNL     1       0.016  10.267  20.482  0.00  0.00    +0.000 N 
ATOM     10  H   UNL     1      -0.972  10.032  20.467  0.00  0.00    +0.000 HD
BRANCH   7  18
ATOM     11  C   UNL     1      -5.117  12.395  20.765  0.00  0.00    +0.000 C 
ATOM     12  C   UNL     1      -4.415  12.946  21.759  0.00  0.00    +0.000 C 
ATOM     13  C   UNL     1      -4.925  13.820  22.796  0.00  0.00    +0.000 C 
ATOM     14  C   UNL     1      -3.922  14.168  23.625  0.00  0.00    +0.000 C 
ATOM     15  C   UNL     1      -2.698  13.523  23.149  0.00  0.00    +0.000 A 
ATOM     16  C   UNL     1      -1.397  13.541  23.611  0.00  0.00    +0.000 A 
ATOM     17  N   UNL     1      -0.381  12.871  22.994  0.00  0.00    +0.000 NA
ATOM     18  C   UNL     1      -0.717  12.171  21.865  0.00  0.00    +0.000 A 
ATOM     19  C   UNL     1      -2.006  12.089  21.339  0.00  0.00    +0.000 A 
ATOM     20  C   UNL     1      -2.987  12.779  22.004  0.00  0.00    +0.000 A 
ENDBRANCH   7  18
ENDBRANCH   1   9
BRANCH   5  21
ATOM     21  C   UNL     1       2.771   6.158  19.930  0.00  0.00    +0.000 C 
ATOM     22  C   UNL     1       1.607   5.395  20.582  0.00  0.00    +0.000 C 
BRANCH  21  23
ATOM     23  S   UNL     1       3.462   5.083  18.621  0.00  0.00    +0.000 S 
BRANCH  23  24
ATOM     24  C   UNL     1       5.159   5.354  18.771  0.00  0.00    +0.000 A 
ATOM     25  N   UNL     1       5.942   5.008  19.765  0.00  0.00    +0.000 NA
ATOM     26  N   UNL     1       7.232   5.361  19.422  0.00  0.00    +0.000 NA
ATOM     27  C   UNL     1       7.190   5.909  18.228  0.00  0.00    +0.000 A 
ATOM     28  N   UNL     1       5.902   5.935  17.784  0.00  0.00    +0.000 N 
ATOM     29  C   UNL     1       5.449   6.479  16.532  0.00  0.00    +0.000 C 
ENDBRANCH  23  24
ENDBRANCH  21  23
ENDBRANCH   5  21
TORSDOF 5
ENDMDL
MODEL 4
REMARK VINA RESULT:      -7.9      2.944      4.803
REMARK  Name = 
REMARK  7 active torsions:
REMARK  status: ('A' for Active; 'I' for Inactive)
REMARK    1  A    between atoms: C_8  and  C_9
REMARK    2  A    between atoms: N_11  and  C_12
REMARK    3  A    between atoms: C_16  and  C_17
REMARK    4  A    between atoms: C_17  and  C_18
REMARK    5  A    between atoms: C_17  and  S_19
REMARK    6  A    between atoms: S_19  and  C_20
REMARK    7  A    between atoms: N_24  and  C_25
REMARK                            x       y       z     vdW  Elec       q    Type
REMARK                         _______ _______ _______ _____ _____    ______ ____
ROOT
ATOM      1  C   UNL     1       0.931   9.445  19.903  0.00  0.00    +0.000 A 
ATOM      2  C   UNL     1       1.173   9.851  18.586  0.00  0.00    +0.000 A 
ATOM      3  C   UNL     1       1.914   9.070  17.708  0.00  0.00    +0.000 A 
ATOM      4  C   UNL     1       2.441   7.864  18.141  0.00  0.00    +0.000 A 
ATOM      5  C   UNL     1       2.273   7.446  19.473  0.00  0.00    +0.000 A 
ATOM      6  C   UNL     1       1.539   8.266  20.360  0.00  0.00    +0.000 A 
ENDROOT
BRANCH   1   9
ATOM      7  C   UNL     1       0.359  11.413  21.284  0.00  0.00    +0.000 C 
ATOM      8  O   UNL     1       1.392  12.042  21.079  0.00  0.00    +0.000 OA
ATOM      9  N   UNL     1       0.059  10.163  20.759  0.00  0.00    +0.000 N 
ATOM     10  H   UNL     1      -0.898   9.843  20.878  0.00  0.00    +0.000 HD
BRANCH   7  18
ATOM     11  C   UNL     1      -0.559  16.319  23.741  0.00  0.00    +0.000 C 
ATOM     12  C   UNL     1      -1.439  15.327  23.900  0.00  0.00    +0.000 C 
ATOM     13  C   UNL     1      -2.651  15.366  24.692  0.00  0.00    +0.000 C 
ATOM     14  C   UNL     1      -3.285  14.181  24.604  0.00  0.00    +0.000 C 
ATOM     15  C   UNL     1      -2.492  13.308  23.736  0.00  0.00    +0.000 A 
ATOM     16  C   UNL     1      -2.670  12.005  23.315  0.00  0.00    +0.000 A 
ATOM     17  N   UNL     1      -1.782  11.359  22.506  0.00  0.00    +0.000 NA
ATOM     18  C   UNL     1      -0.677  12.076  22.128  0.00  0.00    +0.000 A 
ATOM     19  C   UNL     1      -0.428  13.397  22.495  0.00  0.00    +0.000 A 
ATOM     20  C   UNL     1      -1.357  13.997  23.306  0.00  0.00    +0.000 A 
ENDBRANCH   7  18
ENDBRANCH   1   9
BRANCH   5  21
ATOM     21  C   UNL     1       2.793   6.088  19.923  0.00  0.00    +0.000 C 
ATOM     22  C   UNL     1       1.654   5.285  20.569  0.00  0.00    +0.000 C 
BRANCH  21  23
ATOM     23  S   UNL     1       3.457   5.081  18.546  0.00  0.00    +0.000 S 
BRANCH  23  24
ATOM     24  C   UNL     1       5.158   5.320  18.695  0.00  0.00    +0.000 A 
ATOM     25  N   UNL     1       5.948   4.896  19.653  0.00  0.00    +0.000 NA
ATOM     26  N   UNL     1       7.239   5.256  19.320  0.00  0.00    +0.000 NA
ATOM     27  C   UNL     1       7.191   5.886  18.167  0.00  0.00    +0.000 A 
ATOM     28  N   UNL     1       5.898   5.960  17.742  0.00  0.00    +0.000 N 
ATOM     29  C   UNL     1       5.438   6.595  16.536  0.00  0.00    +0.000 C 
ENDBRANCH  23  24
ENDBRANCH  21  23
ENDBRANCH   5  21
TORSDOF 5
ENDMDL
MODEL 5
REMARK VINA RESULT:      -7.9      2.074      3.047
REMARK  Name = 
REMARK  7 active torsions:
REMARK  status: ('A' for Active; 'I' for Inactive)
REMARK    1  A    between atoms: C_8  and  C_9
REMARK    2  A    between atoms: N_11  and  C_12
REMARK    3  A    between atoms: C_16  and  C_17
REMARK    4  A    between atoms: C_17  and  C_18
REMARK    5  A    between atoms: C_17  and  S_19
REMARK    6  A    between atoms: S_19  and  C_20
REMARK    7  A    between atoms: N_24  and  C_25
REMARK                            x       y       z     vdW  Elec       q    Type
REMARK                         _______ _______ _______ _____ _____    ______ ____
ROOT
ATOM      1  C   UNL     1       2.515   5.608  18.176  0.00  0.00    +0.000 A 
ATOM      2  C   UNL     1       1.808   4.418  18.381  0.00  0.00    +0.000 A 
ATOM      3  C   UNL     1       2.280   3.200  17.907  0.00  0.00    +0.000 A 
ATOM      4  C   UNL     1       3.472   3.155  17.201  0.00  0.00    +0.000 A 
ATOM      5  C   UNL     1       4.184   4.334  16.922  0.00  0.00    +0.000 A 
ATOM      6  C   UNL     1       3.675   5.568  17.389  0.00  0.00    +0.000 A 
ENDROOT
BRANCH   1   9
ATOM      7  C   UNL     1       2.192   8.058  18.138  0.00  0.00    +0.000 C 
ATOM      8  O   UNL     1       2.602   8.243  16.997  0.00  0.00    +0.000 OA
ATOM      9  N   UNL     1       2.117   6.828  18.778  0.00  0.00    +0.000 N 
ATOM     10  H   UNL     1       1.600   6.807  19.653  0.00  0.00    +0.000 HD
BRANCH   7  18
ATOM     11  C   UNL     1      -0.410   9.273  22.903  0.00  0.00    +0.000 C 
ATOM     12  C   UNL     1      -0.119  10.252  22.042  0.00  0.00    +0.000 C 
ATOM     13  C   UNL     1      -0.432  11.658  22.194  0.00  0.00    +0.000 C 
ATOM     14  C   UNL     1       0.028  12.340  21.128  0.00  0.00    +0.000 C 
ATOM     15  C   UNL     1       0.669  11.385  20.223  0.00  0.00    +0.000 A 
ATOM     16  C   UNL     1       1.293  11.537  19.001  0.00  0.00    +0.000 A 
ATOM     17  N   UNL     1       1.818  10.490  18.300  0.00  0.00    +0.000 NA
ATOM     18  C   UNL     1       1.686   9.253  18.874  0.00  0.00    +0.000 A 
ATOM     19  C   UNL     1       1.084   9.013  20.109  0.00  0.00    +0.000 A 
ATOM     20  C   UNL     1       0.579  10.104  20.769  0.00  0.00    +0.000 A 
ENDBRANCH   7  18
ENDBRANCH   1   9
BRANCH   5  21
ATOM     21  C   UNL     1       5.527   4.269  16.209  0.00  0.00    +0.000 C 
ATOM     22  C   UNL     1       5.314   3.897  14.734  0.00  0.00    +0.000 C 
BRANCH  21  23
ATOM     23  S   UNL     1       6.436   5.857  16.244  0.00  0.00    +0.000 S 
BRANCH  23  24
ATOM     24  C   UNL     1       7.201   5.816  17.790  0.00  0.00    +0.000 A 
ATOM     25  N   UNL     1       7.328   4.788  18.595  0.00  0.00    +0.000 NA
ATOM     26  N   UNL     1       8.072   5.200  19.683  0.00  0.00    +0.000 NA
ATOM     27  C   UNL     1       8.376   6.466  19.500  0.00  0.00    +0.000 A 
ATOM     28  N   UNL     1       7.838   6.899  18.326  0.00  0.00    +0.000 N 
ATOM     29  C   UNL     1       7.930   8.230  17.791  0.00  0.00    +0.000 C 
ENDBRANCH  23  24
ENDBRANCH  21  23
ENDBRANCH   5  21
TORSDOF 5
ENDMDL
MODEL 6
REMARK VINA RESULT:      -7.9      1.332      1.404
REMARK  Name = 
REMARK  7 active torsions:
REMARK  status: ('A' for Active; 'I' for Inactive)
REMARK    1  A    between atoms: C_8  and  C_9
REMARK    2  A    between atoms: N_11  and  C_12
REMARK    3  A    between atoms: C_16  and  C_17
REMARK    4  A    between atoms: C_17  and  C_18
REMARK    5  A    between atoms: C_17  and  S_19
REMARK    6  A    between atoms: S_19  and  C_20
REMARK    7  A    between atoms: N_24  and  C_25
REMARK                            x       y       z     vdW  Elec       q    Type
REMARK                         _______ _______ _______ _____ _____    ______ ____
ROOT
ATOM      1  C   UNL     1       2.715   6.618  18.802  0.00  0.00    +0.000 A 
ATOM      2  C   UNL     1       2.447   5.558  19.675  0.00  0.00    +0.000 A 
ATOM      3  C   UNL     1       3.264   4.434  19.727  0.00  0.00    +0.000 A 
ATOM      4  C   UNL     1       4.364   4.347  18.889  0.00  0.00    +0.000 A 
ATOM      5  C   UNL     1       4.635   5.361  17.956  0.00  0.00    +0.000 A 
ATOM      6  C   UNL     1       3.779   6.485  17.897  0.00  0.00    +0.000 A 
ENDROOT
BRANCH   1   9
ATOM      7  C   UNL     1       1.560   8.430  20.022  0.00  0.00    +0.000 C 
ATOM      8  O   UNL     1       1.777   8.008  21.153  0.00  0.00    +0.000 OA
ATOM      9  N   UNL     1       1.975   7.826  18.842  0.00  0.00    +0.000 N 
ATOM     10  H   UNL     1       1.871   8.376  17.994  0.00  0.00    +0.000 HD
BRANCH   7  18
ATOM     11  C   UNL     1      -1.788  11.643  23.090  0.00  0.00    +0.000 C 
ATOM     12  C   UNL     1      -1.485  12.010  21.842  0.00  0.00    +0.000 C 
ATOM     13  C   UNL     1      -1.963  13.187  21.146  0.00  0.00    +0.000 C 
ATOM     14  C   UNL     1      -1.434  13.224  19.908  0.00  0.00    +0.000 C 
ATOM     15  C   UNL     1      -0.577  12.049  19.747  0.00  0.00    +0.000 A 
ATOM     16  C   UNL     1       0.191  11.595  18.693  0.00  0.00    +0.000 A 
ATOM     17  N   UNL     1       0.914  10.439  18.746  0.00  0.00    +0.000 NA
ATOM     18  C   UNL     1       0.835   9.729  19.915  0.00  0.00    +0.000 A 
ATOM     19  C   UNL     1       0.096  10.123  21.031  0.00  0.00    +0.000 A 
ATOM     20  C   UNL     1      -0.607  11.295  20.922  0.00  0.00    +0.000 A 
ENDBRANCH   7  18
ENDBRANCH   1   9
BRANCH   5  21
ATOM     21  C   UNL     1       5.884   5.292  17.088  0.00  0.00    +0.000 C 
ATOM     22  C   UNL     1       7.100   4.938  17.959  0.00  0.00    +0.000 C 
BRANCH  21  23
ATOM     23  S   UNL     1       5.774   4.029  15.769  0.00  0.00    +0.000 S 
BRANCH  23  24
ATOM     24  C   UNL     1       6.789   4.685  14.538  0.00  0.00    +0.000 A 
ATOM     25  N   UNL     1       7.771   5.544  14.681  0.00  0.00    +0.000 NA
ATOM     26  N   UNL     1       8.349   5.726  13.440  0.00  0.00    +0.000 NA
ATOM     27  C   UNL     1       7.700   4.968  12.584  0.00  0.00    +0.000 A 
ATOM     28  N   UNL     1       6.701   4.303  13.230  0.00  0.00    +0.000 N 
ATOM     29  C   UNL     1       5.759   3.399  12.628  0.00  0.00    +0.000 C 
ENDBRANCH  23  24
ENDBRANCH  21  23
ENDBRANCH   5  21
TORSDOF 5
ENDMDL
MODEL 7
REMARK VINA RESULT:      -7.9      1.392      1.940
REMARK  Name = 
REMARK  7 active torsions:
REMARK  status: ('A' for Active; 'I' for Inactive)
REMARK    1  A    between atoms: C_8  and  C_9
REMARK    2  A    between atoms: N_11  and  C_12
REMARK    3  A    between atoms: C_16  and  C_17
REMARK    4  A    between atoms: C_17  and  C_18
REMARK    5  A    between atoms: C_17  and  S_19
REMARK    6  A    between atoms: S_19  and  C_20
REMARK    7  A    between atoms: N_24  and  C_25
REMARK                            x       y       z     vdW  Elec       q    Type
REMARK                         _______ _______ _______ _____ _____    ______ ____
ROOT
ATOM      1  C   UNL     1       2.861   5.652  19.513  0.00  0.00    +0.000 A 
ATOM      2  C   UNL     1       2.924   4.340  19.996  0.00  0.00    +0.000 A 
ATOM      3  C   UNL     1       3.687   3.366  19.362  0.00  0.00    +0.000 A 
ATOM      4  C   UNL     1       4.395   3.690  18.215  0.00  0.00    +0.000 A 
ATOM      5  C   UNL     1       4.312   4.979  17.662  0.00  0.00    +0.000 A 
ATOM      6  C   UNL     1       3.510   5.950  18.306  0.00  0.00    +0.000 A 
ENDROOT
BRANCH   1   9
ATOM      7  C   UNL     1       1.767   7.864  19.647  0.00  0.00    +0.000 C 
ATOM      8  O   UNL     1       1.888   8.160  18.463  0.00  0.00    +0.000 OA
ATOM      9  N   UNL     1       2.205   6.682  20.231  0.00  0.00    +0.000 N 
ATOM     10  H   UNL     1       1.886   6.505  21.180  0.00  0.00    +0.000 HD
BRANCH   7  18
ATOM     11  C   UNL     1      -1.097  12.609  19.166  0.00  0.00    +0.000 C 
ATOM     12  C   UNL     1      -0.888  12.085  20.377  0.00  0.00    +0.000 C 
ATOM     13  C   UNL     1      -1.316  12.639  21.644  0.00  0.00    +0.000 C 
ATOM     14  C   UNL     1      -0.930  11.825  22.645  0.00  0.00    +0.000 C 
ATOM     15  C   UNL     1      -0.221  10.689  22.056  0.00  0.00    +0.000 A 
ATOM     16  C   UNL     1       0.382   9.578  22.613  0.00  0.00    +0.000 A 
ATOM     17  N   UNL     1       1.020   8.629  21.869  0.00  0.00    +0.000 NA
ATOM     18  C   UNL     1       1.043   8.837  20.515  0.00  0.00    +0.000 A 
ATOM     19  C   UNL     1       0.448   9.922  19.871  0.00  0.00    +0.000 A 
ATOM     20  C   UNL     1      -0.182  10.841  20.669  0.00  0.00    +0.000 A 
ENDBRANCH   7  18
ENDBRANCH   1   9
BRANCH   5  21
ATOM     21  C   UNL     1       5.147   5.348  16.444  0.00  0.00    +0.000 C 
ATOM     22  C   UNL     1       6.172   6.427  16.826  0.00  0.00    +0.000 C 
BRANCH  21  23
ATOM     23  S   UNL     1       6.080   3.931  15.758  0.00  0.00    +0.000 S 
BRANCH  23  24
ATOM     24  C   UNL     1       6.898   4.637  14.414  0.00  0.00    +0.000 A 
ATOM     25  N   UNL     1       7.886   5.501  14.440  0.00  0.00    +0.000 NA
ATOM     26  N   UNL     1       8.273   5.731  13.134  0.00  0.00    +0.000 NA
ATOM     27  C   UNL     1       7.508   4.996  12.358  0.00  0.00    +0.000 A 
ATOM     28  N   UNL     1       6.619   4.299  13.121  0.00  0.00    +0.000 N 
ATOM     29  C   UNL     1       5.603   3.406  12.634  0.00  0.00    +0.000 C 
ENDBRANCH  23  24
ENDBRANCH  21  23
ENDBRANCH   5  21
TORSDOF 5
ENDMDL
MODEL 8
REMARK VINA RESULT:      -7.9      2.876      4.242
REMARK  Name = 
REMARK  7 active torsions:
REMARK  status: ('A' for Active; 'I' for Inactive)
REMARK    1  A    between atoms: C_8  and  C_9
REMARK    2  A    between atoms: N_11  and  C_12
REMARK    3  A    between atoms: C_16  and  C_17
REMARK    4  A    between atoms: C_17  and  C_18
REMARK    5  A    between atoms: C_17  and  S_19
REMARK    6  A    between atoms: S_19  and  C_20
REMARK    7  A    between atoms: N_24  and  C_25
REMARK                            x       y       z     vdW  Elec       q    Type
REMARK                         _______ _______ _______ _____ _____    ______ ____
ROOT
ATOM      1  C   UNL     1       1.424   8.874  19.298  0.00  0.00    +0.000 A 
ATOM      2  C   UNL     1       1.967   9.140  18.036  0.00  0.00    +0.000 A 
ATOM      3  C   UNL     1       2.822   8.242  17.408  0.00  0.00    +0.000 A 
ATOM      4  C   UNL     1       3.160   7.059  18.044  0.00  0.00    +0.000 A 
ATOM      5  C   UNL     1       2.685   6.780  19.337  0.00  0.00    +0.000 A 
ATOM      6  C   UNL     1       1.838   7.717  19.972  0.00  0.00    +0.000 A 
ENDROOT
BRANCH   1   9
ATOM      7  C   UNL     1       0.600  10.336  21.113  0.00  0.00    +0.000 C 
ATOM      8  O   UNL     1       1.587  10.243  21.836  0.00  0.00    +0.000 OA
ATOM      9  N   UNL     1       0.442   9.713  19.882  0.00  0.00    +0.000 N 
ATOM     10  H   UNL     1      -0.351  10.017  19.323  0.00  0.00    +0.000 HD
BRANCH   7  18
ATOM     11  C   UNL     1      -4.259  12.342  19.292  0.00  0.00    +0.000 C 
ATOM     12  C   UNL     1      -3.790  12.728  20.482  0.00  0.00    +0.000 C 
ATOM     13  C   UNL     1      -4.411  13.668  21.392  0.00  0.00    +0.000 C 
ATOM     14  C   UNL     1      -3.650  13.798  22.495  0.00  0.00    +0.000 C 
ATOM     15  C   UNL     1      -2.480  12.932  22.341  0.00  0.00    +0.000 A 
ATOM     16  C   UNL     1      -1.392  12.685  23.155  0.00  0.00    +0.000 A 
ATOM     17  N   UNL     1      -0.382  11.837  22.805  0.00  0.00    +0.000 NA
ATOM     18  C   UNL     1      -0.495  11.236  21.579  0.00  0.00    +0.000 A 
ATOM     19  C   UNL     1      -1.564  11.418  20.704  0.00  0.00    +0.000 A 
ATOM     20  C   UNL     1      -2.553  12.278  21.110  0.00  0.00    +0.000 A 
ENDBRANCH   7  18
ENDBRANCH   1   9
BRANCH   5  21
ATOM     21  C   UNL     1       3.004   5.447  20.000  0.00  0.00    +0.000 C 
ATOM     22  C   UNL     1       1.728   4.862  20.626  0.00  0.00    +0.000 C 
BRANCH  21  23
ATOM     23  S   UNL     1       3.657   4.201  18.831  0.00  0.00    +0.000 S 
BRANCH  23  24
ATOM     24  C   UNL     1       5.327   4.622  18.730  0.00  0.00    +0.000 A 
ATOM     25  N   UNL     1       6.103   5.061  19.693  0.00  0.00    +0.000 NA
ATOM     26  N   UNL     1       7.375   5.195  19.174  0.00  0.00    +0.000 NA
ATOM     27  C   UNL     1       7.331   4.830  17.912  0.00  0.00    +0.000 A 
ATOM     28  N   UNL     1       6.057   4.471  17.586  0.00  0.00    +0.000 N 
ATOM     29  C   UNL     1       5.604   4.037  16.292  0.00  0.00    +0.000 C 
ENDBRANCH  23  24
ENDBRANCH  21  23
ENDBRANCH   5  21
TORSDOF 5
ENDMDL
MODEL 9
REMARK VINA RESULT:      -7.8      2.864      3.847
REMARK  Name = 
REMARK  7 active torsions:
REMARK  status: ('A' for Active; 'I' for Inactive)
REMARK    1  A    between atoms: C_8  and  C_9
REMARK    2  A    between atoms: N_11  and  C_12
REMARK    3  A    between atoms: C_16  and  C_17
REMARK    4  A    between atoms: C_17  and  C_18
REMARK    5  A    between atoms: C_17  and  S_19
REMARK    6  A    between atoms: S_19  and  C_20
REMARK    7  A    between atoms: N_24  and  C_25
REMARK                            x       y       z     vdW  Elec       q    Type
REMARK                         _______ _______ _______ _____ _____    ______ ____
ROOT
ATOM      1  C   UNL     1       2.000   5.052  20.718  0.00  0.00    +0.000 A 
ATOM      2  C   UNL     1       2.010   3.914  21.532  0.00  0.00    +0.000 A 
ATOM      3  C   UNL     1       2.711   2.769  21.173  0.00  0.00    +0.000 A 
ATOM      4  C   UNL     1       3.408   2.740  19.975  0.00  0.00    +0.000 A 
ATOM      5  C   UNL     1       3.375   3.839  19.101  0.00  0.00    +0.000 A 
ATOM      6  C   UNL     1       2.635   4.986  19.470  0.00  0.00    +0.000 A 
ENDROOT
BRANCH   1   9
ATOM      7  C   UNL     1       1.615   7.484  20.501  0.00  0.00    +0.000 C 
ATOM      8  O   UNL     1       2.314   7.656  19.508  0.00  0.00    +0.000 OA
ATOM      9  N   UNL     1       1.410   6.269  21.142  0.00  0.00    +0.000 N 
ATOM     10  H   UNL     1       0.675   6.250  21.845  0.00  0.00    +0.000 HD
BRANCH   7  18
ATOM     11  C   UNL     1      -0.839  12.096  18.588  0.00  0.00    +0.000 C 
ATOM     12  C   UNL     1      -0.782  11.877  19.904  0.00  0.00    +0.000 C 
ATOM     13  C   UNL     1      -1.285  12.746  20.948  0.00  0.00    +0.000 C 
ATOM     14  C   UNL     1      -1.054  12.187  22.151  0.00  0.00    +0.000 C 
ATOM     15  C   UNL     1      -0.377  10.908  21.932  0.00  0.00    +0.000 A 
ATOM     16  C   UNL     1       0.089   9.941  22.801  0.00  0.00    +0.000 A 
ATOM     17  N   UNL     1       0.722   8.808  22.380  0.00  0.00    +0.000 NA
ATOM     18  C   UNL     1       0.886   8.675  21.026  0.00  0.00    +0.000 A 
ATOM     19  C   UNL     1       0.434   9.594  20.080  0.00  0.00    +0.000 A 
ATOM     20  C   UNL     1      -0.199  10.712  20.561  0.00  0.00    +0.000 A 
ENDBRANCH   7  18
ENDBRANCH   1   9
BRANCH   5  21
ATOM     21  C   UNL     1       4.200   3.827  17.821  0.00  0.00    +0.000 C 
ATOM     22  C   UNL     1       3.320   3.385  16.642  0.00  0.00    +0.000 C 
BRANCH  21  23
ATOM     23  S   UNL     1       4.893   5.467  17.398  0.00  0.00    +0.000 S 
BRANCH  23  24
ATOM     24  C   UNL     1       6.224   5.602  18.487  0.00  0.00    +0.000 A 
ATOM     25  N   UNL     1       6.435   4.917  19.586  0.00  0.00    +0.000 NA
ATOM     26  N   UNL     1       7.658   5.308  20.093  0.00  0.00    +0.000 NA
ATOM     27  C   UNL     1       8.153   6.217  19.282  0.00  0.00    +0.000 A 
ATOM     28  N   UNL     1       7.278   6.442  18.262  0.00  0.00    +0.000 N 
ATOM     29  C   UNL     1       7.452   7.382  17.188  0.00  0.00    +0.000 C 
ENDBRANCH  23  24
ENDBRANCH  21  23
ENDBRANCH   5  21
TORSDOF 5
ENDMDL
