MODEL 1
REMARK VINA RESULT:      -8.9      0.000      0.000
REMARK  Name = 
REMARK  6 active torsions:
REMARK  status: ('A' for Active; 'I' for Inactive)
REMARK    1  A    between atoms: C_2  and  C_19
REMARK    2  A    between atoms: N_3  and  C_4
REMARK    3  A    between atoms: C_4  and  C_5
REMARK    4  A    between atoms: C_4  and  C_13
REMARK    5  A    between atoms: C_5  and  C_6
REMARK    6  A    between atoms: C_6  and  C_7
REMARK                            x       y       z     vdW  Elec       q    Type
REMARK                         _______ _______ _______ _____ _____    ______ ____
ROOT
ATOM      1  O   UNL     1       3.663   5.750  19.846  0.00  0.00    +0.000 OA
ATOM      2  C   UNL     1       3.019   6.265  18.925  0.00  0.00    +0.000 C 
ATOM      3  N   UNL     1       2.999   5.685  17.668  0.00  0.00    +0.000 N 
ATOM      4  H   UNL     1       2.410   6.049  16.924  0.00  0.00    +0.000 HD
ENDROOT
BRANCH   2   5
ATOM      5  C   UNL     1       2.252   7.509  19.208  0.00  0.00    +0.000 A 
ATOM      6  C   UNL     1       2.069   8.389  18.098  0.00  0.00    +0.000 A 
ATOM      7  C   UNL     1       1.400   9.608  18.214  0.00  0.00    +0.000 A 
ATOM      8  C   UNL     1       0.876   9.889  19.445  0.00  0.00    +0.000 A 
ATOM      9  N   UNL     1       0.141  10.957  19.866  0.00  0.00    +0.000 N 
ATOM     10  C   UNL     1      -0.319  10.671  21.128  0.00  0.00    +0.000 A 
ATOM     11  O   UNL     1      -1.122  11.352  21.747  0.00  0.00    +0.000 OA
ATOM     12  O   UNL     1       0.236   9.474  21.609  0.00  0.00    +0.000 OA
ATOM     13  C   UNL     1       0.971   9.025  20.519  0.00  0.00    +0.000 A 
ATOM     14  C   UNL     1       1.689   7.841  20.452  0.00  0.00    +0.000 A 
ATOM     15  H   UNL     1      -0.102  11.788  19.351  0.00  0.00    +0.000 HD
ENDBRANCH   2   5
BRANCH   3  16
ATOM     16  C   UNL     1       3.697   4.421  17.456  0.00  0.00    +0.000 C 
BRANCH  16  17
ATOM     17  C   UNL     1       5.013   4.618  16.727  0.00  0.00    +0.000 A 
ATOM     18  C   UNL     1       6.211   4.638  17.464  0.00  0.00    +0.000 A 
ATOM     19  C   UNL     1       7.445   4.707  16.818  0.00  0.00    +0.000 A 
ATOM     20  C   UNL     1       7.498   4.772  15.429  0.00  0.00    +0.000 A 
ATOM     21  C   UNL     1       6.319   4.781  14.687  0.00  0.00    +0.000 A 
ATOM     22  C   UNL     1       5.082   4.708  15.331  0.00  0.00    +0.000 A 
ENDBRANCH  16  17
BRANCH  16  23
ATOM     23  C   UNL     1       2.777   3.378  16.776  0.00  0.00    +0.000 C 
BRANCH  23  24
ATOM     24  C   UNL     1       2.523   2.139  17.652  0.00  0.00    +0.000 C 
BRANCH  24  25
ATOM     25  C   UNL     1       2.286   2.510  19.097  0.00  0.00    +0.000 A 
ATOM     26  C   UNL     1       3.247   2.218  20.074  0.00  0.00    +0.000 A 
ATOM     27  C   UNL     1       3.019   2.545  21.412  0.00  0.00    +0.000 A 
ATOM     28  C   UNL     1       1.828   3.165  21.786  0.00  0.00    +0.000 A 
ATOM     29  C   UNL     1       0.865   3.459  20.822  0.00  0.00    +0.000 A 
ATOM     30  C   UNL     1       1.091   3.132  19.484  0.00  0.00    +0.000 A 
ENDBRANCH  24  25
ENDBRANCH  23  24
ENDBRANCH  16  23
ENDBRANCH   3  16
TORSDOF 6
ENDMDL
MODEL 2
REMARK VINA RESULT:      -8.7      1.156      1.934
REMARK  Name = 
REMARK  6 active torsions:
REMARK  status: ('A' for Active; 'I' for Inactive)
REMARK    1  A    between atoms: C_2  and  C_19
REMARK    2  A    between atoms: N_3  and  C_4
REMARK    3  A    between atoms: C_4  and  C_5
REMARK    4  A    between atoms: C_4  and  C_13
REMARK    5  A    between atoms: C_5  and  C_6
REMARK    6  A    between atoms: C_6  and  C_7
REMARK                            x       y       z     vdW  Elec       q    Type
REMARK                         _______ _______ _______ _____ _____    ______ ____
ROOT
ATOM      1  O   UNL     1       3.971   5.511  19.731  0.00  0.00    +0.000 OA
ATOM      2  C   UNL     1       3.276   6.007  18.838  0.00  0.00    +0.000 C 
ATOM      3  N   UNL     1       3.239   5.440  17.575  0.00  0.00    +0.000 N 
ATOM      4  H   UNL     1       2.611   5.785  16.855  0.00  0.00    +0.000 HD
ENDROOT
BRANCH   2   5
ATOM      5  C   UNL     1       2.466   7.214  19.161  0.00  0.00    +0.000 A 
ATOM      6  C   UNL     1       1.918   7.257  20.479  0.00  0.00    +0.000 A 
ATOM      7  C   UNL     1       1.112   8.307  20.919  0.00  0.00    +0.000 A 
ATOM      8  C   UNL     1       0.921   9.328  20.029  0.00  0.00    +0.000 A 
ATOM      9  N   UNL     1       0.235  10.498  20.167  0.00  0.00    +0.000 N 
ATOM     10  C   UNL     1       0.516  11.273  19.069  0.00  0.00    +0.000 A 
ATOM     11  O   UNL     1       0.176  12.439  18.935  0.00  0.00    +0.000 OA
ATOM     12  O   UNL     1       1.270  10.558  18.125  0.00  0.00    +0.000 OA
ATOM     13  C   UNL     1       1.499   9.352  18.775  0.00  0.00    +0.000 A 
ATOM     14  C   UNL     1       2.246   8.291  18.287  0.00  0.00    +0.000 A 
ATOM     15  H   UNL     1      -0.326  10.804  20.946  0.00  0.00    +0.000 HD
ENDBRANCH   2   5
BRANCH   3  16
ATOM     16  C   UNL     1       3.984   4.209  17.326  0.00  0.00    +0.000 C 
BRANCH  16  17
ATOM     17  C   UNL     1       5.174   4.444  16.415  0.00  0.00    +0.000 A 
ATOM     18  C   UNL     1       5.111   4.018  15.077  0.00  0.00    +0.000 A 
ATOM     19  C   UNL     1       6.141   4.314  14.184  0.00  0.00    +0.000 A 
ATOM     20  C   UNL     1       7.253   5.028  14.620  0.00  0.00    +0.000 A 
ATOM     21  C   UNL     1       7.342   5.434  15.950  0.00  0.00    +0.000 A 
ATOM     22  C   UNL     1       6.311   5.141  16.845  0.00  0.00    +0.000 A 
ENDBRANCH  16  17
BRANCH  16  23
ATOM     23  C   UNL     1       3.050   3.080  16.825  0.00  0.00    +0.000 C 
BRANCH  23  24
ATOM     24  C   UNL     1       2.919   1.920  17.828  0.00  0.00    +0.000 C 
BRANCH  24  25
ATOM     25  C   UNL     1       2.409   2.391  19.169  0.00  0.00    +0.000 A 
ATOM     26  C   UNL     1       1.168   3.032  19.275  0.00  0.00    +0.000 A 
ATOM     27  C   UNL     1       0.706   3.482  20.512  0.00  0.00    +0.000 A 
ATOM     28  C   UNL     1       1.481   3.298  21.656  0.00  0.00    +0.000 A 
ATOM     29  C   UNL     1       2.718   2.663  21.563  0.00  0.00    +0.000 A 
ATOM     30  C   UNL     1       3.181   2.212  20.325  0.00  0.00    +0.000 A 
ENDBRANCH  24  25
ENDBRANCH  23  24
ENDBRANCH  16  23
ENDBRANCH   3  16
TORSDOF 6
ENDMDL
MODEL 3
REMARK VINA RESULT:      -8.7      0.769      1.190
REMARK  Name = 
REMARK  6 active torsions:
REMARK  status: ('A' for Active; 'I' for Inactive)
REMARK    1  A    between atoms: C_2  and  C_19
REMARK    2  A    between atoms: N_3  and  C_4
REMARK    3  A    between atoms: C_4  and  C_5
REMARK    4  A    between atoms: C_4  and  C_13
REMARK    5  A    between atoms: C_5  and  C_6
REMARK    6  A    between atoms: C_6  and  C_7
REMARK                            x       y       z     vdW  Elec       q    Type
REMARK                         _______ _______ _______ _____ _____    ______ ____
ROOT
ATOM      1  O   UNL     1       4.449   5.521  19.475  0.00  0.00    +0.000 OA
ATOM      2  C   UNL     1       3.641   5.895  18.619  0.00  0.00    +0.000 C 
ATOM      3  N   UNL     1       3.517   5.215  17.419  0.00  0.00    +0.000 N 
ATOM      4  H   UNL     1       2.801   5.458  16.741  0.00  0.00    +0.000 HD
ENDROOT
BRANCH   2   5
ATOM      5  C   UNL     1       2.791   7.081  18.919  0.00  0.00    +0.000 A 
ATOM      6  C   UNL     1       2.614   8.003  17.843  0.00  0.00    +0.000 A 
ATOM      7  C   UNL     1       1.871   9.176  17.980  0.00  0.00    +0.000 A 
ATOM      8  C   UNL     1       1.273   9.368  19.194  0.00  0.00    +0.000 A 
ATOM      9  N   UNL     1       0.458  10.372  19.625  0.00  0.00    +0.000 N 
ATOM     10  C   UNL     1      -0.046  10.000  20.847  0.00  0.00    +0.000 A 
ATOM     11  O   UNL     1      -0.917  10.605  21.454  0.00  0.00    +0.000 OA
ATOM     12  O   UNL     1       0.551   8.813  21.300  0.00  0.00    +0.000 OA
ATOM     13  C   UNL     1       1.363   8.458  20.230  0.00  0.00    +0.000 A 
ATOM     14  C   UNL     1       2.149   7.320  20.146  0.00  0.00    +0.000 A 
ATOM     15  H   UNL     1       0.194  11.213  19.137  0.00  0.00    +0.000 HD
ENDBRANCH   2   5
BRANCH   3  16
ATOM     16  C   UNL     1       4.310   4.008  17.201  0.00  0.00    +0.000 C 
BRANCH  16  17
ATOM     17  C   UNL     1       5.391   4.226  16.159  0.00  0.00    +0.000 A 
ATOM     18  C   UNL     1       5.147   3.853  14.825  0.00  0.00    +0.000 A 
ATOM     19  C   UNL     1       6.073   4.137  13.823  0.00  0.00    +0.000 A 
ATOM     20  C   UNL     1       7.263   4.785  14.142  0.00  0.00    +0.000 A 
ATOM     21  C   UNL     1       7.532   5.136  15.463  0.00  0.00    +0.000 A 
ATOM     22  C   UNL     1       6.604   4.856  16.468  0.00  0.00    +0.000 A 
ENDBRANCH  16  17
BRANCH  16  23
ATOM     23  C   UNL     1       3.406   2.790  16.892  0.00  0.00    +0.000 C 
BRANCH  23  24
ATOM     24  C   UNL     1       3.369   1.764  18.038  0.00  0.00    +0.000 C 
BRANCH  24  25
ATOM     25  C   UNL     1       2.659   2.306  19.256  0.00  0.00    +0.000 A 
ATOM     26  C   UNL     1       3.286   2.298  20.509  0.00  0.00    +0.000 A 
ATOM     27  C   UNL     1       2.622   2.782  21.638  0.00  0.00    +0.000 A 
ATOM     28  C   UNL     1       1.324   3.276  21.525  0.00  0.00    +0.000 A 
ATOM     29  C   UNL     1       0.690   3.289  20.284  0.00  0.00    +0.000 A 
ATOM     30  C   UNL     1       1.353   2.804  19.155  0.00  0.00    +0.000 A 
ENDBRANCH  24  25
ENDBRANCH  23  24
ENDBRANCH  16  23
ENDBRANCH   3  16
TORSDOF 6
ENDMDL
MODEL 4
REMARK VINA RESULT:      -8.6      1.052      1.412
REMARK  Name = 
REMARK  6 active torsions:
REMARK  status: ('A' for Active; 'I' for Inactive)
REMARK    1  A    between atoms: C_2  and  C_19
REMARK    2  A    between atoms: N_3  and  C_4
REMARK    3  A    between atoms: C_4  and  C_5
REMARK    4  A    between atoms: C_4  and  C_13
REMARK    5  A    between atoms: C_5  and  C_6
REMARK    6  A    between atoms: C_6  and  C_7
REMARK                            x       y       z     vdW  Elec       q    Type
REMARK                         _______ _______ _______ _____ _____    ______ ____
ROOT
ATOM      1  O   UNL     1       3.489   5.676  19.981  0.00  0.00    +0.000 OA
ATOM      2  C   UNL     1       2.907   6.278  19.073  0.00  0.00    +0.000 C 
ATOM      3  N   UNL     1       2.960   5.813  17.770  0.00  0.00    +0.000 N 
ATOM      4  H   UNL     1       2.420   6.249  17.027  0.00  0.00    +0.000 HD
ENDROOT
BRANCH   2   5
ATOM      5  C   UNL     1       2.131   7.501  19.420  0.00  0.00    +0.000 A 
ATOM      6  C   UNL     1       1.606   7.544  20.747  0.00  0.00    +0.000 A 
ATOM      7  C   UNL     1       0.833   8.610  21.210  0.00  0.00    +0.000 A 
ATOM      8  C   UNL     1       0.651   9.643  20.333  0.00  0.00    +0.000 A 
ATOM      9  N   UNL     1      -0.004  10.828  20.493  0.00  0.00    +0.000 N 
ATOM     10  C   UNL     1       0.277  11.606  19.397  0.00  0.00    +0.000 A 
ATOM     11  O   UNL     1      -0.037  12.781  19.279  0.00  0.00    +0.000 OA
ATOM     12  O   UNL     1       0.999  10.882  18.434  0.00  0.00    +0.000 OA
ATOM     13  C   UNL     1       1.209   9.665  19.069  0.00  0.00    +0.000 A 
ATOM     14  C   UNL     1       1.923   8.591  18.559  0.00  0.00    +0.000 A 
ATOM     15  H   UNL     1      -0.544  11.139  21.283  0.00  0.00    +0.000 HD
ENDBRANCH   2   5
BRANCH   3  16
ATOM     16  C   UNL     1       3.662   4.565  17.487  0.00  0.00    +0.000 C 
BRANCH  16  17
ATOM     17  C   UNL     1       4.930   4.799  16.688  0.00  0.00    +0.000 A 
ATOM     18  C   UNL     1       5.948   5.602  17.233  0.00  0.00    +0.000 A 
ATOM     19  C   UNL     1       7.169   5.750  16.576  0.00  0.00    +0.000 A 
ATOM     20  C   UNL     1       7.385   5.109  15.359  0.00  0.00    +0.000 A 
ATOM     21  C   UNL     1       6.376   4.331  14.795  0.00  0.00    +0.000 A 
ATOM     22  C   UNL     1       5.153   4.179  15.452  0.00  0.00    +0.000 A 
ENDBRANCH  16  17
BRANCH  16  23
ATOM     23  C   UNL     1       2.718   3.524  16.838  0.00  0.00    +0.000 C 
BRANCH  23  24
ATOM     24  C   UNL     1       2.605   2.224  17.653  0.00  0.00    +0.000 C 
BRANCH  24  25
ATOM     25  C   UNL     1       2.327   2.497  19.112  0.00  0.00    +0.000 A 
ATOM     26  C   UNL     1       3.295   2.215  20.086  0.00  0.00    +0.000 A 
ATOM     27  C   UNL     1       3.030   2.451  21.437  0.00  0.00    +0.000 A 
ATOM     28  C   UNL     1       1.795   2.968  21.826  0.00  0.00    +0.000 A 
ATOM     29  C   UNL     1       0.825   3.250  20.865  0.00  0.00    +0.000 A 
ATOM     30  C   UNL     1       1.089   3.015  19.515  0.00  0.00    +0.000 A 
ENDBRANCH  24  25
ENDBRANCH  23  24
ENDBRANCH  16  23
ENDBRANCH   3  16
TORSDOF 6
ENDMDL
MODEL 5
REMARK VINA RESULT:      -8.5      1.697      2.480
REMARK  Name = 
REMARK  6 active torsions:
REMARK  status: ('A' for Active; 'I' for Inactive)
REMARK    1  A    between atoms: C_2  and  C_19
REMARK    2  A    between atoms: N_3  and  C_4
REMARK    3  A    between atoms: C_4  and  C_5
REMARK    4  A    between atoms: C_4  and  C_13
REMARK    5  A    between atoms: C_5  and  C_6
REMARK    6  A    between atoms: C_6  and  C_7
REMARK                            x       y       z     vdW  Elec       q    Type
REMARK                         _______ _______ _______ _____ _____    ______ ____
ROOT
ATOM      1  O   UNL     1       2.550   6.156  20.614  0.00  0.00    +0.000 OA
ATOM      2  C   UNL     1       2.445   6.959  19.680  0.00  0.00    +0.000 C 
ATOM      3  N   UNL     1       3.145   6.767  18.502  0.00  0.00    +0.000 N 
ATOM      4  H   UNL     1       3.006   7.370  17.696  0.00  0.00    +0.000 HD
ENDROOT
BRANCH   2   5
ATOM      5  C   UNL     1       1.531   8.122  19.849  0.00  0.00    +0.000 A 
ATOM      6  C   UNL     1       0.864   8.208  21.109  0.00  0.00    +0.000 A 
ATOM      7  C   UNL     1      -0.046   9.223  21.405  0.00  0.00    +0.000 A 
ATOM      8  C   UNL     1      -0.223  10.170  20.435  0.00  0.00    +0.000 A 
ATOM      9  N   UNL     1      -0.994  11.294  20.433  0.00  0.00    +0.000 N 
ATOM     10  C   UNL     1      -0.666  12.017  19.312  0.00  0.00    +0.000 A 
ATOM     11  O   UNL     1      -1.069  13.145  19.070  0.00  0.00    +0.000 OA
ATOM     12  O   UNL     1       0.216  11.301  18.488  0.00  0.00    +0.000 OA
ATOM     13  C   UNL     1       0.463  10.157  19.236  0.00  0.00    +0.000 A 
ATOM     14  C   UNL     1       1.320   9.125  18.888  0.00  0.00    +0.000 A 
ATOM     15  H   UNL     1      -1.642  11.607  21.137  0.00  0.00    +0.000 HD
ENDBRANCH   2   5
BRANCH   3  16
ATOM     16  C   UNL     1       3.965   5.568  18.348  0.00  0.00    +0.000 C 
BRANCH  16  17
ATOM     17  C   UNL     1       5.446   5.895  18.343  0.00  0.00    +0.000 A 
ATOM     18  C   UNL     1       5.943   6.826  17.413  0.00  0.00    +0.000 A 
ATOM     19  C   UNL     1       7.276   7.232  17.451  0.00  0.00    +0.000 A 
ATOM     20  C   UNL     1       8.135   6.703  18.410  0.00  0.00    +0.000 A 
ATOM     21  C   UNL     1       7.664   5.760  19.322  0.00  0.00    +0.000 A 
ATOM     22  C   UNL     1       6.329   5.354  19.288  0.00  0.00    +0.000 A 
ENDBRANCH  16  17
BRANCH  16  23
ATOM     23  C   UNL     1       3.522   4.739  17.118  0.00  0.00    +0.000 C 
BRANCH  23  24
ATOM     24  C   UNL     1       3.252   3.262  17.455  0.00  0.00    +0.000 C 
BRANCH  24  25
ATOM     25  C   UNL     1       2.603   3.103  18.810  0.00  0.00    +0.000 A 
ATOM     26  C   UNL     1       1.232   3.344  18.975  0.00  0.00    +0.000 A 
ATOM     27  C   UNL     1       0.637   3.215  20.231  0.00  0.00    +0.000 A 
ATOM     28  C   UNL     1       1.406   2.845  21.333  0.00  0.00    +0.000 A 
ATOM     29  C   UNL     1       2.770   2.604  21.180  0.00  0.00    +0.000 A 
ATOM     30  C   UNL     1       3.367   2.734  19.925  0.00  0.00    +0.000 A 
ENDBRANCH  24  25
ENDBRANCH  23  24
ENDBRANCH  16  23
ENDBRANCH   3  16
TORSDOF 6
ENDMDL
MODEL 6
REMARK VINA RESULT:      -8.5      0.681      1.137
REMARK  Name = 
REMARK  6 active torsions:
REMARK  status: ('A' for Active; 'I' for Inactive)
REMARK    1  A    between atoms: C_2  and  C_19
REMARK    2  A    between atoms: N_3  and  C_4
REMARK    3  A    between atoms: C_4  and  C_5
REMARK    4  A    between atoms: C_4  and  C_13
REMARK    5  A    between atoms: C_5  and  C_6
REMARK    6  A    between atoms: C_6  and  C_7
REMARK                            x       y       z     vdW  Elec       q    Type
REMARK                         _______ _______ _______ _____ _____    ______ ____
ROOT
ATOM      1  O   UNL     1       3.726   5.436  19.860  0.00  0.00    +0.000 OA
ATOM      2  C   UNL     1       3.063   6.040  19.010  0.00  0.00    +0.000 C 
ATOM      3  N   UNL     1       3.019   5.593  17.700  0.00  0.00    +0.000 N 
ATOM      4  H   UNL     1       2.414   6.028  17.010  0.00  0.00    +0.000 HD
ENDROOT
BRANCH   2   5
ATOM      5  C   UNL     1       2.300   7.246  19.435  0.00  0.00    +0.000 A 
ATOM      6  C   UNL     1       2.113   8.245  18.432  0.00  0.00    +0.000 A 
ATOM      7  C   UNL     1       1.447   9.444  18.687  0.00  0.00    +0.000 A 
ATOM      8  C   UNL     1       0.930   9.586  19.944  0.00  0.00    +0.000 A 
ATOM      9  N   UNL     1       0.198  10.601  20.486  0.00  0.00    +0.000 N 
ATOM     10  C   UNL     1      -0.256  10.175  21.710  0.00  0.00    +0.000 A 
ATOM     11  O   UNL     1      -1.056  10.784  22.405  0.00  0.00    +0.000 OA
ATOM     12  O   UNL     1       0.298   8.931  22.051  0.00  0.00    +0.000 OA
ATOM     13  C   UNL     1       1.028   8.606  20.913  0.00  0.00    +0.000 A 
ATOM     14  C   UNL     1       1.743   7.436  20.710  0.00  0.00    +0.000 A 
ATOM     15  H   UNL     1      -0.046  11.484  20.069  0.00  0.00    +0.000 HD
ENDBRANCH   2   5
BRANCH   3  16
ATOM     16  C   UNL     1       3.714   4.359  17.346  0.00  0.00    +0.000 C 
BRANCH  16  17
ATOM     17  C   UNL     1       4.888   4.620  16.421  0.00  0.00    +0.000 A 
ATOM     18  C   UNL     1       5.586   5.837  16.522  0.00  0.00    +0.000 A 
ATOM     19  C   UNL     1       6.735   6.066  15.765  0.00  0.00    +0.000 A 
ATOM     20  C   UNL     1       7.195   5.087  14.888  0.00  0.00    +0.000 A 
ATOM     21  C   UNL     1       6.499   3.887  14.758  0.00  0.00    +0.000 A 
ATOM     22  C   UNL     1       5.350   3.654  15.516  0.00  0.00    +0.000 A 
ENDBRANCH  16  17
BRANCH  16  23
ATOM     23  C   UNL     1       2.731   3.298  16.794  0.00  0.00    +0.000 C 
BRANCH  23  24
ATOM     24  C   UNL     1       2.628   2.051  17.690  0.00  0.00    +0.000 C 
BRANCH  24  25
ATOM     25  C   UNL     1       2.276   2.409  19.114  0.00  0.00    +0.000 A 
ATOM     26  C   UNL     1       1.066   3.051  19.410  0.00  0.00    +0.000 A 
ATOM     27  C   UNL     1       0.750   3.397  20.724  0.00  0.00    +0.000 A 
ATOM     28  C   UNL     1       1.641   3.107  21.756  0.00  0.00    +0.000 A 
ATOM     29  C   UNL     1       2.849   2.470  21.474  0.00  0.00    +0.000 A 
ATOM     30  C   UNL     1       3.166   2.124  20.159  0.00  0.00    +0.000 A 
ENDBRANCH  24  25
ENDBRANCH  23  24
ENDBRANCH  16  23
ENDBRANCH   3  16
TORSDOF 6
ENDMDL
MODEL 7
REMARK VINA RESULT:      -8.5      1.424      1.884
REMARK  Name = 
REMARK  6 active torsions:
REMARK  status: ('A' for Active; 'I' for Inactive)
REMARK    1  A    between atoms: C_2  and  C_19
REMARK    2  A    between atoms: N_3  and  C_4
REMARK    3  A    between atoms: C_4  and  C_5
REMARK    4  A    between atoms: C_4  and  C_13
REMARK    5  A    between atoms: C_5  and  C_6
REMARK    6  A    between atoms: C_6  and  C_7
REMARK                            x       y       z     vdW  Elec       q    Type
REMARK                         _______ _______ _______ _____ _____    ______ ____
ROOT
ATOM      1  O   UNL     1       2.650   6.461  20.357  0.00  0.00    +0.000 OA
ATOM      2  C   UNL     1       2.525   7.120  19.319  0.00  0.00    +0.000 C 
ATOM      3  N   UNL     1       3.195   6.754  18.165  0.00  0.00    +0.000 N 
ATOM      4  H   UNL     1       3.039   7.235  17.283  0.00  0.00    +0.000 HD
ENDROOT
BRANCH   2   5
ATOM      5  C   UNL     1       1.621   8.303  19.339  0.00  0.00    +0.000 A 
ATOM      6  C   UNL     1       1.316   8.870  18.064  0.00  0.00    +0.000 A 
ATOM      7  C   UNL     1       0.508   9.999  17.922  0.00  0.00    +0.000 A 
ATOM      8  C   UNL     1      -0.024  10.504  19.076  0.00  0.00    +0.000 A 
ATOM      9  N   UNL     1      -0.873  11.552  19.269  0.00  0.00    +0.000 N 
ATOM     10  C   UNL     1      -1.274  11.523  20.582  0.00  0.00    +0.000 A 
ATOM     11  O   UNL     1      -2.142  12.238  21.061  0.00  0.00    +0.000 OA
ATOM     12  O   UNL     1      -0.573  10.543  21.304  0.00  0.00    +0.000 OA
ATOM     13  C   UNL     1       0.192   9.934  20.316  0.00  0.00    +0.000 A 
ATOM     14  C   UNL     1       1.043   8.855  20.495  0.00  0.00    +0.000 A 
ATOM     15  H   UNL     1      -1.222  12.205  18.587  0.00  0.00    +0.000 HD
ENDBRANCH   2   5
BRANCH   3  16
ATOM     16  C   UNL     1       4.005   5.540  18.167  0.00  0.00    +0.000 C 
BRANCH  16  17
ATOM     17  C   UNL     1       5.486   5.850  18.278  0.00  0.00    +0.000 A 
ATOM     18  C   UNL     1       6.069   6.755  17.373  0.00  0.00    +0.000 A 
ATOM     19  C   UNL     1       7.400   7.147  17.513  0.00  0.00    +0.000 A 
ATOM     20  C   UNL     1       8.171   6.630  18.550  0.00  0.00    +0.000 A 
ATOM     21  C   UNL     1       7.614   5.712  19.439  0.00  0.00    +0.000 A 
ATOM     22  C   UNL     1       6.281   5.320  19.303  0.00  0.00    +0.000 A 
ENDBRANCH  16  17
BRANCH  16  23
ATOM     23  C   UNL     1       3.664   4.633  16.959  0.00  0.00    +0.000 C 
BRANCH  23  24
ATOM     24  C   UNL     1       3.280   3.202  17.372  0.00  0.00    +0.000 C 
BRANCH  24  25
ATOM     25  C   UNL     1       2.641   3.163  18.739  0.00  0.00    +0.000 A 
ATOM     26  C   UNL     1       3.379   2.756  19.859  0.00  0.00    +0.000 A 
ATOM     27  C   UNL     1       2.782   2.702  21.120  0.00  0.00    +0.000 A 
ATOM     28  C   UNL     1       1.442   3.052  21.273  0.00  0.00    +0.000 A 
ATOM     29  C   UNL     1       0.698   3.457  20.166  0.00  0.00    +0.000 A 
ATOM     30  C   UNL     1       1.294   3.510  18.905  0.00  0.00    +0.000 A 
ENDBRANCH  24  25
ENDBRANCH  23  24
ENDBRANCH  16  23
ENDBRANCH   3  16
TORSDOF 6
ENDMDL
MODEL 8
REMARK VINA RESULT:      -8.4      0.994      1.714
REMARK  Name = 
REMARK  6 active torsions:
REMARK  status: ('A' for Active; 'I' for Inactive)
REMARK    1  A    between atoms: C_2  and  C_19
REMARK    2  A    between atoms: N_3  and  C_4
REMARK    3  A    between atoms: C_4  and  C_5
REMARK    4  A    between atoms: C_4  and  C_13
REMARK    5  A    between atoms: C_5  and  C_6
REMARK    6  A    between atoms: C_6  and  C_7
REMARK                            x       y       z     vdW  Elec       q    Type
REMARK                         _______ _______ _______ _____ _____    ______ ____
ROOT
ATOM      1  O   UNL     1       4.839   5.541  19.334  0.00  0.00    +0.000 OA
ATOM      2  C   UNL     1       4.042   5.885  18.456  0.00  0.00    +0.000 C 
ATOM      3  N   UNL     1       4.008   5.229  17.237  0.00  0.00    +0.000 N 
ATOM      4  H   UNL     1       3.304   5.444  16.536  0.00  0.00    +0.000 HD
ENDROOT
BRANCH   2   5
ATOM      5  C   UNL     1       3.107   7.006  18.750  0.00  0.00    +0.000 A 
ATOM      6  C   UNL     1       2.887   7.925  17.679  0.00  0.00    +0.000 A 
ATOM      7  C   UNL     1       2.063   9.043  17.812  0.00  0.00    +0.000 A 
ATOM      8  C   UNL     1       1.429   9.180  19.015  0.00  0.00    +0.000 A 
ATOM      9  N   UNL     1       0.538  10.121  19.439  0.00  0.00    +0.000 N 
ATOM     10  C   UNL     1       0.036   9.701  20.646  0.00  0.00    +0.000 A 
ATOM     11  O   UNL     1      -0.886  10.239  21.241  0.00  0.00    +0.000 OA
ATOM     12  O   UNL     1       0.705   8.553  21.100  0.00  0.00    +0.000 OA
ATOM     13  C   UNL     1       1.561   8.267  20.044  0.00  0.00    +0.000 A 
ATOM     14  C   UNL     1       2.425   7.186  19.965  0.00  0.00    +0.000 A 
ATOM     15  H   UNL     1       0.227  10.947  18.954  0.00  0.00    +0.000 HD
ENDBRANCH   2   5
BRANCH   3  16
ATOM     16  C   UNL     1       4.885   4.082  17.021  0.00  0.00    +0.000 C 
BRANCH  16  17
ATOM     17  C   UNL     1       5.689   4.219  15.743  0.00  0.00    +0.000 A 
ATOM     18  C   UNL     1       5.207   3.631  14.560  0.00  0.00    +0.000 A 
ATOM     19  C   UNL     1       5.863   3.829  13.345  0.00  0.00    +0.000 A 
ATOM     20  C   UNL     1       7.017   4.605  13.298  0.00  0.00    +0.000 A 
ATOM     21  C   UNL     1       7.522   5.173  14.466  0.00  0.00    +0.000 A 
ATOM     22  C   UNL     1       6.866   4.979  15.684  0.00  0.00    +0.000 A 
ENDBRANCH  16  17
BRANCH  16  23
ATOM     23  C   UNL     1       4.099   2.750  17.104  0.00  0.00    +0.000 C 
BRANCH  23  24
ATOM     24  C   UNL     1       2.598   2.955  17.371  0.00  0.00    +0.000 C 
BRANCH  24  25
ATOM     25  C   UNL     1       2.294   3.038  18.848  0.00  0.00    +0.000 A 
ATOM     26  C   UNL     1       1.159   3.722  19.304  0.00  0.00    +0.000 A 
ATOM     27  C   UNL     1       0.888   3.813  20.670  0.00  0.00    +0.000 A 
ATOM     28  C   UNL     1       1.751   3.224  21.593  0.00  0.00    +0.000 A 
ATOM     29  C   UNL     1       2.883   2.542  21.151  0.00  0.00    +0.000 A 
ATOM     30  C   UNL     1       3.155   2.451  19.784  0.00  0.00    +0.000 A 
ENDBRANCH  24  25
ENDBRANCH  23  24
ENDBRANCH  16  23
ENDBRANCH   3  16
TORSDOF 6
ENDMDL
MODEL 9
REMARK VINA RESULT:      -8.3      1.416      2.141
REMARK  Name = 
REMARK  6 active torsions:
REMARK  status: ('A' for Active; 'I' for Inactive)
REMARK    1  A    between atoms: C_2  and  C_19
REMARK    2  A    between atoms: N_3  and  C_4
REMARK    3  A    between atoms: C_4  and  C_5
REMARK    4  A    between atoms: C_4  and  C_13
REMARK    5  A    between atoms: C_5  and  C_6
REMARK    6  A    between atoms: C_6  and  C_7
REMARK                            x       y       z     vdW  Elec       q    Type
REMARK                         _______ _______ _______ _____ _____    ______ ____
ROOT
ATOM      1  O   UNL     1       4.876   5.610  19.285  0.00  0.00    +0.000 OA
ATOM      2  C   UNL     1       4.087   5.972  18.406  0.00  0.00    +0.000 C 
ATOM      3  N   UNL     1       4.118   5.394  17.148  0.00  0.00    +0.000 N 
ATOM      4  H   UNL     1       3.424   5.621  16.442  0.00  0.00    +0.000 HD
ENDROOT
BRANCH   2   5
ATOM      5  C   UNL     1       3.093   7.029  18.740  0.00  0.00    +0.000 A 
ATOM      6  C   UNL     1       2.484   6.921  20.028  0.00  0.00    +0.000 A 
ATOM      7  C   UNL     1       1.512   7.818  20.472  0.00  0.00    +0.000 A 
ATOM      8  C   UNL     1       1.213   8.846  19.621  0.00  0.00    +0.000 A 
ATOM      9  N   UNL     1       0.355   9.895  19.776  0.00  0.00    +0.000 N 
ATOM     10  C   UNL     1       0.569  10.760  18.731  0.00  0.00    +0.000 A 
ATOM     11  O   UNL     1       0.066  11.869  18.633  0.00  0.00    +0.000 OA
ATOM     12  O   UNL     1       1.464  10.214  17.796  0.00  0.00    +0.000 OA
ATOM     13  C   UNL     1       1.838   9.021  18.402  0.00  0.00    +0.000 A 
ATOM     14  C   UNL     1       2.756   8.108  17.906  0.00  0.00    +0.000 A 
ATOM     15  H   UNL     1      -0.280  10.073  20.536  0.00  0.00    +0.000 HD
ENDBRANCH   2   5
BRANCH   3  16
ATOM     16  C   UNL     1       5.053   4.303  16.889  0.00  0.00    +0.000 C 
BRANCH  16  17
ATOM     17  C   UNL     1       5.657   4.396  15.501  0.00  0.00    +0.000 A 
ATOM     18  C   UNL     1       6.836   5.139  15.312  0.00  0.00    +0.000 A 
ATOM     19  C   UNL     1       7.479   5.157  14.075  0.00  0.00    +0.000 A 
ATOM     20  C   UNL     1       6.944   4.444  13.005  0.00  0.00    +0.000 A 
ATOM     21  C   UNL     1       5.763   3.725  13.170  0.00  0.00    +0.000 A 
ATOM     22  C   UNL     1       5.118   3.703  14.409  0.00  0.00    +0.000 A 
ENDBRANCH  16  17
BRANCH  16  23
ATOM     23  C   UNL     1       4.405   2.927  17.178  0.00  0.00    +0.000 C 
BRANCH  23  24
ATOM     24  C   UNL     1       2.872   2.994  17.280  0.00  0.00    +0.000 C 
BRANCH  24  25
ATOM     25  C   UNL     1       2.404   3.048  18.715  0.00  0.00    +0.000 A 
ATOM     26  C   UNL     1       1.151   3.587  19.036  0.00  0.00    +0.000 A 
ATOM     27  C   UNL     1       0.727   3.652  20.365  0.00  0.00    +0.000 A 
ATOM     28  C   UNL     1       1.552   3.181  21.384  0.00  0.00    +0.000 A 
ATOM     29  C   UNL     1       2.801   2.644  21.077  0.00  0.00    +0.000 A 
ATOM     30  C   UNL     1       3.226   2.579  19.748  0.00  0.00    +0.000 A 
ENDBRANCH  24  25
ENDBRANCH  23  24
ENDBRANCH  16  23
ENDBRANCH   3  16
TORSDOF 6
ENDMDL
