MODEL 1
REMARK VINA RESULT:      -8.8      0.000      0.000
REMARK  Name = 
REMARK  8 active torsions:
REMARK  status: ('A' for Active; 'I' for Inactive)
REMARK    1  A    between atoms: C_1  and  C_2
REMARK    2  A    between atoms: C_4  and  C_5
REMARK    3  A    between atoms: N_7  and  C_8
REMARK    4  A    between atoms: C_12  and  C_13
REMARK    5  A    between atoms: C_13  and  C_14
REMARK    6  A    between atoms: C_13  and  C_15
REMARK    7  A    between atoms: C_15  and  C_16
REMARK    8  A    between atoms: N_20  and  C_21
REMARK                            x       y       z     vdW  Elec       q    Type
REMARK                         _______ _______ _______ _____ _____    ______ ____
ROOT
ATOM      1  C   UNL     1       2.747   6.109  18.078  0.00  0.00    +0.000 A 
ATOM      2  C   UNL     1       2.022   4.921  17.970  0.00  0.00    +0.000 A 
ATOM      3  C   UNL     1       2.591   3.777  17.422  0.00  0.00    +0.000 A 
ATOM      4  C   UNL     1       3.904   3.800  16.973  0.00  0.00    +0.000 A 
ATOM      5  C   UNL     1       4.660   4.981  17.046  0.00  0.00    +0.000 A 
ATOM      6  C   UNL     1       4.062   6.140  17.583  0.00  0.00    +0.000 A 
ENDROOT
BRANCH   1   9
ATOM      7  C   UNL     1       1.709   7.371  19.962  0.00  0.00    +0.000 C 
ATOM      8  O   UNL     1       1.706   6.477  20.804  0.00  0.00    +0.000 OA
ATOM      9  N   UNL     1       2.205   7.275  18.668  0.00  0.00    +0.000 N 
ATOM     10  H   UNL     1       2.244   8.151  18.151  0.00  0.00    +0.000 HD
BRANCH   7  14
ATOM     11  C   UNL     1      -0.755  10.196  23.287  0.00  0.00    +0.000 C 
ATOM     12  C   UNL     1      -0.040  10.054  21.981  0.00  0.00    +0.000 A 
ATOM     13  C   UNL     1       0.492   8.823  21.581  0.00  0.00    +0.000 A 
ATOM     14  C   UNL     1       1.168   8.713  20.353  0.00  0.00    +0.000 A 
ATOM     15  N   UNL     1       1.362   9.743  19.483  0.00  0.00    +0.000 NA
ATOM     16  C   UNL     1       0.826  10.908  19.902  0.00  0.00    +0.000 A 
ATOM     17  C   UNL     1       0.138  11.113  21.108  0.00  0.00    +0.000 A 
ATOM     18  C   UNL     1      -0.271  12.504  21.202  0.00  0.00    +0.000 C 
ATOM     19  C   UNL     1       0.144  13.131  20.089  0.00  0.00    +0.000 C 
ATOM     20  C   UNL     1       0.873  12.209  19.138  0.00  0.00    +0.000 C 
ENDBRANCH   7  14
ENDBRANCH   1   9
BRANCH   5  21
ATOM     21  C   UNL     1       6.117   4.990  16.596  0.00  0.00    +0.000 C 
ATOM     22  C   UNL     1       7.031   4.729  17.808  0.00  0.00    +0.000 C 
BRANCH  21  23
ATOM     23  C   UNL     1       6.427   3.964  15.486  0.00  0.00    +0.000 C 
BRANCH  23  24
ATOM     24  C   UNL     1       7.011   4.581  14.258  0.00  0.00    +0.000 A 
ATOM     25  N   UNL     1       7.948   5.509  14.239  0.00  0.00    +0.000 NA
ATOM     26  N   UNL     1       8.264   5.777  12.929  0.00  0.00    +0.000 NA
ATOM     27  C   UNL     1       7.515   5.010  12.176  0.00  0.00    +0.000 A 
ATOM     28  N   UNL     1       6.711   4.243  12.963  0.00  0.00    +0.000 N 
ATOM     29  C   UNL     1       5.768   3.268  12.487  0.00  0.00    +0.000 C 
ENDBRANCH  23  24
ENDBRANCH  21  23
ENDBRANCH   5  21
TORSDOF 5
ENDMDL
MODEL 2
REMARK VINA RESULT:      -8.8      0.681      1.747
REMARK  Name = 
REMARK  8 active torsions:
REMARK  status: ('A' for Active; 'I' for Inactive)
REMARK    1  A    between atoms: C_1  and  C_2
REMARK    2  A    between atoms: C_4  and  C_5
REMARK    3  A    between atoms: N_7  and  C_8
REMARK    4  A    between atoms: C_12  and  C_13
REMARK    5  A    between atoms: C_13  and  C_14
REMARK    6  A    between atoms: C_13  and  C_15
REMARK    7  A    between atoms: C_15  and  C_16
REMARK    8  A    between atoms: N_20  and  C_21
REMARK                            x       y       z     vdW  Elec       q    Type
REMARK                         _______ _______ _______ _____ _____    ______ ____
ROOT
ATOM      1  C   UNL     1       2.793   6.254  18.095  0.00  0.00    +0.000 A 
ATOM      2  C   UNL     1       2.164   5.011  18.012  0.00  0.00    +0.000 A 
ATOM      3  C   UNL     1       2.808   3.913  17.452  0.00  0.00    +0.000 A 
ATOM      4  C   UNL     1       4.102   4.041  16.967  0.00  0.00    +0.000 A 
ATOM      5  C   UNL     1       4.762   5.279  17.015  0.00  0.00    +0.000 A 
ATOM      6  C   UNL     1       4.086   6.389  17.564  0.00  0.00    +0.000 A 
ENDROOT
BRANCH   1   9
ATOM      7  C   UNL     1       1.704   7.437  20.002  0.00  0.00    +0.000 C 
ATOM      8  O   UNL     1       1.793   6.549  20.847  0.00  0.00    +0.000 OA
ATOM      9  N   UNL     1       2.174   7.375  18.696  0.00  0.00    +0.000 N 
ATOM     10  H   UNL     1       2.130   8.250  18.177  0.00  0.00    +0.000 HD
BRANCH   7  14
ATOM     11  C   UNL     1       0.713  12.234  18.946  0.00  0.00    +0.000 C 
ATOM     12  C   UNL     1       0.613  11.060  19.867  0.00  0.00    +0.000 A 
ATOM     13  C   UNL     1       1.181   9.827  19.527  0.00  0.00    +0.000 A 
ATOM     14  C   UNL     1       1.067   8.733  20.404  0.00  0.00    +0.000 A 
ATOM     15  N   UNL     1       0.424   8.768  21.603  0.00  0.00    +0.000 NA
ATOM     16  C   UNL     1      -0.101   9.976  21.896  0.00  0.00    +0.000 A 
ATOM     17  C   UNL     1      -0.040  11.120  21.086  0.00  0.00    +0.000 A 
ATOM     18  C   UNL     1      -0.734  12.216  21.742  0.00  0.00    +0.000 C 
ATOM     19  C   UNL     1      -1.199  11.763  22.918  0.00  0.00    +0.000 C 
ATOM     20  C   UNL     1      -0.853  10.312  23.161  0.00  0.00    +0.000 C 
ENDBRANCH   7  14
ENDBRANCH   1   9
BRANCH   5  21
ATOM     21  C   UNL     1       6.200   5.404  16.524  0.00  0.00    +0.000 C 
ATOM     22  C   UNL     1       7.151   5.478  17.734  0.00  0.00    +0.000 C 
BRANCH  21  23
ATOM     23  C   UNL     1       6.638   4.254  15.593  0.00  0.00    +0.000 C 
BRANCH  23  24
ATOM     24  C   UNL     1       7.125   4.724  14.263  0.00  0.00    +0.000 A 
ATOM     25  N   UNL     1       8.116   5.572  14.066  0.00  0.00    +0.000 NA
ATOM     26  N   UNL     1       8.304   5.710  12.712  0.00  0.00    +0.000 NA
ATOM     27  C   UNL     1       7.426   4.946  12.110  0.00  0.00    +0.000 A 
ATOM     28  N   UNL     1       6.663   4.309  13.040  0.00  0.00    +0.000 N 
ATOM     29  C   UNL     1       5.608   3.376  12.751  0.00  0.00    +0.000 C 
ENDBRANCH  23  24
ENDBRANCH  21  23
ENDBRANCH   5  21
TORSDOF 5
ENDMDL
MODEL 3
REMARK VINA RESULT:      -8.7      1.183      1.232
REMARK  Name = 
REMARK  8 active torsions:
REMARK  status: ('A' for Active; 'I' for Inactive)
REMARK    1  A    between atoms: C_1  and  C_2
REMARK    2  A    between atoms: C_4  and  C_5
REMARK    3  A    between atoms: N_7  and  C_8
REMARK    4  A    between atoms: C_12  and  C_13
REMARK    5  A    between atoms: C_13  and  C_14
REMARK    6  A    between atoms: C_13  and  C_15
REMARK    7  A    between atoms: C_15  and  C_16
REMARK    8  A    between atoms: N_20  and  C_21
REMARK                            x       y       z     vdW  Elec       q    Type
REMARK                         _______ _______ _______ _____ _____    ______ ____
ROOT
ATOM      1  C   UNL     1       2.818   6.225  18.194  0.00  0.00    +0.000 A 
ATOM      2  C   UNL     1       2.299   4.940  18.025  0.00  0.00    +0.000 A 
ATOM      3  C   UNL     1       3.025   3.950  17.371  0.00  0.00    +0.000 A 
ATOM      4  C   UNL     1       4.292   4.229  16.878  0.00  0.00    +0.000 A 
ATOM      5  C   UNL     1       4.841   5.514  17.013  0.00  0.00    +0.000 A 
ATOM      6  C   UNL     1       4.082   6.515  17.656  0.00  0.00    +0.000 A 
ENDROOT
BRANCH   1   9
ATOM      7  C   UNL     1       1.870   8.521  18.420  0.00  0.00    +0.000 C 
ATOM      8  O   UNL     1       2.181   8.959  17.315  0.00  0.00    +0.000 OA
ATOM      9  N   UNL     1       2.116   7.237  18.890  0.00  0.00    +0.000 N 
ATOM     10  H   UNL     1       1.673   7.008  19.778  0.00  0.00    +0.000 HD
BRANCH   7  14
ATOM     11  C   UNL     1       0.174   9.454  23.042  0.00  0.00    +0.000 C 
ATOM     12  C   UNL     1       0.301   9.840  21.602  0.00  0.00    +0.000 A 
ATOM     13  C   UNL     1       1.004   9.035  20.699  0.00  0.00    +0.000 A 
ATOM     14  C   UNL     1       1.119   9.422  19.352  0.00  0.00    +0.000 A 
ATOM     15  N   UNL     1       0.586  10.560  18.827  0.00  0.00    +0.000 NA
ATOM     16  C   UNL     1      -0.091  11.302  19.729  0.00  0.00    +0.000 A 
ATOM     17  C   UNL     1      -0.256  10.998  21.089  0.00  0.00    +0.000 A 
ATOM     18  C   UNL     1      -1.032  12.048  21.728  0.00  0.00    +0.000 C 
ATOM     19  C   UNL     1      -1.340  12.960  20.792  0.00  0.00    +0.000 C 
ATOM     20  C   UNL     1      -0.797  12.602  19.428  0.00  0.00    +0.000 C 
ENDBRANCH   7  14
ENDBRANCH   1   9
BRANCH   5  21
ATOM     21  C   UNL     1       6.252   5.804  16.512  0.00  0.00    +0.000 C 
ATOM     22  C   UNL     1       7.141   6.226  17.697  0.00  0.00    +0.000 C 
BRANCH  21  23
ATOM     23  C   UNL     1       6.903   4.614  15.776  0.00  0.00    +0.000 C 
BRANCH  23  24
ATOM     24  C   UNL     1       7.254   4.918  14.357  0.00  0.00    +0.000 A 
ATOM     25  N   UNL     1       8.240   5.699  13.963  0.00  0.00    +0.000 NA
ATOM     26  N   UNL     1       8.283   5.683  12.590  0.00  0.00    +0.000 NA
ATOM     27  C   UNL     1       7.322   4.894  12.174  0.00  0.00    +0.000 A 
ATOM     28  N   UNL     1       6.648   4.392  13.244  0.00  0.00    +0.000 N 
ATOM     29  C   UNL     1       5.543   3.477  13.175  0.00  0.00    +0.000 C 
ENDBRANCH  23  24
ENDBRANCH  21  23
ENDBRANCH   5  21
TORSDOF 5
ENDMDL
MODEL 4
REMARK VINA RESULT:      -8.6      2.032      3.429
REMARK  Name = 
REMARK  8 active torsions:
REMARK  status: ('A' for Active; 'I' for Inactive)
REMARK    1  A    between atoms: C_1  and  C_2
REMARK    2  A    between atoms: C_4  and  C_5
REMARK    3  A    between atoms: N_7  and  C_8
REMARK    4  A    between atoms: C_12  and  C_13
REMARK    5  A    between atoms: C_13  and  C_14
REMARK    6  A    between atoms: C_13  and  C_15
REMARK    7  A    between atoms: C_15  and  C_16
REMARK    8  A    between atoms: N_20  and  C_21
REMARK                            x       y       z     vdW  Elec       q    Type
REMARK                         _______ _______ _______ _____ _____    ______ ____
ROOT
ATOM      1  C   UNL     1       2.678   5.428  17.982  0.00  0.00    +0.000 A 
ATOM      2  C   UNL     1       2.070   4.180  18.126  0.00  0.00    +0.000 A 
ATOM      3  C   UNL     1       2.634   3.035  17.573  0.00  0.00    +0.000 A 
ATOM      4  C   UNL     1       3.825   3.119  16.866  0.00  0.00    +0.000 A 
ATOM      5  C   UNL     1       4.458   4.359  16.683  0.00  0.00    +0.000 A 
ATOM      6  C   UNL     1       3.861   5.515  17.230  0.00  0.00    +0.000 A 
ENDROOT
BRANCH   1   9
ATOM      7  C   UNL     1       1.881   6.780  19.920  0.00  0.00    +0.000 C 
ATOM      8  O   UNL     1       2.109   5.972  20.817  0.00  0.00    +0.000 OA
ATOM      9  N   UNL     1       2.146   6.600  18.569  0.00  0.00    +0.000 N 
ATOM     10  H   UNL     1       2.013   7.425  17.986  0.00  0.00    +0.000 HD
BRANCH   7  14
ATOM     11  C   UNL     1       1.037  11.579  18.748  0.00  0.00    +0.000 C 
ATOM     12  C   UNL     1       0.915  10.434  19.704  0.00  0.00    +0.000 A 
ATOM     13  C   UNL     1       1.433   9.173  19.388  0.00  0.00    +0.000 A 
ATOM     14  C   UNL     1       1.299   8.108  20.298  0.00  0.00    +0.000 A 
ATOM     15  N   UNL     1       0.682   8.200  21.508  0.00  0.00    +0.000 NA
ATOM     16  C   UNL     1       0.207   9.433  21.776  0.00  0.00    +0.000 A 
ATOM     17  C   UNL     1       0.291  10.552  20.933  0.00  0.00    +0.000 A 
ATOM     18  C   UNL     1      -0.351  11.689  21.572  0.00  0.00    +0.000 C 
ATOM     19  C   UNL     1      -0.806  11.286  22.769  0.00  0.00    +0.000 C 
ATOM     20  C   UNL     1      -0.507   9.831  23.047  0.00  0.00    +0.000 C 
ENDBRANCH   7  14
ENDBRANCH   1   9
BRANCH   5  21
ATOM     21  C   UNL     1       5.791   4.441  15.947  0.00  0.00    +0.000 C 
ATOM     22  C   UNL     1       5.549   4.300  14.432  0.00  0.00    +0.000 C 
BRANCH  21  23
ATOM     23  C   UNL     1       6.572   5.742  16.226  0.00  0.00    +0.000 C 
BRANCH  23  24
ATOM     24  C   UNL     1       7.201   5.774  17.579  0.00  0.00    +0.000 A 
ATOM     25  N   UNL     1       7.369   4.732  18.370  0.00  0.00    +0.000 NA
ATOM     26  N   UNL     1       8.035   5.149  19.498  0.00  0.00    +0.000 NA
ATOM     27  C   UNL     1       8.258   6.434  19.374  0.00  0.00    +0.000 A 
ATOM     28  N   UNL     1       7.753   6.872  18.188  0.00  0.00    +0.000 N 
ATOM     29  C   UNL     1       7.827   8.222  17.702  0.00  0.00    +0.000 C 
ENDBRANCH  23  24
ENDBRANCH  21  23
ENDBRANCH   5  21
TORSDOF 5
ENDMDL
MODEL 5
REMARK VINA RESULT:      -8.5      1.123      1.123
REMARK  Name = 
REMARK  8 active torsions:
REMARK  status: ('A' for Active; 'I' for Inactive)
REMARK    1  A    between atoms: C_1  and  C_2
REMARK    2  A    between atoms: C_4  and  C_5
REMARK    3  A    between atoms: N_7  and  C_8
REMARK    4  A    between atoms: C_12  and  C_13
REMARK    5  A    between atoms: C_13  and  C_14
REMARK    6  A    between atoms: C_13  and  C_15
REMARK    7  A    between atoms: C_15  and  C_16
REMARK    8  A    between atoms: N_20  and  C_21
REMARK                            x       y       z     vdW  Elec       q    Type
REMARK                         _______ _______ _______ _____ _____    ______ ____
ROOT
ATOM      1  C   UNL     1       3.279   5.826  19.401  0.00  0.00    +0.000 A 
ATOM      2  C   UNL     1       3.009   4.547  19.889  0.00  0.00    +0.000 A 
ATOM      3  C   UNL     1       3.705   3.436  19.424  0.00  0.00    +0.000 A 
ATOM      4  C   UNL     1       4.692   3.588  18.461  0.00  0.00    +0.000 A 
ATOM      5  C   UNL     1       4.981   4.856  17.931  0.00  0.00    +0.000 A 
ATOM      6  C   UNL     1       4.249   5.970  18.395  0.00  0.00    +0.000 A 
ENDROOT
BRANCH   1   9
ATOM      7  C   UNL     1       1.994   7.943  19.105  0.00  0.00    +0.000 C 
ATOM      8  O   UNL     1       1.888   7.926  17.881  0.00  0.00    +0.000 OA
ATOM      9  N   UNL     1       2.614   6.976  19.886  0.00  0.00    +0.000 N 
ATOM     10  H   UNL     1       2.494   7.087  20.892  0.00  0.00    +0.000 HD
BRANCH   7  14
ATOM     11  C   UNL     1      -0.212   9.639  23.273  0.00  0.00    +0.000 C 
ATOM     12  C   UNL     1       0.294   9.871  21.884  0.00  0.00    +0.000 A 
ATOM     13  C   UNL     1       0.894   8.839  21.154  0.00  0.00    +0.000 A 
ATOM     14  C   UNL     1       1.371   9.082  19.853  0.00  0.00    +0.000 A 
ATOM     15  N   UNL     1       1.300  10.284  19.216  0.00  0.00    +0.000 NA
ATOM     16  C   UNL     1       0.707  11.247  19.951  0.00  0.00    +0.000 A 
ATOM     17  C   UNL     1       0.204  11.099  21.253  0.00  0.00    +0.000 A 
ATOM     18  C   UNL     1      -0.344  12.367  21.707  0.00  0.00    +0.000 C 
ATOM     19  C   UNL     1      -0.190  13.260  20.716  0.00  0.00    +0.000 C 
ATOM     20  C   UNL     1       0.477  12.668  19.496  0.00  0.00    +0.000 C 
ENDBRANCH   7  14
ENDBRANCH   1   9
BRANCH   5  21
ATOM     21  C   UNL     1       6.098   5.025  16.907  0.00  0.00    +0.000 C 
ATOM     22  C   UNL     1       7.428   4.539  17.514  0.00  0.00    +0.000 C 
BRANCH  21  23
ATOM     23  C   UNL     1       5.835   4.287  15.579  0.00  0.00    +0.000 C 
BRANCH  23  24
ATOM     24  C   UNL     1       6.727   4.734  14.468  0.00  0.00    +0.000 A 
ATOM     25  N   UNL     1       7.713   5.602  14.581  0.00  0.00    +0.000 NA
ATOM     26  N   UNL     1       8.336   5.710  13.360  0.00  0.00    +0.000 NA
ATOM     27  C   UNL     1       7.718   4.908  12.529  0.00  0.00    +0.000 A 
ATOM     28  N   UNL     1       6.701   4.275  13.176  0.00  0.00    +0.000 N 
ATOM     29  C   UNL     1       5.816   3.308  12.587  0.00  0.00    +0.000 C 
ENDBRANCH  23  24
ENDBRANCH  21  23
ENDBRANCH   5  21
TORSDOF 5
ENDMDL
MODEL 6
REMARK VINA RESULT:      -8.5      1.915      2.921
REMARK  Name = 
REMARK  8 active torsions:
REMARK  status: ('A' for Active; 'I' for Inactive)
REMARK    1  A    between atoms: C_1  and  C_2
REMARK    2  A    between atoms: C_4  and  C_5
REMARK    3  A    between atoms: N_7  and  C_8
REMARK    4  A    between atoms: C_12  and  C_13
REMARK    5  A    between atoms: C_13  and  C_14
REMARK    6  A    between atoms: C_13  and  C_15
REMARK    7  A    between atoms: C_15  and  C_16
REMARK    8  A    between atoms: N_20  and  C_21
REMARK                            x       y       z     vdW  Elec       q    Type
REMARK                         _______ _______ _______ _____ _____    ______ ____
ROOT
ATOM      1  C   UNL     1       3.075   5.330  18.077  0.00  0.00    +0.000 A 
ATOM      2  C   UNL     1       2.608   4.074  18.468  0.00  0.00    +0.000 A 
ATOM      3  C   UNL     1       3.178   2.906  17.971  0.00  0.00    +0.000 A 
ATOM      4  C   UNL     1       4.233   2.977  17.073  0.00  0.00    +0.000 A 
ATOM      5  C   UNL     1       4.719   4.221  16.641  0.00  0.00    +0.000 A 
ATOM      6  C   UNL     1       4.115   5.397  17.136  0.00  0.00    +0.000 A 
ENDROOT
BRANCH   1   9
ATOM      7  C   UNL     1       2.038   6.703  19.883  0.00  0.00    +0.000 C 
ATOM      8  O   UNL     1       2.025   5.858  20.774  0.00  0.00    +0.000 OA
ATOM      9  N   UNL     1       2.539   6.531  18.599  0.00  0.00    +0.000 N 
ATOM     10  H   UNL     1       2.587   7.377  18.034  0.00  0.00    +0.000 HD
BRANCH   7  14
ATOM     11  C   UNL     1      -0.129   9.812  23.162  0.00  0.00    +0.000 C 
ATOM     12  C   UNL     1       0.444   9.549  21.806  0.00  0.00    +0.000 A 
ATOM     13  C   UNL     1       0.964   8.292  21.474  0.00  0.00    +0.000 A 
ATOM     14  C   UNL     1       1.506   8.069  20.196  0.00  0.00    +0.000 A 
ATOM     15  N   UNL     1       1.577   9.008  19.212  0.00  0.00    +0.000 NA
ATOM     16  C   UNL     1       1.057  10.200  19.570  0.00  0.00    +0.000 A 
ATOM     17  C   UNL     1       0.498  10.516  20.818  0.00  0.00    +0.000 A 
ATOM     18  C   UNL     1       0.064  11.903  20.816  0.00  0.00    +0.000 C 
ATOM     19  C   UNL     1       0.339  12.420  19.608  0.00  0.00    +0.000 C 
ATOM     20  C   UNL     1       0.985  11.417  18.679  0.00  0.00    +0.000 C 
ENDBRANCH   7  14
ENDBRANCH   1   9
BRANCH   5  21
ATOM     21  C   UNL     1       5.909   4.295  15.691  0.00  0.00    +0.000 C 
ATOM     22  C   UNL     1       5.403   4.327  14.236  0.00  0.00    +0.000 C 
BRANCH  21  23
ATOM     23  C   UNL     1       6.829   5.507  15.945  0.00  0.00    +0.000 C 
BRANCH  23  24
ATOM     24  C   UNL     1       7.329   5.584  17.349  0.00  0.00    +0.000 A 
ATOM     25  N   UNL     1       7.615   4.552  18.118  0.00  0.00    +0.000 NA
ATOM     26  N   UNL     1       8.101   5.024  19.314  0.00  0.00    +0.000 NA
ATOM     27  C   UNL     1       8.101   6.333  19.251  0.00  0.00    +0.000 A 
ATOM     28  N   UNL     1       7.625   6.732  18.040  0.00  0.00    +0.000 N 
ATOM     29  C   UNL     1       7.497   8.096  17.606  0.00  0.00    +0.000 C 
ENDBRANCH  23  24
ENDBRANCH  21  23
ENDBRANCH   5  21
TORSDOF 5
ENDMDL
MODEL 7
REMARK VINA RESULT:      -8.4      2.976      9.487
REMARK  Name = 
REMARK  8 active torsions:
REMARK  status: ('A' for Active; 'I' for Inactive)
REMARK    1  A    between atoms: C_1  and  C_2
REMARK    2  A    between atoms: C_4  and  C_5
REMARK    3  A    between atoms: N_7  and  C_8
REMARK    4  A    between atoms: C_12  and  C_13
REMARK    5  A    between atoms: C_13  and  C_14
REMARK    6  A    between atoms: C_13  and  C_15
REMARK    7  A    between atoms: C_15  and  C_16
REMARK    8  A    between atoms: N_20  and  C_21
REMARK                            x       y       z     vdW  Elec       q    Type
REMARK                         _______ _______ _______ _____ _____    ______ ____
ROOT
ATOM      1  C   UNL     1       1.050   8.802  20.666  0.00  0.00    +0.000 A 
ATOM      2  C   UNL     1       1.049   8.805  22.062  0.00  0.00    +0.000 A 
ATOM      3  C   UNL     1       0.293   9.725  22.780  0.00  0.00    +0.000 A 
ATOM      4  C   UNL     1      -0.483  10.659  22.110  0.00  0.00    +0.000 A 
ATOM      5  C   UNL     1      -0.495  10.701  20.707  0.00  0.00    +0.000 A 
ATOM      6  C   UNL     1       0.297   9.777  19.992  0.00  0.00    +0.000 A 
ENDROOT
BRANCH   1   9
ATOM      7  C   UNL     1       2.261   8.038  18.623  0.00  0.00    +0.000 C 
ATOM      8  O   UNL     1       2.169   9.066  17.958  0.00  0.00    +0.000 OA
ATOM      9  N   UNL     1       1.779   7.852  19.913  0.00  0.00    +0.000 N 
ATOM     10  H   UNL     1       2.058   6.980  20.359  0.00  0.00    +0.000 HD
BRANCH   7  14
ATOM     11  C   UNL     1       2.422   3.124  17.651  0.00  0.00    +0.000 C 
ATOM     12  C   UNL     1       3.043   4.484  17.580  0.00  0.00    +0.000 A 
ATOM     13  C   UNL     1       2.392   5.602  18.112  0.00  0.00    +0.000 A 
ATOM     14  C   UNL     1       2.990   6.873  18.027  0.00  0.00    +0.000 A 
ATOM     15  N   UNL     1       4.195   7.121  17.445  0.00  0.00    +0.000 NA
ATOM     16  C   UNL     1       4.792   6.015  16.953  0.00  0.00    +0.000 A 
ATOM     17  C   UNL     1       4.273   4.712  16.990  0.00  0.00    +0.000 A 
ATOM     18  C   UNL     1       5.206   3.802  16.346  0.00  0.00    +0.000 C 
ATOM     19  C   UNL     1       6.264   4.519  15.934  0.00  0.00    +0.000 C 
ATOM     20  C   UNL     1       6.139   5.987  16.270  0.00  0.00    +0.000 C 
ENDBRANCH   7  14
ENDBRANCH   1   9
BRANCH   5  21
ATOM     21  C   UNL     1      -1.385  11.699  19.974  0.00  0.00    +0.000 C 
ATOM     22  C   UNL     1      -0.775  13.109  20.085  0.00  0.00    +0.000 C 
BRANCH  21  23
ATOM     23  C   UNL     1      -1.612  11.349  18.489  0.00  0.00    +0.000 C 
BRANCH  23  24
ATOM     24  C   UNL     1      -3.035  11.489  18.060  0.00  0.00    +0.000 A 
ATOM     25  N   UNL     1      -4.028  11.903  18.824  0.00  0.00    +0.000 NA
ATOM     26  N   UNL     1      -5.169  11.954  18.060  0.00  0.00    +0.000 NA
ATOM     27  C   UNL     1      -4.851  11.571  16.847  0.00  0.00    +0.000 A 
ATOM     28  N   UNL     1      -3.525  11.267  16.798  0.00  0.00    +0.000 N 
ATOM     29  C   UNL     1      -2.816  10.828  15.627  0.00  0.00    +0.000 C 
ENDBRANCH  23  24
ENDBRANCH  21  23
ENDBRANCH   5  21
TORSDOF 5
ENDMDL
MODEL 8
REMARK VINA RESULT:      -8.4      2.768      9.437
REMARK  Name = 
REMARK  8 active torsions:
REMARK  status: ('A' for Active; 'I' for Inactive)
REMARK    1  A    between atoms: C_1  and  C_2
REMARK    2  A    between atoms: C_4  and  C_5
REMARK    3  A    between atoms: N_7  and  C_8
REMARK    4  A    between atoms: C_12  and  C_13
REMARK    5  A    between atoms: C_13  and  C_14
REMARK    6  A    between atoms: C_13  and  C_15
REMARK    7  A    between atoms: C_15  and  C_16
REMARK    8  A    between atoms: N_20  and  C_21
REMARK                            x       y       z     vdW  Elec       q    Type
REMARK                         _______ _______ _______ _____ _____    ______ ____
ROOT
ATOM      1  C   UNL     1       1.203   8.781  20.554  0.00  0.00    +0.000 A 
ATOM      2  C   UNL     1       1.200   8.617  21.940  0.00  0.00    +0.000 A 
ATOM      3  C   UNL     1       0.453   9.452  22.764  0.00  0.00    +0.000 A 
ATOM      4  C   UNL     1      -0.313  10.469  22.210  0.00  0.00    +0.000 A 
ATOM      5  C   UNL     1      -0.322  10.678  20.822  0.00  0.00    +0.000 A 
ATOM      6  C   UNL     1       0.460   9.837  20.002  0.00  0.00    +0.000 A 
ENDROOT
BRANCH   1   9
ATOM      7  C   UNL     1       2.085   6.551  19.867  0.00  0.00    +0.000 C 
ATOM      8  O   UNL     1       1.594   5.872  20.765  0.00  0.00    +0.000 OA
ATOM      9  N   UNL     1       1.922   7.920  19.693  0.00  0.00    +0.000 N 
ATOM     10  H   UNL     1       2.294   8.294  18.821  0.00  0.00    +0.000 HD
BRANCH   7  14
ATOM     11  C   UNL     1       3.541   2.270  17.706  0.00  0.00    +0.000 C 
ATOM     12  C   UNL     1       3.603   3.761  17.806  0.00  0.00    +0.000 A 
ATOM     13  C   UNL     1       2.842   4.453  18.755  0.00  0.00    +0.000 A 
ATOM     14  C   UNL     1       2.909   5.856  18.826  0.00  0.00    +0.000 A 
ATOM     15  N   UNL     1       3.679   6.634  18.016  0.00  0.00    +0.000 NA
ATOM     16  C   UNL     1       4.404   5.928  17.124  0.00  0.00    +0.000 A 
ATOM     17  C   UNL     1       4.400   4.532  16.978  0.00  0.00    +0.000 A 
ATOM     18  C   UNL     1       5.300   4.156  15.900  0.00  0.00    +0.000 C 
ATOM     19  C   UNL     1       5.842   5.280  15.405  0.00  0.00    +0.000 C 
ATOM     20  C   UNL     1       5.356   6.523  16.114  0.00  0.00    +0.000 C 
ENDBRANCH   7  14
ENDBRANCH   1   9
BRANCH   5  21
ATOM     21  C   UNL     1      -1.201  11.765  20.214  0.00  0.00    +0.000 C 
ATOM     22  C   UNL     1      -0.596  13.147  20.524  0.00  0.00    +0.000 C 
BRANCH  21  23
ATOM     23  C   UNL     1      -1.401  11.619  18.691  0.00  0.00    +0.000 C 
BRANCH  23  24
ATOM     24  C   UNL     1      -2.836  11.629  18.280  0.00  0.00    +0.000 A 
ATOM     25  N   UNL     1      -3.847  12.007  19.037  0.00  0.00    +0.000 NA
ATOM     26  N   UNL     1      -4.998  11.932  18.291  0.00  0.00    +0.000 NA
ATOM     27  C   UNL     1      -4.668  11.510  17.095  0.00  0.00    +0.000 A 
ATOM     28  N   UNL     1      -3.324  11.304  17.039  0.00  0.00    +0.000 N 
ATOM     29  C   UNL     1      -2.599  10.858  15.881  0.00  0.00    +0.000 C 
ENDBRANCH  23  24
ENDBRANCH  21  23
ENDBRANCH   5  21
TORSDOF 5
ENDMDL
MODEL 9
REMARK VINA RESULT:      -8.4      3.440      9.494
REMARK  Name = 
REMARK  8 active torsions:
REMARK  status: ('A' for Active; 'I' for Inactive)
REMARK    1  A    between atoms: C_1  and  C_2
REMARK    2  A    between atoms: C_4  and  C_5
REMARK    3  A    between atoms: N_7  and  C_8
REMARK    4  A    between atoms: C_12  and  C_13
REMARK    5  A    between atoms: C_13  and  C_14
REMARK    6  A    between atoms: C_13  and  C_15
REMARK    7  A    between atoms: C_15  and  C_16
REMARK    8  A    between atoms: N_20  and  C_21
REMARK                            x       y       z     vdW  Elec       q    Type
REMARK                         _______ _______ _______ _____ _____    ______ ____
ROOT
ATOM      1  C   UNL     1       0.181   8.880  21.398  0.00  0.00    +0.000 A 
ATOM      2  C   UNL     1      -0.020   9.243  22.731  0.00  0.00    +0.000 A 
ATOM      3  C   UNL     1      -0.566  10.477  23.068  0.00  0.00    +0.000 A 
ATOM      4  C   UNL     1      -0.925  11.372  22.070  0.00  0.00    +0.000 A 
ATOM      5  C   UNL     1      -0.721  11.053  20.719  0.00  0.00    +0.000 A 
ATOM      6  C   UNL     1      -0.144   9.806  20.394  0.00  0.00    +0.000 A 
ENDROOT
BRANCH   1   9
ATOM      7  C   UNL     1       1.664   7.387  20.058  0.00  0.00    +0.000 C 
ATOM      8  O   UNL     1       2.251   8.247  19.406  0.00  0.00    +0.000 OA
ATOM      9  N   UNL     1       0.697   7.616  21.029  0.00  0.00    +0.000 N 
ATOM     10  H   UNL     1       0.411   6.794  21.559  0.00  0.00    +0.000 HD
BRANCH   7  14
ATOM     11  C   UNL     1       1.807   2.679  21.767  0.00  0.00    +0.000 C 
ATOM     12  C   UNL     1       2.099   3.681  20.695  0.00  0.00    +0.000 A 
ATOM     13  C   UNL     1       1.759   5.029  20.857  0.00  0.00    +0.000 A 
ATOM     14  C   UNL     1       2.034   5.953  19.833  0.00  0.00    +0.000 A 
ATOM     15  N   UNL     1       2.624   5.638  18.647  0.00  0.00    +0.000 NA
ATOM     16  C   UNL     1       2.943   4.332  18.536  0.00  0.00    +0.000 A 
ATOM     17  C   UNL     1       2.707   3.340  19.500  0.00  0.00    +0.000 A 
ATOM     18  C   UNL     1       3.180   2.059  19.002  0.00  0.00    +0.000 C 
ATOM     19  C   UNL     1       3.696   2.258  17.778  0.00  0.00    +0.000 C 
ATOM     20  C   UNL     1       3.619   3.703  17.341  0.00  0.00    +0.000 C 
ENDBRANCH   7  14
ENDBRANCH   1   9
BRANCH   5  21
ATOM     21  C   UNL     1      -1.160  12.019  19.625  0.00  0.00    +0.000 C 
ATOM     22  C   UNL     1      -0.022  13.016  19.333  0.00  0.00    +0.000 C 
BRANCH  21  23
ATOM     23  C   UNL     1      -1.583  11.321  18.316  0.00  0.00    +0.000 C 
BRANCH  23  24
ATOM     24  C   UNL     1      -3.032  11.489  17.998  0.00  0.00    +0.000 A 
ATOM     25  N   UNL     1      -3.958  11.904  18.840  0.00  0.00    +0.000 NA
ATOM     26  N   UNL     1      -5.152  11.985  18.165  0.00  0.00    +0.000 NA
ATOM     27  C   UNL     1      -4.932  11.618  16.926  0.00  0.00    +0.000 A 
ATOM     28  N   UNL     1      -3.618  11.296  16.772  0.00  0.00    +0.000 N 
ATOM     29  C   UNL     1      -3.006  10.865  15.545  0.00  0.00    +0.000 C 
ENDBRANCH  23  24
ENDBRANCH  21  23
ENDBRANCH   5  21
TORSDOF 5
ENDMDL
