MODEL 1
REMARK VINA RESULT:      -9.0      0.000      0.000
REMARK  Name = 
REMARK  3 active torsions:
REMARK  status: ('A' for Active; 'I' for Inactive)
REMARK    1  A    between atoms: C_6  and  C_7
REMARK    2  A    between atoms: C_7  and  N_8
REMARK    3  A    between atoms: N_11  and  C_12
REMARK                            x       y       z     vdW  Elec       q    Type
REMARK                         _______ _______ _______ _____ _____    ______ ____
ROOT
ATOM      1  N   UNL     1       1.264   8.877  19.382  0.00  0.00    +0.000 N 
ATOM      2  C   UNL     1       1.801   7.882  20.158  0.00  0.00    +0.000 C 
ATOM      3  O   UNL     1       1.636   7.783  21.364  0.00  0.00    +0.000 OA
ATOM      4  N   UNL     1       2.576   7.033  19.410  0.00  0.00    +0.000 N 
ATOM      5  H   UNL     1       1.542   8.937  18.416  0.00  0.00    +0.000 HD
ATOM      6  H   UNL     1       2.399   7.007  18.421  0.00  0.00    +0.000 HD
ENDROOT
BRANCH   4   7
ATOM      7  C   UNL     1       3.299   5.894  19.967  0.00  0.00    +0.000 C 
ATOM      8  C   UNL     1       4.608   5.563  19.227  0.00  0.00    +0.000 C 
ATOM      9  C   UNL     1       4.517   5.524  17.700  0.00  0.00    +0.000 C 
ATOM     10  C   UNL     1       3.598   4.452  17.120  0.00  0.00    +0.000 C 
ATOM     11  C   UNL     1       2.124   4.614  17.487  0.00  0.00    +0.000 C 
ATOM     12  C   UNL     1       1.830   4.089  18.872  0.00  0.00    +0.000 A 
ATOM     13  C   UNL     1       1.013   2.950  18.997  0.00  0.00    +0.000 A 
ATOM     14  C   UNL     1       0.793   2.358  20.239  0.00  0.00    +0.000 A 
ATOM     15  C   UNL     1       1.378   2.902  21.375  0.00  0.00    +0.000 A 
ATOM     16  C   UNL     1       2.166   4.051  21.273  0.00  0.00    +0.000 A 
ATOM     17  C   UNL     1       2.399   4.665  20.028  0.00  0.00    +0.000 A 
ENDBRANCH   4   7
BRANCH   1  18
ATOM     18  C   UNL     1       0.421   9.930  19.911  0.00  0.00    +0.000 C 
BRANCH  18  24
ATOM     19  O   UNL     1      -4.254  10.444  14.258  0.00  0.00    +0.000 OA
ATOM     20  C   UNL     1      -3.548  10.497  15.251  0.00  0.00    +0.000 C 
ATOM     21  C   UNL     1      -2.378   9.567  15.597  0.00  0.00    +0.000 C 
ATOM     22  C   UNL     1      -1.904  10.121  16.909  0.00  0.00    +0.000 A 
ATOM     23  C   UNL     1      -0.871   9.705  17.735  0.00  0.00    +0.000 A 
ATOM     24  C   UNL     1      -0.646  10.397  18.941  0.00  0.00    +0.000 A 
ATOM     25  C   UNL     1      -1.477  11.495  19.273  0.00  0.00    +0.000 A 
ATOM     26  C   UNL     1      -2.517  11.910  18.429  0.00  0.00    +0.000 A 
ATOM     27  C   UNL     1      -2.703  11.207  17.262  0.00  0.00    +0.000 A 
ATOM     28  N   UNL     1      -3.662  11.421  16.286  0.00  0.00    +0.000 N 
ATOM     29  H   UNL     1      -4.367  12.143  16.295  0.00  0.00    +0.000 HD
ENDBRANCH  18  24
ENDBRANCH   1  18
TORSDOF 3
ENDMDL
MODEL 2
REMARK VINA RESULT:      -8.8      1.167      1.719
REMARK  Name = 
REMARK  3 active torsions:
REMARK  status: ('A' for Active; 'I' for Inactive)
REMARK    1  A    between atoms: C_6  and  C_7
REMARK    2  A    between atoms: C_7  and  N_8
REMARK    3  A    between atoms: N_11  and  C_12
REMARK                            x       y       z     vdW  Elec       q    Type
REMARK                         _______ _______ _______ _____ _____    ______ ____
ROOT
ATOM      1  N   UNL     1       1.092   8.973  18.797  0.00  0.00    +0.000 N 
ATOM      2  C   UNL     1       1.769   8.130  19.642  0.00  0.00    +0.000 C 
ATOM      3  O   UNL     1       1.800   8.251  20.856  0.00  0.00    +0.000 OA
ATOM      4  N   UNL     1       2.435   7.156  18.942  0.00  0.00    +0.000 N 
ATOM      5  H   UNL     1       1.212   8.857  17.804  0.00  0.00    +0.000 HD
ATOM      6  H   UNL     1       2.104   6.954  18.015  0.00  0.00    +0.000 HD
ENDROOT
BRANCH   4   7
ATOM      7  C   UNL     1       3.263   6.131  19.570  0.00  0.00    +0.000 C 
ATOM      8  C   UNL     1       4.477   5.705  18.724  0.00  0.00    +0.000 C 
ATOM      9  C   UNL     1       4.192   5.422  17.247  0.00  0.00    +0.000 C 
ATOM     10  C   UNL     1       3.244   4.257  16.969  0.00  0.00    +0.000 C 
ATOM     11  C   UNL     1       1.825   4.454  17.498  0.00  0.00    +0.000 C 
ATOM     12  C   UNL     1       1.730   4.154  18.975  0.00  0.00    +0.000 A 
ATOM     13  C   UNL     1       0.976   3.038  19.383  0.00  0.00    +0.000 A 
ATOM     14  C   UNL     1       0.939   2.648  20.721  0.00  0.00    +0.000 A 
ATOM     15  C   UNL     1       1.645   3.375  21.671  0.00  0.00    +0.000 A 
ATOM     16  C   UNL     1       2.372   4.504  21.287  0.00  0.00    +0.000 A 
ATOM     17  C   UNL     1       2.422   4.915  19.941  0.00  0.00    +0.000 A 
ENDBRANCH   4   7
BRANCH   1  18
ATOM     18  C   UNL     1       0.320  10.109  19.258  0.00  0.00    +0.000 C 
BRANCH  18  24
ATOM     19  O   UNL     1      -6.367  12.343  17.169  0.00  0.00    +0.000 OA
ATOM     20  C   UNL     1      -5.258  11.883  17.378  0.00  0.00    +0.000 C 
ATOM     21  C   UNL     1      -4.395  12.096  18.629  0.00  0.00    +0.000 C 
ATOM     22  C   UNL     1      -3.169  11.290  18.315  0.00  0.00    +0.000 A 
ATOM     23  C   UNL     1      -2.015  11.090  19.058  0.00  0.00    +0.000 A 
ATOM     24  C   UNL     1      -0.989  10.293  18.516  0.00  0.00    +0.000 A 
ATOM     25  C   UNL     1      -1.163   9.720  17.232  0.00  0.00    +0.000 A 
ATOM     26  C   UNL     1      -2.334   9.926  16.490  0.00  0.00    +0.000 A 
ATOM     27  C   UNL     1      -3.312  10.711  17.056  0.00  0.00    +0.000 A 
ATOM     28  N   UNL     1      -4.537  11.061  16.515  0.00  0.00    +0.000 N 
ATOM     29  H   UNL     1      -4.892  10.777  15.613  0.00  0.00    +0.000 HD
ENDBRANCH  18  24
ENDBRANCH   1  18
TORSDOF 3
ENDMDL
MODEL 3
REMARK VINA RESULT:      -8.3      3.811      5.425
REMARK  Name = 
REMARK  3 active torsions:
REMARK  status: ('A' for Active; 'I' for Inactive)
REMARK    1  A    between atoms: C_6  and  C_7
REMARK    2  A    between atoms: C_7  and  N_8
REMARK    3  A    between atoms: N_11  and  C_12
REMARK                            x       y       z     vdW  Elec       q    Type
REMARK                         _______ _______ _______ _____ _____    ______ ____
ROOT
ATOM      1  N   UNL     1       2.828   8.198  18.198  0.00  0.00    +0.000 N 
ATOM      2  C   UNL     1       2.975   6.857  17.951  0.00  0.00    +0.000 C 
ATOM      3  O   UNL     1       2.058   6.106  17.660  0.00  0.00    +0.000 OA
ATOM      4  N   UNL     1       4.279   6.464  18.108  0.00  0.00    +0.000 N 
ATOM      5  H   UNL     1       3.624   8.715  18.536  0.00  0.00    +0.000 HD
ATOM      6  H   UNL     1       4.982   7.178  18.036  0.00  0.00    +0.000 HD
ENDROOT
BRANCH   4   7
ATOM      7  C   UNL     1       4.736   5.088  17.938  0.00  0.00    +0.000 C 
ATOM      8  C   UNL     1       5.612   4.573  19.095  0.00  0.00    +0.000 C 
ATOM      9  C   UNL     1       6.722   5.518  19.559  0.00  0.00    +0.000 C 
ATOM     10  C   UNL     1       7.798   5.833  18.522  0.00  0.00    +0.000 C 
ATOM     11  C   UNL     1       7.291   6.578  17.289  0.00  0.00    +0.000 C 
ATOM     12  C   UNL     1       6.638   5.643  16.298  0.00  0.00    +0.000 A 
ATOM     13  C   UNL     1       7.265   5.441  15.055  0.00  0.00    +0.000 A 
ATOM     14  C   UNL     1       6.769   4.511  14.144  0.00  0.00    +0.000 A 
ATOM     15  C   UNL     1       5.631   3.778  14.458  0.00  0.00    +0.000 A 
ATOM     16  C   UNL     1       4.979   3.989  15.675  0.00  0.00    +0.000 A 
ATOM     17  C   UNL     1       5.463   4.925  16.608  0.00  0.00    +0.000 A 
ENDBRANCH   4   7
BRANCH   1  18
ATOM     18  C   UNL     1       1.554   8.885  18.131  0.00  0.00    +0.000 C 
BRANCH  18  24
ATOM     19  O   UNL     1      -2.160  12.172  23.560  0.00  0.00    +0.000 OA
ATOM     20  C   UNL     1      -1.480  11.532  22.776  0.00  0.00    +0.000 C 
ATOM     21  C   UNL     1      -1.321  11.791  21.273  0.00  0.00    +0.000 C 
ATOM     22  C   UNL     1      -0.374  10.703  20.858  0.00  0.00    +0.000 A 
ATOM     23  C   UNL     1       0.152  10.402  19.610  0.00  0.00    +0.000 A 
ATOM     24  C   UNL     1       1.016   9.297  19.487  0.00  0.00    +0.000 A 
ATOM     25  C   UNL     1       1.322   8.527  20.636  0.00  0.00    +0.000 A 
ATOM     26  C   UNL     1       0.787   8.841  21.893  0.00  0.00    +0.000 A 
ATOM     27  C   UNL     1      -0.052   9.928  21.970  0.00  0.00    +0.000 A 
ATOM     28  N   UNL     1      -0.702  10.420  23.089  0.00  0.00    +0.000 N 
ATOM     29  H   UNL     1      -0.643  10.044  24.024  0.00  0.00    +0.000 HD
ENDBRANCH  18  24
ENDBRANCH   1  18
TORSDOF 3
ENDMDL
MODEL 4
REMARK VINA RESULT:      -8.3      3.071      4.264
REMARK  Name = 
REMARK  3 active torsions:
REMARK  status: ('A' for Active; 'I' for Inactive)
REMARK    1  A    between atoms: C_6  and  C_7
REMARK    2  A    between atoms: C_7  and  N_8
REMARK    3  A    between atoms: N_11  and  C_12
REMARK                            x       y       z     vdW  Elec       q    Type
REMARK                         _______ _______ _______ _____ _____    ______ ____
ROOT
ATOM      1  N   UNL     1       1.865   8.600  17.902  0.00  0.00    +0.000 N 
ATOM      2  C   UNL     1       2.189   7.747  18.926  0.00  0.00    +0.000 C 
ATOM      3  O   UNL     1       1.686   7.784  20.037  0.00  0.00    +0.000 OA
ATOM      4  N   UNL     1       3.176   6.872  18.550  0.00  0.00    +0.000 N 
ATOM      5  H   UNL     1       2.408   8.563  17.054  0.00  0.00    +0.000 HD
ATOM      6  H   UNL     1       3.293   6.715  17.565  0.00  0.00    +0.000 HD
ENDROOT
BRANCH   4   7
ATOM      7  C   UNL     1       3.746   5.864  19.438  0.00  0.00    +0.000 C 
ATOM      8  C   UNL     1       5.097   5.302  18.960  0.00  0.00    +0.000 C 
ATOM      9  C   UNL     1       5.167   4.906  17.483  0.00  0.00    +0.000 C 
ATOM     10  C   UNL     1       4.235   3.773  17.058  0.00  0.00    +0.000 C 
ATOM     11  C   UNL     1       2.747   4.091  17.196  0.00  0.00    +0.000 C 
ATOM     12  C   UNL     1       2.267   3.926  18.618  0.00  0.00    +0.000 A 
ATOM     13  C   UNL     1       1.357   2.891  18.901  0.00  0.00    +0.000 A 
ATOM     14  C   UNL     1       0.961   2.623  20.210  0.00  0.00    +0.000 A 
ATOM     15  C   UNL     1       1.461   3.392  21.253  0.00  0.00    +0.000 A 
ATOM     16  C   UNL     1       2.341   4.443  20.986  0.00  0.00    +0.000 A 
ATOM     17  C   UNL     1       2.752   4.732  19.671  0.00  0.00    +0.000 A 
ENDBRANCH   4   7
BRANCH   1  18
ATOM     18  C   UNL     1       0.869   9.647  18.023  0.00  0.00    +0.000 C 
BRANCH  18  24
ATOM     19  O   UNL     1       4.083  16.091  19.508  0.00  0.00    +0.000 OA
ATOM     20  C   UNL     1       3.498  15.026  19.417  0.00  0.00    +0.000 C 
ATOM     21  C   UNL     1       3.498  14.078  18.211  0.00  0.00    +0.000 C 
ATOM     22  C   UNL     1       2.626  12.952  18.687  0.00  0.00    +0.000 A 
ATOM     23  C   UNL     1       2.237  11.788  18.042  0.00  0.00    +0.000 A 
ATOM     24  C   UNL     1       1.383  10.893  18.716  0.00  0.00    +0.000 A 
ATOM     25  C   UNL     1       0.949  11.206  20.027  0.00  0.00    +0.000 A 
ATOM     26  C   UNL     1       1.351  12.384  20.672  0.00  0.00    +0.000 A 
ATOM     27  C   UNL     1       2.185  13.231  19.979  0.00  0.00    +0.000 A 
ATOM     28  N   UNL     1       2.700  14.445  20.400  0.00  0.00    +0.000 N 
ATOM     29  H   UNL     1       2.537  14.882  21.295  0.00  0.00    +0.000 HD
ENDBRANCH  18  24
ENDBRANCH   1  18
TORSDOF 3
ENDMDL
MODEL 5
REMARK VINA RESULT:      -8.3      6.739      9.123
REMARK  Name = 
REMARK  3 active torsions:
REMARK  status: ('A' for Active; 'I' for Inactive)
REMARK    1  A    between atoms: C_6  and  C_7
REMARK    2  A    between atoms: C_7  and  N_8
REMARK    3  A    between atoms: N_11  and  C_12
REMARK                            x       y       z     vdW  Elec       q    Type
REMARK                         _______ _______ _______ _____ _____    ______ ____
ROOT
ATOM      1  N   UNL     1       8.404   8.418  18.255  0.00  0.00    +0.000 N 
ATOM      2  C   UNL     1       8.098   7.111  18.539  0.00  0.00    +0.000 C 
ATOM      3  O   UNL     1       8.381   6.550  19.586  0.00  0.00    +0.000 OA
ATOM      4  N   UNL     1       7.464   6.509  17.483  0.00  0.00    +0.000 N 
ATOM      5  H   UNL     1       8.226   8.763  17.325  0.00  0.00    +0.000 HD
ATOM      6  H   UNL     1       7.008   7.112  16.821  0.00  0.00    +0.000 HD
ENDROOT
BRANCH   4   7
ATOM      7  C   UNL     1       7.040   5.112  17.483  0.00  0.00    +0.000 C 
ATOM      8  C   UNL     1       7.254   4.395  16.138  0.00  0.00    +0.000 C 
ATOM      9  C   UNL     1       6.792   5.159  14.895  0.00  0.00    +0.000 C 
ATOM     10  C   UNL     1       5.294   5.447  14.815  0.00  0.00    +0.000 C 
ATOM     11  C   UNL     1       4.763   6.357  15.921  0.00  0.00    +0.000 C 
ATOM     12  C   UNL     1       4.529   5.600  17.207  0.00  0.00    +0.000 A 
ATOM     13  C   UNL     1       3.207   5.446  17.661  0.00  0.00    +0.000 A 
ATOM     14  C   UNL     1       2.919   4.669  18.781  0.00  0.00    +0.000 A 
ATOM     15  C   UNL     1       3.951   4.043  19.470  0.00  0.00    +0.000 A 
ATOM     16  C   UNL     1       5.273   4.211  19.050  0.00  0.00    +0.000 A 
ATOM     17  C   UNL     1       5.584   4.994  17.922  0.00  0.00    +0.000 A 
ENDBRANCH   4   7
BRANCH   1  18
ATOM     18  C   UNL     1       9.099   9.292  19.179  0.00  0.00    +0.000 C 
BRANCH  18  24
ATOM     19  O   UNL     1      12.160  15.622  17.028  0.00  0.00    +0.000 OA
ATOM     20  C   UNL     1      11.513  14.633  17.326  0.00  0.00    +0.000 C 
ATOM     21  C   UNL     1      12.008  13.411  18.109  0.00  0.00    +0.000 C 
ATOM     22  C   UNL     1      10.782  12.547  18.167  0.00  0.00    +0.000 A 
ATOM     23  C   UNL     1      10.594  11.299  18.742  0.00  0.00    +0.000 A 
ATOM     24  C   UNL     1       9.330  10.687  18.634  0.00  0.00    +0.000 A 
ATOM     25  C   UNL     1       8.292  11.362  17.945  0.00  0.00    +0.000 A 
ATOM     26  C   UNL     1       8.492  12.624  17.371  0.00  0.00    +0.000 A 
ATOM     27  C   UNL     1       9.741  13.186  17.498  0.00  0.00    +0.000 A 
ATOM     28  N   UNL     1      10.176  14.407  17.010  0.00  0.00    +0.000 N 
ATOM     29  H   UNL     1       9.621  15.069  16.487  0.00  0.00    +0.000 HD
ENDBRANCH  18  24
ENDBRANCH   1  18
TORSDOF 3
ENDMDL
MODEL 6
REMARK VINA RESULT:      -8.1      1.776      3.403
REMARK  Name = 
REMARK  3 active torsions:
REMARK  status: ('A' for Active; 'I' for Inactive)
REMARK    1  A    between atoms: C_6  and  C_7
REMARK    2  A    between atoms: C_7  and  N_8
REMARK    3  A    between atoms: N_11  and  C_12
REMARK                            x       y       z     vdW  Elec       q    Type
REMARK                         _______ _______ _______ _____ _____    ______ ____
ROOT
ATOM      1  N   UNL     1       1.477   9.049  19.172  0.00  0.00    +0.000 N 
ATOM      2  C   UNL     1       2.075   8.304  18.188  0.00  0.00    +0.000 C 
ATOM      3  O   UNL     1       2.567   8.772  17.174  0.00  0.00    +0.000 OA
ATOM      4  N   UNL     1       2.015   6.964  18.474  0.00  0.00    +0.000 N 
ATOM      5  H   UNL     1       1.004   8.568  19.920  0.00  0.00    +0.000 HD
ATOM      6  H   UNL     1       1.885   6.710  19.437  0.00  0.00    +0.000 HD
ENDROOT
BRANCH   4   7
ATOM      7  C   UNL     1       2.545   5.925  17.597  0.00  0.00    +0.000 C 
ATOM      8  C   UNL     1       1.806   4.578  17.707  0.00  0.00    +0.000 C 
ATOM      9  C   UNL     1       1.538   4.081  19.130  0.00  0.00    +0.000 C 
ATOM     10  C   UNL     1       2.778   3.781  19.969  0.00  0.00    +0.000 C 
ATOM     11  C   UNL     1       3.659   4.994  20.255  0.00  0.00    +0.000 C 
ATOM     12  C   UNL     1       4.556   5.326  19.085  0.00  0.00    +0.000 A 
ATOM     13  C   UNL     1       5.944   5.158  19.238  0.00  0.00    +0.000 A 
ATOM     14  C   UNL     1       6.811   5.345  18.163  0.00  0.00    +0.000 A 
ATOM     15  C   UNL     1       6.304   5.712  16.923  0.00  0.00    +0.000 A 
ATOM     16  C   UNL     1       4.931   5.913  16.763  0.00  0.00    +0.000 A 
ATOM     17  C   UNL     1       4.038   5.731  17.836  0.00  0.00    +0.000 A 
ENDBRANCH   4   7
BRANCH   1  18
ATOM     18  C   UNL     1       1.370  10.494  19.123  0.00  0.00    +0.000 C 
BRANCH  18  24
ATOM     19  O   UNL     1      -5.790  11.109  17.564  0.00  0.00    +0.000 OA
ATOM     20  C   UNL     1      -4.619  11.149  17.901  0.00  0.00    +0.000 C 
ATOM     21  C   UNL     1      -3.512  10.167  17.498  0.00  0.00    +0.000 C 
ATOM     22  C   UNL     1      -2.311  10.730  18.201  0.00  0.00    +0.000 A 
ATOM     23  C   UNL     1      -1.000  10.280  18.231  0.00  0.00    +0.000 A 
ATOM     24  C   UNL     1      -0.056  10.991  18.998  0.00  0.00    +0.000 A 
ATOM     25  C   UNL     1      -0.472  12.141  19.713  0.00  0.00    +0.000 A 
ATOM     26  C   UNL     1      -1.800  12.590  19.673  0.00  0.00    +0.000 A 
ATOM     27  C   UNL     1      -2.689  11.866  18.913  0.00  0.00    +0.000 A 
ATOM     28  N   UNL     1      -4.041  12.106  18.731  0.00  0.00    +0.000 N 
ATOM     29  H   UNL     1      -4.569  12.865  19.135  0.00  0.00    +0.000 HD
ENDBRANCH  18  24
ENDBRANCH   1  18
TORSDOF 3
ENDMDL
MODEL 7
REMARK VINA RESULT:      -8.0      1.778      3.555
REMARK  Name = 
REMARK  3 active torsions:
REMARK  status: ('A' for Active; 'I' for Inactive)
REMARK    1  A    between atoms: C_6  and  C_7
REMARK    2  A    between atoms: C_7  and  N_8
REMARK    3  A    between atoms: N_11  and  C_12
REMARK                            x       y       z     vdW  Elec       q    Type
REMARK                         _______ _______ _______ _____ _____    ______ ____
ROOT
ATOM      1  N   UNL     1       1.642   7.827  20.437  0.00  0.00    +0.000 N 
ATOM      2  C   UNL     1       2.300   7.647  19.247  0.00  0.00    +0.000 C 
ATOM      3  O   UNL     1       2.607   8.550  18.487  0.00  0.00    +0.000 OA
ATOM      4  N   UNL     1       2.536   6.317  19.007  0.00  0.00    +0.000 N 
ATOM      5  H   UNL     1       1.336   7.013  20.946  0.00  0.00    +0.000 HD
ATOM      6  H   UNL     1       2.535   5.703  19.802  0.00  0.00    +0.000 HD
ENDROOT
BRANCH   4   7
ATOM      7  C   UNL     1       3.196   5.816  17.805  0.00  0.00    +0.000 C 
ATOM      8  C   UNL     1       2.793   4.380  17.424  0.00  0.00    +0.000 C 
ATOM      9  C   UNL     1       2.786   3.365  18.569  0.00  0.00    +0.000 C 
ATOM     10  C   UNL     1       4.139   3.103  19.227  0.00  0.00    +0.000 C 
ATOM     11  C   UNL     1       4.750   4.315  19.927  0.00  0.00    +0.000 C 
ATOM     12  C   UNL     1       5.428   5.246  18.949  0.00  0.00    +0.000 A 
ATOM     13  C   UNL     1       6.826   5.382  19.015  0.00  0.00    +0.000 A 
ATOM     14  C   UNL     1       7.518   6.141  18.073  0.00  0.00    +0.000 A 
ATOM     15  C   UNL     1       6.820   6.784  17.059  0.00  0.00    +0.000 A 
ATOM     16  C   UNL     1       5.428   6.685  16.998  0.00  0.00    +0.000 A 
ATOM     17  C   UNL     1       4.710   5.924  17.941  0.00  0.00    +0.000 A 
ENDBRANCH   4   7
BRANCH   1  18
ATOM     18  C   UNL     1       1.241   9.127  20.936  0.00  0.00    +0.000 C 
BRANCH  18  24
ATOM     19  O   UNL     1      -3.920  11.515  16.274  0.00  0.00    +0.000 OA
ATOM     20  C   UNL     1      -2.988  11.261  17.017  0.00  0.00    +0.000 C 
ATOM     21  C   UNL     1      -2.743   9.945  17.768  0.00  0.00    +0.000 C 
ATOM     22  C   UNL     1      -1.462  10.226  18.498  0.00  0.00    +0.000 A 
ATOM     23  C   UNL     1      -0.727   9.421  19.356  0.00  0.00    +0.000 A 
ATOM     24  C   UNL     1       0.448   9.941  19.934  0.00  0.00    +0.000 A 
ATOM     25  C   UNL     1       0.843  11.266  19.623  0.00  0.00    +0.000 A 
ATOM     26  C   UNL     1       0.094  12.070  18.752  0.00  0.00    +0.000 A 
ATOM     27  C   UNL     1      -1.046  11.524  18.210  0.00  0.00    +0.000 A 
ATOM     28  N   UNL     1      -1.943  12.122  17.342  0.00  0.00    +0.000 N 
ATOM     29  H   UNL     1      -1.879  13.061  16.975  0.00  0.00    +0.000 HD
ENDBRANCH  18  24
ENDBRANCH   1  18
TORSDOF 3
ENDMDL
MODEL 8
REMARK VINA RESULT:      -7.9      3.070      3.842
REMARK  Name = 
REMARK  3 active torsions:
REMARK  status: ('A' for Active; 'I' for Inactive)
REMARK    1  A    between atoms: C_6  and  C_7
REMARK    2  A    between atoms: C_7  and  N_8
REMARK    3  A    between atoms: N_11  and  C_12
REMARK                            x       y       z     vdW  Elec       q    Type
REMARK                         _______ _______ _______ _____ _____    ______ ____
ROOT
ATOM      1  N   UNL     1       1.245   8.837  18.726  0.00  0.00    +0.000 N 
ATOM      2  C   UNL     1       1.855   7.958  19.584  0.00  0.00    +0.000 C 
ATOM      3  O   UNL     1       1.743   7.994  20.799  0.00  0.00    +0.000 OA
ATOM      4  N   UNL     1       2.633   7.058  18.902  0.00  0.00    +0.000 N 
ATOM      5  H   UNL     1       1.480   8.796  17.747  0.00  0.00    +0.000 HD
ATOM      6  H   UNL     1       2.417   6.912  17.932  0.00  0.00    +0.000 HD
ENDROOT
BRANCH   4   7
ATOM      7  C   UNL     1       3.425   6.018  19.551  0.00  0.00    +0.000 C 
ATOM      8  C   UNL     1       4.641   5.554  18.728  0.00  0.00    +0.000 C 
ATOM      9  C   UNL     1       4.371   5.265  17.250  0.00  0.00    +0.000 C 
ATOM     10  C   UNL     1       3.398   4.122  16.967  0.00  0.00    +0.000 C 
ATOM     11  C   UNL     1       1.977   4.360  17.472  0.00  0.00    +0.000 C 
ATOM     12  C   UNL     1       1.851   4.075  18.950  0.00  0.00    +0.000 A 
ATOM     13  C   UNL     1       1.064   2.983  19.356  0.00  0.00    +0.000 A 
ATOM     14  C   UNL     1       0.996   2.606  20.696  0.00  0.00    +0.000 A 
ATOM     15  C   UNL     1       1.706   3.323  21.651  0.00  0.00    +0.000 A 
ATOM     16  C   UNL     1       2.467   4.430  21.268  0.00  0.00    +0.000 A 
ATOM     17  C   UNL     1       2.548   4.828  19.920  0.00  0.00    +0.000 A 
ENDBRANCH   4   7
BRANCH   1  18
ATOM     18  C   UNL     1       0.381   9.913  19.169  0.00  0.00    +0.000 C 
BRANCH  18  24
ATOM     19  O   UNL     1       1.387  17.185  18.751  0.00  0.00    +0.000 OA
ATOM     20  C   UNL     1       1.362  15.966  18.739  0.00  0.00    +0.000 C 
ATOM     21  C   UNL     1       0.228  15.066  19.246  0.00  0.00    +0.000 C 
ATOM     22  C   UNL     1       0.760  13.691  18.964  0.00  0.00    +0.000 A 
ATOM     23  C   UNL     1       0.195  12.447  19.203  0.00  0.00    +0.000 A 
ATOM     24  C   UNL     1       0.924  11.293  18.856  0.00  0.00    +0.000 A 
ATOM     25  C   UNL     1       2.208  11.436  18.274  0.00  0.00    +0.000 A 
ATOM     26  C   UNL     1       2.769  12.698  18.034  0.00  0.00    +0.000 A 
ATOM     27  C   UNL     1       2.024  13.798  18.387  0.00  0.00    +0.000 A 
ATOM     28  N   UNL     1       2.368  15.133  18.258  0.00  0.00    +0.000 N 
ATOM     29  H   UNL     1       3.230  15.489  17.871  0.00  0.00    +0.000 HD
ENDBRANCH  18  24
ENDBRANCH   1  18
TORSDOF 3
ENDMDL
MODEL 9
REMARK VINA RESULT:      -7.9      1.980      3.870
REMARK  Name = 
REMARK  3 active torsions:
REMARK  status: ('A' for Active; 'I' for Inactive)
REMARK    1  A    between atoms: C_6  and  C_7
REMARK    2  A    between atoms: C_7  and  N_8
REMARK    3  A    between atoms: N_11  and  C_12
REMARK                            x       y       z     vdW  Elec       q    Type
REMARK                         _______ _______ _______ _____ _____    ______ ____
ROOT
ATOM      1  N   UNL     1       1.457   8.837  19.396  0.00  0.00    +0.000 N 
ATOM      2  C   UNL     1       2.084   8.230  18.338  0.00  0.00    +0.000 C 
ATOM      3  O   UNL     1       2.463   8.813  17.336  0.00  0.00    +0.000 OA
ATOM      4  N   UNL     1       2.198   6.878  18.540  0.00  0.00    +0.000 N 
ATOM      5  H   UNL     1       1.085   8.258  20.132  0.00  0.00    +0.000 HD
ATOM      6  H   UNL     1       2.151   6.553  19.489  0.00  0.00    +0.000 HD
ENDROOT
BRANCH   4   7
ATOM      7  C   UNL     1       2.799   5.963  17.573  0.00  0.00    +0.000 C 
ATOM      8  C   UNL     1       2.158   4.564  17.556  0.00  0.00    +0.000 C 
ATOM      9  C   UNL     1       1.929   3.920  18.925  0.00  0.00    +0.000 C 
ATOM     10  C   UNL     1       3.189   3.632  19.738  0.00  0.00    +0.000 C 
ATOM     11  C   UNL     1       3.983   4.874  20.139  0.00  0.00    +0.000 C 
ATOM     12  C   UNL     1       4.851   5.375  19.008  0.00  0.00    +0.000 A 
ATOM     13  C   UNL     1       6.248   5.293  19.151  0.00  0.00    +0.000 A 
ATOM     14  C   UNL     1       7.097   5.639  18.102  0.00  0.00    +0.000 A 
ATOM     15  C   UNL     1       6.562   6.082  16.898  0.00  0.00    +0.000 A 
ATOM     16  C   UNL     1       5.177   6.199  16.751  0.00  0.00    +0.000 A 
ATOM     17  C   UNL     1       4.302   5.856  17.800  0.00  0.00    +0.000 A 
ENDBRANCH   4   7
BRANCH   1  18
ATOM     18  C   UNL     1       1.178  10.258  19.446  0.00  0.00    +0.000 C 
BRANCH  18  24
ATOM     19  O   UNL     1      -5.558  13.207  19.435  0.00  0.00    +0.000 OA
ATOM     20  C   UNL     1      -4.488  12.638  19.302  0.00  0.00    +0.000 C 
ATOM     21  C   UNL     1      -3.294  12.690  20.263  0.00  0.00    +0.000 C 
ATOM     22  C   UNL     1      -2.294  11.802  19.582  0.00  0.00    +0.000 A 
ATOM     23  C   UNL     1      -1.006  11.452  19.958  0.00  0.00    +0.000 A 
ATOM     24  C   UNL     1      -0.259  10.605  19.115  0.00  0.00    +0.000 A 
ATOM     25  C   UNL     1      -0.844  10.138  17.913  0.00  0.00    +0.000 A 
ATOM     26  C   UNL     1      -2.148  10.495  17.543  0.00  0.00    +0.000 A 
ATOM     27  C   UNL     1      -2.842  11.323  18.394  0.00  0.00    +0.000 A 
ATOM     28  N   UNL     1      -4.127  11.816  18.238  0.00  0.00    +0.000 N 
ATOM     29  H   UNL     1      -4.747  11.624  17.465  0.00  0.00    +0.000 HD
ENDBRANCH  18  24
ENDBRANCH   1  18
TORSDOF 3
ENDMDL
