MODEL 1
REMARK VINA RESULT:      -8.0      0.000      0.000
REMARK  Name = 
REMARK  9 active torsions:
REMARK  status: ('A' for Active; 'I' for Inactive)
REMARK    1  A    between atoms: C_1  and  C_2
REMARK    2  A    between atoms: C_4  and  C_5
REMARK    3  A    between atoms: N_6  and  C_7
REMARK    4  A    between atoms: C_10  and  O_11
REMARK    5  A    between atoms: O_11  and  C_12
REMARK    6  A    between atoms: N_20  and  C_21
REMARK    7  A    between atoms: C_21  and  C_22
REMARK    8  A    between atoms: C_21  and  C_23
REMARK    9  A    between atoms: C_21  and  C_24
REMARK                            x       y       z     vdW  Elec       q    Type
REMARK                         _______ _______ _______ _____ _____    ______ ____
ROOT
ATOM      1  O   UNL     1      -0.022  10.936  18.963  0.00  0.00    +0.000 OA
ENDROOT
BRANCH   1   2
ATOM      2  C   UNL     1      -1.277  10.849  18.387  0.00  0.00    +0.000 A 
ATOM      3  N   UNL     1      -1.477  10.078  17.288  0.00  0.00    +0.000 NA
ATOM      4  C   UNL     1      -2.732   9.901  16.858  0.00  0.00    +0.000 A 
ATOM      5  N   UNL     1      -3.839  10.466  17.352  0.00  0.00    +0.000 NA
ATOM      6  C   UNL     1      -3.577  11.305  18.370  0.00  0.00    +0.000 A 
ATOM      7  C   UNL     1      -2.339  11.544  18.939  0.00  0.00    +0.000 A 
ATOM      8  C   UNL     1      -2.585  12.453  19.977  0.00  0.00    +0.000 A 
ATOM      9  N   UNL     1      -3.874  12.811  20.049  0.00  0.00    +0.000 NA
ATOM     10  N   UNL     1      -4.459  12.109  19.039  0.00  0.00    +0.000 N 
BRANCH  10  11
ATOM     11  C   UNL     1      -5.871  12.312  18.673  0.00  0.00    +0.000 C 
ATOM     12  C   UNL     1      -6.715  11.051  18.958  0.00  0.00    +0.000 C 
ATOM     13  C   UNL     1      -6.456  13.472  19.503  0.00  0.00    +0.000 C 
ATOM     14  C   UNL     1      -5.991  12.630  17.169  0.00  0.00    +0.000 C 
ENDBRANCH  10  11
ENDBRANCH   1   2
BRANCH   1  18
ATOM     15  C   UNL     1       2.291   7.473  19.197  0.00  0.00    +0.000 A 
ATOM     16  C   UNL     1       1.611   7.991  20.307  0.00  0.00    +0.000 A 
ATOM     17  C   UNL     1       0.835   9.142  20.195  0.00  0.00    +0.000 A 
ATOM     18  C   UNL     1       0.744   9.794  18.972  0.00  0.00    +0.000 A 
ATOM     19  C   UNL     1       1.389   9.269  17.850  0.00  0.00    +0.000 A 
ATOM     20  C   UNL     1       2.199   8.140  17.966  0.00  0.00    +0.000 A 
BRANCH  15  26
ATOM     21  C   UNL     1       6.151   4.690  18.468  0.00  0.00    +0.000 C 
ATOM     22  C   UNL     1       4.805   5.066  18.958  0.00  0.00    +0.000 A 
ATOM     23  C   UNL     1       3.918   4.299  19.731  0.00  0.00    +0.000 A 
ATOM     24  C   UNL     1       2.797   5.084  19.898  0.00  0.00    +0.000 A 
ATOM     25  C   UNL     1       1.498   4.709  20.511  0.00  0.00    +0.000 C 
ATOM     26  N   UNL     1       3.079   6.296  19.276  0.00  0.00    +0.000 N 
ATOM     27  N   UNL     1       4.283   6.252  18.645  0.00  0.00    +0.000 NA
ENDBRANCH  15  26
ENDBRANCH   1  18
TORSDOF 4
ENDMDL
MODEL 2
REMARK VINA RESULT:      -7.8      0.888      1.275
REMARK  Name = 
REMARK  9 active torsions:
REMARK  status: ('A' for Active; 'I' for Inactive)
REMARK    1  A    between atoms: C_1  and  C_2
REMARK    2  A    between atoms: C_4  and  C_5
REMARK    3  A    between atoms: N_6  and  C_7
REMARK    4  A    between atoms: C_10  and  O_11
REMARK    5  A    between atoms: O_11  and  C_12
REMARK    6  A    between atoms: N_20  and  C_21
REMARK    7  A    between atoms: C_21  and  C_22
REMARK    8  A    between atoms: C_21  and  C_23
REMARK    9  A    between atoms: C_21  and  C_24
REMARK                            x       y       z     vdW  Elec       q    Type
REMARK                         _______ _______ _______ _____ _____    ______ ____
ROOT
ATOM      1  O   UNL     1       0.303  10.726  19.118  0.00  0.00    +0.000 OA
ENDROOT
BRANCH   1   2
ATOM      2  C   UNL     1      -0.963  10.691  18.560  0.00  0.00    +0.000 A 
ATOM      3  N   UNL     1      -1.215   9.914  17.476  0.00  0.00    +0.000 NA
ATOM      4  C   UNL     1      -2.483   9.791  17.066  0.00  0.00    +0.000 A 
ATOM      5  N   UNL     1      -3.554  10.416  17.566  0.00  0.00    +0.000 NA
ATOM      6  C   UNL     1      -3.238  11.257  18.566  0.00  0.00    +0.000 A 
ATOM      7  C   UNL     1      -1.983  11.444  19.116  0.00  0.00    +0.000 A 
ATOM      8  C   UNL     1      -2.170  12.380  20.142  0.00  0.00    +0.000 A 
ATOM      9  N   UNL     1      -3.440  12.800  20.225  0.00  0.00    +0.000 NA
ATOM     10  N   UNL     1      -4.072  12.112  19.234  0.00  0.00    +0.000 N 
BRANCH  10  11
ATOM     11  C   UNL     1      -5.477  12.377  18.883  0.00  0.00    +0.000 C 
ATOM     12  C   UNL     1      -6.403  11.240  19.366  0.00  0.00    +0.000 C 
ATOM     13  C   UNL     1      -5.938  13.684  19.560  0.00  0.00    +0.000 C 
ATOM     14  C   UNL     1      -5.631  12.495  17.354  0.00  0.00    +0.000 C 
ENDBRANCH  10  11
ENDBRANCH   1   2
BRANCH   1  18
ATOM     15  C   UNL     1       2.662   7.338  18.533  0.00  0.00    +0.000 A 
ATOM     16  C   UNL     1       2.507   8.316  17.543  0.00  0.00    +0.000 A 
ATOM     17  C   UNL     1       1.723   9.445  17.772  0.00  0.00    +0.000 A 
ATOM     18  C   UNL     1       1.075   9.596  18.991  0.00  0.00    +0.000 A 
ATOM     19  C   UNL     1       1.249   8.643  19.999  0.00  0.00    +0.000 A 
ATOM     20  C   UNL     1       2.000   7.493  19.760  0.00  0.00    +0.000 A 
BRANCH  15  26
ATOM     21  C   UNL     1       6.743   4.804  18.200  0.00  0.00    +0.000 C 
ATOM     22  C   UNL     1       5.283   5.060  18.198  0.00  0.00    +0.000 A 
ATOM     23  C   UNL     1       4.241   4.134  18.030  0.00  0.00    +0.000 A 
ATOM     24  C   UNL     1       3.077   4.871  18.081  0.00  0.00    +0.000 A 
ATOM     25  C   UNL     1       1.690   4.416  17.815  0.00  0.00    +0.000 C 
ATOM     26  N   UNL     1       3.464   6.183  18.333  0.00  0.00    +0.000 N 
ATOM     27  N   UNL     1       4.819   6.302  18.335  0.00  0.00    +0.000 NA
ENDBRANCH  15  26
ENDBRANCH   1  18
TORSDOF 4
ENDMDL
MODEL 3
REMARK VINA RESULT:      -7.7      0.695      1.716
REMARK  Name = 
REMARK  9 active torsions:
REMARK  status: ('A' for Active; 'I' for Inactive)
REMARK    1  A    between atoms: C_1  and  C_2
REMARK    2  A    between atoms: C_4  and  C_5
REMARK    3  A    between atoms: N_6  and  C_7
REMARK    4  A    between atoms: C_10  and  O_11
REMARK    5  A    between atoms: O_11  and  C_12
REMARK    6  A    between atoms: N_20  and  C_21
REMARK    7  A    between atoms: C_21  and  C_22
REMARK    8  A    between atoms: C_21  and  C_23
REMARK    9  A    between atoms: C_21  and  C_24
REMARK                            x       y       z     vdW  Elec       q    Type
REMARK                         _______ _______ _______ _____ _____    ______ ____
ROOT
ATOM      1  O   UNL     1       0.194  10.871  18.864  0.00  0.00    +0.000 OA
ENDROOT
BRANCH   1   2
ATOM      2  C   UNL     1      -1.086  10.772  18.349  0.00  0.00    +0.000 A 
ATOM      3  N   UNL     1      -1.337   9.973  17.282  0.00  0.00    +0.000 NA
ATOM      4  C   UNL     1      -2.611   9.787  16.915  0.00  0.00    +0.000 A 
ATOM      5  N   UNL     1      -3.693  10.369  17.444  0.00  0.00    +0.000 NA
ATOM      6  C   UNL     1      -3.383  11.234  18.425  0.00  0.00    +0.000 A 
ATOM      7  C   UNL     1      -2.120  11.485  18.931  0.00  0.00    +0.000 A 
ATOM      8  C   UNL     1      -2.316  12.423  19.953  0.00  0.00    +0.000 A 
ATOM      9  N   UNL     1      -3.600  12.786  20.075  0.00  0.00    +0.000 NA
ATOM     10  N   UNL     1      -4.233  12.059  19.112  0.00  0.00    +0.000 N 
BRANCH  10  11
ATOM     11  C   UNL     1      -5.660  12.256  18.806  0.00  0.00    +0.000 C 
ATOM     12  C   UNL     1      -6.485  10.990  19.125  0.00  0.00    +0.000 C 
ATOM     13  C   UNL     1      -6.214  13.412  19.662  0.00  0.00    +0.000 C 
ATOM     14  C   UNL     1      -5.844  12.575  17.309  0.00  0.00    +0.000 C 
ENDBRANCH  10  11
ENDBRANCH   1   2
BRANCH   1  18
ATOM     15  C   UNL     1       2.412   7.341  18.977  0.00  0.00    +0.000 A 
ATOM     16  C   UNL     1       2.298   8.111  17.812  0.00  0.00    +0.000 A 
ATOM     17  C   UNL     1       1.561   9.293  17.808  0.00  0.00    +0.000 A 
ATOM     18  C   UNL     1       0.920   9.708  18.968  0.00  0.00    +0.000 A 
ATOM     19  C   UNL     1       1.054   8.966  20.145  0.00  0.00    +0.000 A 
ATOM     20  C   UNL     1       1.756   7.762  20.144  0.00  0.00    +0.000 A 
BRANCH  15  26
ATOM     21  C   UNL     1       3.479   2.843  20.323  0.00  0.00    +0.000 C 
ATOM     22  C   UNL     1       3.628   4.133  19.610  0.00  0.00    +0.000 A 
ATOM     23  C   UNL     1       4.613   4.499  18.678  0.00  0.00    +0.000 A 
ATOM     24  C   UNL     1       4.328   5.802  18.330  0.00  0.00    +0.000 A 
ATOM     25  C   UNL     1       5.133   6.724  17.490  0.00  0.00    +0.000 C 
ATOM     26  N   UNL     1       3.166   6.139  19.015  0.00  0.00    +0.000 N 
ATOM     27  N   UNL     1       2.782   5.135  19.849  0.00  0.00    +0.000 NA
ENDBRANCH  15  26
ENDBRANCH   1  18
TORSDOF 4
ENDMDL
MODEL 4
REMARK VINA RESULT:      -7.7      1.219      2.717
REMARK  Name = 
REMARK  9 active torsions:
REMARK  status: ('A' for Active; 'I' for Inactive)
REMARK    1  A    between atoms: C_1  and  C_2
REMARK    2  A    between atoms: C_4  and  C_5
REMARK    3  A    between atoms: N_6  and  C_7
REMARK    4  A    between atoms: C_10  and  O_11
REMARK    5  A    between atoms: O_11  and  C_12
REMARK    6  A    between atoms: N_20  and  C_21
REMARK    7  A    between atoms: C_21  and  C_22
REMARK    8  A    between atoms: C_21  and  C_23
REMARK    9  A    between atoms: C_21  and  C_24
REMARK                            x       y       z     vdW  Elec       q    Type
REMARK                         _______ _______ _______ _____ _____    ______ ____
ROOT
ATOM      1  O   UNL     1       0.856  11.105  18.568  0.00  0.00    +0.000 OA
ENDROOT
BRANCH   1   2
ATOM      2  C   UNL     1      -0.351  11.565  19.065  0.00  0.00    +0.000 A 
ATOM      3  N   UNL     1      -0.386  12.317  20.194  0.00  0.00    +0.000 NA
ATOM      4  C   UNL     1      -1.553  12.870  20.551  0.00  0.00    +0.000 A 
ATOM      5  N   UNL     1      -2.737  12.705  19.952  0.00  0.00    +0.000 NA
ATOM      6  C   UNL     1      -2.670  11.865  18.904  0.00  0.00    +0.000 A 
ATOM      7  C   UNL     1      -1.529  11.266  18.403  0.00  0.00    +0.000 A 
ATOM      8  C   UNL     1      -1.963  10.522  17.298  0.00  0.00    +0.000 A 
ATOM      9  N   UNL     1      -3.289  10.597  17.120  0.00  0.00    +0.000 NA
ATOM     10  N   UNL     1      -3.704  11.410  18.130  0.00  0.00    +0.000 N 
BRANCH  10  11
ATOM     11  C   UNL     1      -5.132  11.654  18.391  0.00  0.00    +0.000 C 
ATOM     12  C   UNL     1      -5.337  12.495  19.669  0.00  0.00    +0.000 C 
ATOM     13  C   UNL     1      -5.745  12.431  17.208  0.00  0.00    +0.000 C 
ATOM     14  C   UNL     1      -5.875  10.316  18.582  0.00  0.00    +0.000 C 
ENDBRANCH  10  11
ENDBRANCH   1   2
BRANCH   1  18
ATOM     15  C   UNL     1       2.061   7.223  19.503  0.00  0.00    +0.000 A 
ATOM     16  C   UNL     1       2.178   7.748  18.209  0.00  0.00    +0.000 A 
ATOM     17  C   UNL     1       1.779   9.053  17.930  0.00  0.00    +0.000 A 
ATOM     18  C   UNL     1       1.246   9.840  18.942  0.00  0.00    +0.000 A 
ATOM     19  C   UNL     1       1.156   9.340  20.244  0.00  0.00    +0.000 A 
ATOM     20  C   UNL     1       1.516   8.022  20.519  0.00  0.00    +0.000 A 
BRANCH  15  26
ATOM     21  C   UNL     1       1.756   2.888  21.576  0.00  0.00    +0.000 C 
ATOM     22  C   UNL     1       2.322   3.971  20.738  0.00  0.00    +0.000 A 
ATOM     23  C   UNL     1       3.480   3.937  19.944  0.00  0.00    +0.000 A 
ATOM     24  C   UNL     1       3.587   5.194  19.389  0.00  0.00    +0.000 A 
ATOM     25  C   UNL     1       4.703   5.750  18.583  0.00  0.00    +0.000 C 
ATOM     26  N   UNL     1       2.470   5.902  19.821  0.00  0.00    +0.000 N 
ATOM     27  N   UNL     1       1.737   5.168  20.701  0.00  0.00    +0.000 NA
ENDBRANCH  15  26
ENDBRANCH   1  18
TORSDOF 4
ENDMDL
MODEL 5
REMARK VINA RESULT:      -7.6      3.125      4.920
REMARK  Name = 
REMARK  9 active torsions:
REMARK  status: ('A' for Active; 'I' for Inactive)
REMARK    1  A    between atoms: C_1  and  C_2
REMARK    2  A    between atoms: C_4  and  C_5
REMARK    3  A    between atoms: N_6  and  C_7
REMARK    4  A    between atoms: C_10  and  O_11
REMARK    5  A    between atoms: O_11  and  C_12
REMARK    6  A    between atoms: N_20  and  C_21
REMARK    7  A    between atoms: C_21  and  C_22
REMARK    8  A    between atoms: C_21  and  C_23
REMARK    9  A    between atoms: C_21  and  C_24
REMARK                            x       y       z     vdW  Elec       q    Type
REMARK                         _______ _______ _______ _____ _____    ______ ____
ROOT
ATOM      1  O   UNL     1       2.005   7.218  19.846  0.00  0.00    +0.000 OA
ENDROOT
BRANCH   1   2
ATOM      2  C   UNL     1       1.438   8.457  19.601  0.00  0.00    +0.000 A 
ATOM      3  N   UNL     1       1.349   8.933  18.334  0.00  0.00    +0.000 NA
ATOM      4  C   UNL     1       0.656  10.060  18.128  0.00  0.00    +0.000 A 
ATOM      5  N   UNL     1       0.086  10.834  19.056  0.00  0.00    +0.000 NA
ATOM      6  C   UNL     1       0.295  10.379  20.304  0.00  0.00    +0.000 A 
ATOM      7  C   UNL     1       0.949   9.211  20.653  0.00  0.00    +0.000 A 
ATOM      8  C   UNL     1       0.875   9.157  22.052  0.00  0.00    +0.000 A 
ATOM      9  N   UNL     1       0.260  10.226  22.574  0.00  0.00    +0.000 NA
ATOM     10  N   UNL     1      -0.069  10.972  21.483  0.00  0.00    +0.000 N 
BRANCH  10  11
ATOM     11  C   UNL     1      -0.652  12.319  21.613  0.00  0.00    +0.000 C 
ATOM     12  C   UNL     1      -1.800  12.536  20.604  0.00  0.00    +0.000 C 
ATOM     13  C   UNL     1      -1.228  12.494  23.032  0.00  0.00    +0.000 C 
ATOM     14  C   UNL     1       0.422  13.392  21.346  0.00  0.00    +0.000 C 
ENDBRANCH  10  11
ENDBRANCH   1   2
BRANCH   1  18
ATOM     15  C   UNL     1       4.511   5.492  16.995  0.00  0.00    +0.000 A 
ATOM     16  C   UNL     1       3.649   4.726  17.790  0.00  0.00    +0.000 A 
ATOM     17  C   UNL     1       2.814   5.332  18.725  0.00  0.00    +0.000 A 
ATOM     18  C   UNL     1       2.843   6.711  18.882  0.00  0.00    +0.000 A 
ATOM     19  C   UNL     1       3.674   7.490  18.071  0.00  0.00    +0.000 A 
ATOM     20  C   UNL     1       4.540   6.885  17.163  0.00  0.00    +0.000 A 
BRANCH  15  26
ATOM     21  C   UNL     1       5.717   3.658  12.709  0.00  0.00    +0.000 C 
ATOM     22  C   UNL     1       5.898   4.100  14.112  0.00  0.00    +0.000 A 
ATOM     23  C   UNL     1       7.074   4.090  14.880  0.00  0.00    +0.000 A 
ATOM     24  C   UNL     1       6.713   4.574  16.119  0.00  0.00    +0.000 A 
ATOM     25  C   UNL     1       7.534   4.638  17.354  0.00  0.00    +0.000 C 
ATOM     26  N   UNL     1       5.365   4.905  16.025  0.00  0.00    +0.000 N 
ATOM     27  N   UNL     1       4.857   4.548  14.814  0.00  0.00    +0.000 NA
ENDBRANCH  15  26
ENDBRANCH   1  18
TORSDOF 4
ENDMDL
MODEL 6
REMARK VINA RESULT:      -7.6      1.496      9.096
REMARK  Name = 
REMARK  9 active torsions:
REMARK  status: ('A' for Active; 'I' for Inactive)
REMARK    1  A    between atoms: C_1  and  C_2
REMARK    2  A    between atoms: C_4  and  C_5
REMARK    3  A    between atoms: N_6  and  C_7
REMARK    4  A    between atoms: C_10  and  O_11
REMARK    5  A    between atoms: O_11  and  C_12
REMARK    6  A    between atoms: N_20  and  C_21
REMARK    7  A    between atoms: C_21  and  C_22
REMARK    8  A    between atoms: C_21  and  C_23
REMARK    9  A    between atoms: C_21  and  C_24
REMARK                            x       y       z     vdW  Elec       q    Type
REMARK                         _______ _______ _______ _____ _____    ______ ____
ROOT
ATOM      1  O   UNL     1       1.721   9.464  19.606  0.00  0.00    +0.000 OA
ENDROOT
BRANCH   1   2
ATOM      2  C   UNL     1       1.897   8.097  19.733  0.00  0.00    +0.000 A 
ATOM      3  N   UNL     1       1.350   7.429  20.780  0.00  0.00    +0.000 NA
ATOM      4  C   UNL     1       1.413   6.092  20.781  0.00  0.00    +0.000 A 
ATOM      5  N   UNL     1       2.031   5.315  19.885  0.00  0.00    +0.000 NA
ATOM      6  C   UNL     1       2.650   6.028  18.927  0.00  0.00    +0.000 A 
ATOM      7  C   UNL     1       2.626   7.404  18.783  0.00  0.00    +0.000 A 
ATOM      8  C   UNL     1       3.378   7.662  17.629  0.00  0.00    +0.000 A 
ATOM      9  N   UNL     1       3.887   6.546  17.090  0.00  0.00    +0.000 NA
ATOM     10  N   UNL     1       3.444   5.559  17.916  0.00  0.00    +0.000 N 
BRANCH  10  11
ATOM     11  C   UNL     1       3.889   4.163  17.763  0.00  0.00    +0.000 C 
ATOM     12  C   UNL     1       2.710   3.230  17.415  0.00  0.00    +0.000 C 
ATOM     13  C   UNL     1       4.918   4.075  16.617  0.00  0.00    +0.000 C 
ATOM     14  C   UNL     1       4.520   3.658  19.076  0.00  0.00    +0.000 C 
ENDBRANCH  10  11
ENDBRANCH   1   2
BRANCH   1  18
ATOM     15  C   UNL     1      -2.034  10.847  18.433  0.00  0.00    +0.000 A 
ATOM     16  C   UNL     1      -1.485  11.156  19.684  0.00  0.00    +0.000 A 
ATOM     17  C   UNL     1      -0.222  10.690  20.043  0.00  0.00    +0.000 A 
ATOM     18  C   UNL     1       0.497   9.899  19.156  0.00  0.00    +0.000 A 
ATOM     19  C   UNL     1      -0.026   9.612  17.893  0.00  0.00    +0.000 A 
ATOM     20  C   UNL     1      -1.306  10.042  17.545  0.00  0.00    +0.000 A 
BRANCH  15  26
ATOM     21  C   UNL     1      -6.370  12.863  19.003  0.00  0.00    +0.000 C 
ATOM     22  C   UNL     1      -5.236  12.225  18.293  0.00  0.00    +0.000 A 
ATOM     23  C   UNL     1      -5.119  11.946  16.922  0.00  0.00    +0.000 A 
ATOM     24  C   UNL     1      -3.896  11.329  16.771  0.00  0.00    +0.000 A 
ATOM     25  C   UNL     1      -3.331  10.695  15.554  0.00  0.00    +0.000 C 
ATOM     26  N   UNL     1      -3.313  11.317  18.035  0.00  0.00    +0.000 N 
ATOM     27  N   UNL     1      -4.169  11.805  18.972  0.00  0.00    +0.000 NA
ENDBRANCH  15  26
ENDBRANCH   1  18
TORSDOF 4
ENDMDL
MODEL 7
REMARK VINA RESULT:      -7.5      2.207      3.651
REMARK  Name = 
REMARK  9 active torsions:
REMARK  status: ('A' for Active; 'I' for Inactive)
REMARK    1  A    between atoms: C_1  and  C_2
REMARK    2  A    between atoms: C_4  and  C_5
REMARK    3  A    between atoms: N_6  and  C_7
REMARK    4  A    between atoms: C_10  and  O_11
REMARK    5  A    between atoms: O_11  and  C_12
REMARK    6  A    between atoms: N_20  and  C_21
REMARK    7  A    between atoms: C_21  and  C_22
REMARK    8  A    between atoms: C_21  and  C_23
REMARK    9  A    between atoms: C_21  and  C_24
REMARK                            x       y       z     vdW  Elec       q    Type
REMARK                         _______ _______ _______ _____ _____    ______ ____
ROOT
ATOM      1  O   UNL     1       1.214  10.770  18.358  0.00  0.00    +0.000 OA
ENDROOT
BRANCH   1   2
ATOM      2  C   UNL     1       0.058  11.340  18.860  0.00  0.00    +0.000 A 
ATOM      3  N   UNL     1      -1.139  11.106  18.264  0.00  0.00    +0.000 NA
ATOM      4  C   UNL     1      -2.247  11.548  18.872  0.00  0.00    +0.000 A 
ATOM      5  N   UNL     1      -2.314  12.277  19.990  0.00  0.00    +0.000 NA
ATOM      6  C   UNL     1      -1.099  12.575  20.483  0.00  0.00    +0.000 A 
ATOM      7  C   UNL     1       0.118  12.145  19.984  0.00  0.00    +0.000 A 
ATOM      8  C   UNL     1       1.078  12.682  20.853  0.00  0.00    +0.000 A 
ATOM      9  N   UNL     1       0.531  13.436  21.816  0.00  0.00    +0.000 NA
ATOM     10  N   UNL     1      -0.804  13.372  21.556  0.00  0.00    +0.000 N 
BRANCH  10  11
ATOM     11  C   UNL     1      -1.778  14.182  22.307  0.00  0.00    +0.000 C 
ATOM     12  C   UNL     1      -2.897  13.304  22.908  0.00  0.00    +0.000 C 
ATOM     13  C   UNL     1      -1.062  14.899  23.469  0.00  0.00    +0.000 C 
ATOM     14  C   UNL     1      -2.440  15.218  21.377  0.00  0.00    +0.000 C 
ENDBRANCH  10  11
ENDBRANCH   1   2
BRANCH   1  18
ATOM     15  C   UNL     1       2.210   6.882  19.492  0.00  0.00    +0.000 A 
ATOM     16  C   UNL     1       2.435   7.360  18.195  0.00  0.00    +0.000 A 
ATOM     17  C   UNL     1       2.104   8.668  17.849  0.00  0.00    +0.000 A 
ATOM     18  C   UNL     1       1.531   9.506  18.796  0.00  0.00    +0.000 A 
ATOM     19  C   UNL     1       1.333   9.052  20.103  0.00  0.00    +0.000 A 
ATOM     20  C   UNL     1       1.625   7.732  20.443  0.00  0.00    +0.000 A 
BRANCH  15  26
ATOM     21  C   UNL     1       1.548   2.583  21.556  0.00  0.00    +0.000 C 
ATOM     22  C   UNL     1       2.242   3.644  20.789  0.00  0.00    +0.000 A 
ATOM     23  C   UNL     1       3.496   3.580  20.160  0.00  0.00    +0.000 A 
ATOM     24  C   UNL     1       3.700   4.827  19.610  0.00  0.00    +0.000 A 
ATOM     25  C   UNL     1       4.925   5.353  18.957  0.00  0.00    +0.000 C 
ATOM     26  N   UNL     1       2.548   5.559  19.879  0.00  0.00    +0.000 N 
ATOM     27  N   UNL     1       1.690   4.850  20.660  0.00  0.00    +0.000 NA
ENDBRANCH  15  26
ENDBRANCH   1  18
TORSDOF 4
ENDMDL
MODEL 8
REMARK VINA RESULT:      -7.5      2.927      4.431
REMARK  Name = 
REMARK  9 active torsions:
REMARK  status: ('A' for Active; 'I' for Inactive)
REMARK    1  A    between atoms: C_1  and  C_2
REMARK    2  A    between atoms: C_4  and  C_5
REMARK    3  A    between atoms: N_6  and  C_7
REMARK    4  A    between atoms: C_10  and  O_11
REMARK    5  A    between atoms: O_11  and  C_12
REMARK    6  A    between atoms: N_20  and  C_21
REMARK    7  A    between atoms: C_21  and  C_22
REMARK    8  A    between atoms: C_21  and  C_23
REMARK    9  A    between atoms: C_21  and  C_24
REMARK                            x       y       z     vdW  Elec       q    Type
REMARK                         _______ _______ _______ _____ _____    ______ ____
ROOT
ATOM      1  O   UNL     1       1.564   7.520  20.478  0.00  0.00    +0.000 OA
ENDROOT
BRANCH   1   2
ATOM      2  C   UNL     1       1.026   8.774  20.250  0.00  0.00    +0.000 A 
ATOM      3  N   UNL     1       1.213   9.395  19.058  0.00  0.00    +0.000 NA
ATOM      4  C   UNL     1       0.548  10.534  18.826  0.00  0.00    +0.000 A 
ATOM      5  N   UNL     1      -0.245  11.190  19.679  0.00  0.00    +0.000 NA
ATOM      6  C   UNL     1      -0.312  10.593  20.882  0.00  0.00    +0.000 A 
ATOM      7  C   UNL     1       0.284   9.397  21.239  0.00  0.00    +0.000 A 
ATOM      8  C   UNL     1      -0.105   9.178  22.567  0.00  0.00    +0.000 A 
ATOM      9  N   UNL     1      -0.859  10.174  23.049  0.00  0.00    +0.000 NA
ATOM     10  N   UNL     1      -0.955  11.041  22.004  0.00  0.00    +0.000 N 
BRANCH  10  11
ATOM     11  C   UNL     1      -1.597  12.359  22.146  0.00  0.00    +0.000 C 
ATOM     12  C   UNL     1      -2.533  12.400  23.374  0.00  0.00    +0.000 C 
ATOM     13  C   UNL     1      -0.515  13.440  22.338  0.00  0.00    +0.000 C 
ATOM     14  C   UNL     1      -2.443  12.677  20.897  0.00  0.00    +0.000 C 
ENDBRANCH  10  11
ENDBRANCH   1   2
BRANCH   1  18
ATOM     15  C   UNL     1       4.409   5.974  17.850  0.00  0.00    +0.000 A 
ATOM     16  C   UNL     1       4.058   5.318  19.037  0.00  0.00    +0.000 A 
ATOM     17  C   UNL     1       3.094   5.853  19.889  0.00  0.00    +0.000 A 
ATOM     18  C   UNL     1       2.483   7.056  19.566  0.00  0.00    +0.000 A 
ATOM     19  C   UNL     1       2.800   7.704  18.368  0.00  0.00    +0.000 A 
ATOM     20  C   UNL     1       3.792   7.194  17.533  0.00  0.00    +0.000 A 
BRANCH  15  26
ATOM     21  C   UNL     1       6.021   3.815  13.859  0.00  0.00    +0.000 C 
ATOM     22  C   UNL     1       6.090   4.498  15.173  0.00  0.00    +0.000 A 
ATOM     23  C   UNL     1       7.233   4.868  15.898  0.00  0.00    +0.000 A 
ATOM     24  C   UNL     1       6.766   5.444  17.060  0.00  0.00    +0.000 A 
ATOM     25  C   UNL     1       7.545   5.880  18.246  0.00  0.00    +0.000 C 
ATOM     26  N   UNL     1       5.379   5.449  16.956  0.00  0.00    +0.000 N 
ATOM     27  N   UNL     1       4.971   4.806  15.829  0.00  0.00    +0.000 NA
ENDBRANCH  15  26
ENDBRANCH   1  18
TORSDOF 4
ENDMDL
MODEL 9
REMARK VINA RESULT:      -7.5      1.857      3.202
REMARK  Name = 
REMARK  9 active torsions:
REMARK  status: ('A' for Active; 'I' for Inactive)
REMARK    1  A    between atoms: C_1  and  C_2
REMARK    2  A    between atoms: C_4  and  C_5
REMARK    3  A    between atoms: N_6  and  C_7
REMARK    4  A    between atoms: C_10  and  O_11
REMARK    5  A    between atoms: O_11  and  C_12
REMARK    6  A    between atoms: N_20  and  C_21
REMARK    7  A    between atoms: C_21  and  C_22
REMARK    8  A    between atoms: C_21  and  C_23
REMARK    9  A    between atoms: C_21  and  C_24
REMARK                            x       y       z     vdW  Elec       q    Type
REMARK                         _______ _______ _______ _____ _____    ______ ____
ROOT
ATOM      1  O   UNL     1       1.029  10.883  18.583  0.00  0.00    +0.000 OA
ENDROOT
BRANCH   1   2
ATOM      2  C   UNL     1       0.366  11.661  19.514  0.00  0.00    +0.000 A 
ATOM      3  N   UNL     1       1.054  12.291  20.499  0.00  0.00    +0.000 NA
ATOM      4  C   UNL     1       0.395  13.155  21.281  0.00  0.00    +0.000 A 
ATOM      5  N   UNL     1      -0.913  13.427  21.255  0.00  0.00    +0.000 NA
ATOM      6  C   UNL     1      -1.571  12.698  20.335  0.00  0.00    +0.000 A 
ATOM      7  C   UNL     1      -1.009  11.809  19.437  0.00  0.00    +0.000 A 
ATOM      8  C   UNL     1      -2.083  11.335  18.672  0.00  0.00    +0.000 A 
ATOM      9  N   UNL     1      -3.257  11.843  19.070  0.00  0.00    +0.000 NA
ATOM     10  N   UNL     1      -2.920  12.661  20.106  0.00  0.00    +0.000 N 
BRANCH  10  11
ATOM     11  C   UNL     1      -3.941  13.326  20.932  0.00  0.00    +0.000 C 
ATOM     12  C   UNL     1      -3.905  12.819  22.390  0.00  0.00    +0.000 C 
ATOM     13  C   UNL     1      -3.678  14.845  20.951  0.00  0.00    +0.000 C 
ATOM     14  C   UNL     1      -5.349  13.043  20.369  0.00  0.00    +0.000 C 
ENDBRANCH  10  11
ENDBRANCH   1   2
BRANCH   1  18
ATOM     15  C   UNL     1       2.133   6.979  19.549  0.00  0.00    +0.000 A 
ATOM     16  C   UNL     1       2.357   7.523  18.278  0.00  0.00    +0.000 A 
ATOM     17  C   UNL     1       1.990   8.835  17.988  0.00  0.00    +0.000 A 
ATOM     18  C   UNL     1       1.381   9.610  18.966  0.00  0.00    +0.000 A 
ATOM     19  C   UNL     1       1.182   9.090  20.248  0.00  0.00    +0.000 A 
ATOM     20  C   UNL     1       1.512   7.766  20.531  0.00  0.00    +0.000 A 
BRANCH  15  26
ATOM     21  C   UNL     1       1.640   2.617  21.526  0.00  0.00    +0.000 C 
ATOM     22  C   UNL     1       2.277   3.707  20.751  0.00  0.00    +0.000 A 
ATOM     23  C   UNL     1       3.492   3.676  20.048  0.00  0.00    +0.000 A 
ATOM     24  C   UNL     1       3.650   4.940  19.522  0.00  0.00    +0.000 A 
ATOM     25  C   UNL     1       4.829   5.499  18.814  0.00  0.00    +0.000 C 
ATOM     26  N   UNL     1       2.507   5.650  19.878  0.00  0.00    +0.000 N 
ATOM     27  N   UNL     1       1.704   4.909  20.687  0.00  0.00    +0.000 NA
ENDBRANCH  15  26
ENDBRANCH   1  18
TORSDOF 4
ENDMDL
