MODEL 1
REMARK VINA RESULT:      -9.0      0.000      0.000
REMARK  Name = 
REMARK  6 active torsions:
REMARK  status: ('A' for Active; 'I' for Inactive)
REMARK    1  A    between atoms: C_1  and  C_2
REMARK    2  A    between atoms: N_4  and  C_5
REMARK    3  A    between atoms: C_5  and  C_6
REMARK    4  A    between atoms: C_8  and  C_9
REMARK    5  A    between atoms: C_9  and  C_10
REMARK    6  A    between atoms: C_10  and  C_11
REMARK                            x       y       z     vdW  Elec       q    Type
REMARK                         _______ _______ _______ _____ _____    ______ ____
ROOT
ATOM      1  C   UNL     1       2.415   8.513  17.893  0.00  0.00    +0.000 C 
ATOM      2  C   UNL     1       2.976   7.185  18.389  0.00  0.00    +0.000 C 
ATOM      3  C   UNL     1       2.530   6.041  17.463  0.00  0.00    +0.000 C 
ATOM      4  N   UNL     1       3.210   4.782  17.801  0.00  0.00    +0.000 N 
ATOM      5  C   UNL     1       2.600   4.032  18.808  0.00  0.00    +0.000 A 
ATOM      6  C   UNL     1       1.977   2.809  18.554  0.00  0.00    +0.000 A 
ATOM      7  C   UNL     1       1.265   2.151  19.571  0.00  0.00    +0.000 A 
ATOM      8  C   UNL     1       1.194   2.695  20.855  0.00  0.00    +0.000 A 
ATOM      9  C   UNL     1       1.818   3.906  21.134  0.00  0.00    +0.000 A 
ATOM     10  C   UNL     1       2.499   4.566  20.113  0.00  0.00    +0.000 A 
ATOM     11  N   UNL     1       3.137   5.807  20.402  0.00  0.00    +0.000 N 
ATOM     12  C   UNL     1       2.504   6.893  19.811  0.00  0.00    +0.000 C 
ATOM     13  O   UNL     1       1.621   7.543  20.379  0.00  0.00    +0.000 OA
ATOM     14  H   UNL     1       4.063   5.743  19.979  0.00  0.00    +0.000 HD
ENDROOT
BRANCH   4  15
ATOM     15  C   UNL     1       4.286   4.219  16.971  0.00  0.00    +0.000 C 
BRANCH  15  16
ATOM     16  C   UNL     1       5.638   4.837  17.182  0.00  0.00    +0.000 A 
ATOM     17  N   UNL     1       6.012   5.693  18.102  0.00  0.00    +0.000 NA
ATOM     18  C   UNL     1       7.258   6.072  17.667  0.00  0.00    +0.000 A 
ATOM     19  N   UNL     1       7.670   5.442  16.549  0.00  0.00    +0.000 NA
ATOM     20  O   UNL     1       6.598   4.607  16.234  0.00  0.00    +0.000 OA
BRANCH  18  21
ATOM     21  C   UNL     1       8.027   7.169  18.321  0.00  0.00    +0.000 C 
BRANCH  21  22
ATOM     22  C   UNL     1       7.884   8.502  17.574  0.00  0.00    +0.000 C 
BRANCH  22  23
ATOM     23  C   UNL     1       8.534   9.695  18.237  0.00  0.00    +0.000 A 
ATOM     24  C   UNL     1       8.620  10.903  17.536  0.00  0.00    +0.000 A 
ATOM     25  C   UNL     1       9.237  12.019  18.103  0.00  0.00    +0.000 A 
ATOM     26  C   UNL     1       9.764  11.942  19.390  0.00  0.00    +0.000 A 
ATOM     27  C   UNL     1       9.653  10.760  20.116  0.00  0.00    +0.000 A 
ATOM     28  C   UNL     1       9.040   9.636  19.545  0.00  0.00    +0.000 A 
ENDBRANCH  22  23
ENDBRANCH  21  22
ENDBRANCH  18  21
ENDBRANCH  15  16
ENDBRANCH   4  15
TORSDOF 5
ENDMDL
MODEL 2
REMARK VINA RESULT:      -8.8      0.813      1.273
REMARK  Name = 
REMARK  6 active torsions:
REMARK  status: ('A' for Active; 'I' for Inactive)
REMARK    1  A    between atoms: C_1  and  C_2
REMARK    2  A    between atoms: N_4  and  C_5
REMARK    3  A    between atoms: C_5  and  C_6
REMARK    4  A    between atoms: C_8  and  C_9
REMARK    5  A    between atoms: C_9  and  C_10
REMARK    6  A    between atoms: C_10  and  C_11
REMARK                            x       y       z     vdW  Elec       q    Type
REMARK                         _______ _______ _______ _____ _____    ______ ____
ROOT
ATOM      1  C   UNL     1       2.871   8.325  17.730  0.00  0.00    +0.000 C 
ATOM      2  C   UNL     1       3.313   7.112  18.540  0.00  0.00    +0.000 C 
ATOM      3  C   UNL     1       3.386   5.868  17.639  0.00  0.00    +0.000 C 
ATOM      4  N   UNL     1       3.992   4.730  18.344  0.00  0.00    +0.000 N 
ATOM      5  C   UNL     1       3.108   3.967  19.106  0.00  0.00    +0.000 A 
ATOM      6  C   UNL     1       2.759   2.660  18.760  0.00  0.00    +0.000 A 
ATOM      7  C   UNL     1       1.768   1.975  19.482  0.00  0.00    +0.000 A 
ATOM      8  C   UNL     1       1.139   2.578  20.574  0.00  0.00    +0.000 A 
ATOM      9  C   UNL     1       1.481   3.873  20.945  0.00  0.00    +0.000 A 
ATOM     10  C   UNL     1       2.445   4.557  20.206  0.00  0.00    +0.000 A 
ATOM     11  N   UNL     1       2.792   5.885  20.590  0.00  0.00    +0.000 N 
ATOM     12  C   UNL     1       2.345   6.844  19.690  0.00  0.00    +0.000 C 
ATOM     13  O   UNL     1       1.250   7.405  19.798  0.00  0.00    +0.000 OA
ATOM     14  H   UNL     1       3.811   5.917  20.569  0.00  0.00    +0.000 HD
ENDROOT
BRANCH   4  15
ATOM     15  C   UNL     1       5.359   4.265  18.060  0.00  0.00    +0.000 C 
BRANCH  15  16
ATOM     16  C   UNL     1       6.328   5.345  17.671  0.00  0.00    +0.000 A 
ATOM     17  N   UNL     1       6.591   6.470  18.291  0.00  0.00    +0.000 NA
ATOM     18  C   UNL     1       7.360   7.141  17.372  0.00  0.00    +0.000 A 
ATOM     19  N   UNL     1       7.611   6.447  16.245  0.00  0.00    +0.000 NA
ATOM     20  O   UNL     1       6.936   5.243  16.450  0.00  0.00    +0.000 OA
BRANCH  18  21
ATOM     21  C   UNL     1       7.776   8.559  17.572  0.00  0.00    +0.000 C 
BRANCH  21  22
ATOM     22  C   UNL     1       8.728   8.721  18.766  0.00  0.00    +0.000 C 
BRANCH  22  23
ATOM     23  C   UNL     1       9.231  10.125  19.012  0.00  0.00    +0.000 A 
ATOM     24  C   UNL     1       9.293  10.607  20.325  0.00  0.00    +0.000 A 
ATOM     25  C   UNL     1       9.726  11.907  20.592  0.00  0.00    +0.000 A 
ATOM     26  C   UNL     1      10.118  12.737  19.544  0.00  0.00    +0.000 A 
ATOM     27  C   UNL     1      10.099  12.261  18.237  0.00  0.00    +0.000 A 
ATOM     28  C   UNL     1       9.657  10.959  17.967  0.00  0.00    +0.000 A 
ENDBRANCH  22  23
ENDBRANCH  21  22
ENDBRANCH  18  21
ENDBRANCH  15  16
ENDBRANCH   4  15
TORSDOF 5
ENDMDL
MODEL 3
REMARK VINA RESULT:      -8.7      1.456      2.131
REMARK  Name = 
REMARK  6 active torsions:
REMARK  status: ('A' for Active; 'I' for Inactive)
REMARK    1  A    between atoms: C_1  and  C_2
REMARK    2  A    between atoms: N_4  and  C_5
REMARK    3  A    between atoms: C_5  and  C_6
REMARK    4  A    between atoms: C_8  and  C_9
REMARK    5  A    between atoms: C_9  and  C_10
REMARK    6  A    between atoms: C_10  and  C_11
REMARK                            x       y       z     vdW  Elec       q    Type
REMARK                         _______ _______ _______ _____ _____    ______ ____
ROOT
ATOM      1  C   UNL     1       2.221   8.530  18.228  0.00  0.00    +0.000 C 
ATOM      2  C   UNL     1       3.119   7.345  18.569  0.00  0.00    +0.000 C 
ATOM      3  C   UNL     1       3.297   6.442  17.338  0.00  0.00    +0.000 C 
ATOM      4  N   UNL     1       4.308   5.402  17.579  0.00  0.00    +0.000 N 
ATOM      5  C   UNL     1       3.832   4.246  18.198  0.00  0.00    +0.000 A 
ATOM      6  C   UNL     1       3.751   3.021  17.533  0.00  0.00    +0.000 A 
ATOM      7  C   UNL     1       3.146   1.916  18.152  0.00  0.00    +0.000 A 
ATOM      8  C   UNL     1       2.643   2.015  19.451  0.00  0.00    +0.000 A 
ATOM      9  C   UNL     1       2.726   3.221  20.138  0.00  0.00    +0.000 A 
ATOM     10  C   UNL     1       3.301   4.321  19.507  0.00  0.00    +0.000 A 
ATOM     11  N   UNL     1       3.384   5.556  20.214  0.00  0.00    +0.000 N 
ATOM     12  C   UNL     1       2.525   6.527  19.713  0.00  0.00    +0.000 C 
ATOM     13  O   UNL     1       1.377   6.688  20.138  0.00  0.00    +0.000 OA
ATOM     14  H   UNL     1       4.332   5.897  20.059  0.00  0.00    +0.000 HD
ENDROOT
BRANCH   4  15
ATOM     15  C   UNL     1       5.650   5.453  16.979  0.00  0.00    +0.000 C 
BRANCH  15  16
ATOM     16  C   UNL     1       6.574   6.474  17.579  0.00  0.00    +0.000 A 
ATOM     17  N   UNL     1       6.736   7.730  17.241  0.00  0.00    +0.000 NA
ATOM     18  C   UNL     1       7.849   8.090  17.960  0.00  0.00    +0.000 A 
ATOM     19  N   UNL     1       8.335   7.115  18.754  0.00  0.00    +0.000 NA
ATOM     20  O   UNL     1       7.476   6.043  18.513  0.00  0.00    +0.000 OA
BRANCH  18  21
ATOM     21  C   UNL     1       8.517   9.410  17.779  0.00  0.00    +0.000 C 
BRANCH  21  22
ATOM     22  C   UNL     1       9.135   9.931  19.083  0.00  0.00    +0.000 C 
BRANCH  22  23
ATOM     23  C   UNL     1      10.075  11.106  18.936  0.00  0.00    +0.000 A 
ATOM     24  C   UNL     1      10.764  11.575  20.061  0.00  0.00    +0.000 A 
ATOM     25  C   UNL     1      11.620  12.673  19.971  0.00  0.00    +0.000 A 
ATOM     26  C   UNL     1      11.808  13.309  18.747  0.00  0.00    +0.000 A 
ATOM     27  C   UNL     1      11.161  12.833  17.611  0.00  0.00    +0.000 A 
ATOM     28  C   UNL     1      10.296  11.734  17.700  0.00  0.00    +0.000 A 
ENDBRANCH  22  23
ENDBRANCH  21  22
ENDBRANCH  18  21
ENDBRANCH  15  16
ENDBRANCH   4  15
TORSDOF 5
ENDMDL
MODEL 4
REMARK VINA RESULT:      -8.7      1.043      1.164
REMARK  Name = 
REMARK  6 active torsions:
REMARK  status: ('A' for Active; 'I' for Inactive)
REMARK    1  A    between atoms: C_1  and  C_2
REMARK    2  A    between atoms: N_4  and  C_5
REMARK    3  A    between atoms: C_5  and  C_6
REMARK    4  A    between atoms: C_8  and  C_9
REMARK    5  A    between atoms: C_9  and  C_10
REMARK    6  A    between atoms: C_10  and  C_11
REMARK                            x       y       z     vdW  Elec       q    Type
REMARK                         _______ _______ _______ _____ _____    ______ ____
ROOT
ATOM      1  C   UNL     1       2.023   8.753  18.338  0.00  0.00    +0.000 C 
ATOM      2  C   UNL     1       2.694   7.475  18.831  0.00  0.00    +0.000 C 
ATOM      3  C   UNL     1       2.610   6.381  17.753  0.00  0.00    +0.000 C 
ATOM      4  N   UNL     1       3.413   5.206  18.119  0.00  0.00    +0.000 N 
ATOM      5  C   UNL     1       2.764   4.275  18.931  0.00  0.00    +0.000 A 
ATOM      6  C   UNL     1       2.402   3.008  18.472  0.00  0.00    +0.000 A 
ATOM      7  C   UNL     1       1.637   2.152  19.281  0.00  0.00    +0.000 A 
ATOM      8  C   UNL     1       1.252   2.543  20.566  0.00  0.00    +0.000 A 
ATOM      9  C   UNL     1       1.614   3.796  21.049  0.00  0.00    +0.000 A 
ATOM     10  C   UNL     1       2.349   4.650  20.230  0.00  0.00    +0.000 A 
ATOM     11  N   UNL     1       2.717   5.933  20.728  0.00  0.00    +0.000 N 
ATOM     12  C   UNL     1       2.032   6.972  20.111  0.00  0.00    +0.000 C 
ATOM     13  O   UNL     1       0.969   7.425  20.546  0.00  0.00    +0.000 OA
ATOM     14  H   UNL     1       3.701   6.048  20.486  0.00  0.00    +0.000 HD
ENDROOT
BRANCH   4  15
ATOM     15  C   UNL     1       4.696   4.894  17.470  0.00  0.00    +0.000 C 
BRANCH  15  16
ATOM     16  C   UNL     1       5.838   5.787  17.862  0.00  0.00    +0.000 A 
ATOM     17  N   UNL     1       6.263   6.878  17.273  0.00  0.00    +0.000 NA
ATOM     18  C   UNL     1       7.448   7.125  17.923  0.00  0.00    +0.000 A 
ATOM     19  N   UNL     1       7.729   6.253  18.911  0.00  0.00    +0.000 NA
ATOM     20  O   UNL     1       6.649   5.371  18.882  0.00  0.00    +0.000 OA
BRANCH  18  21
ATOM     21  C   UNL     1       8.384   8.197  17.483  0.00  0.00    +0.000 C 
BRANCH  21  22
ATOM     22  C   UNL     1       7.982   9.576  18.024  0.00  0.00    +0.000 C 
BRANCH  22  23
ATOM     23  C   UNL     1       9.106  10.401  18.608  0.00  0.00    +0.000 A 
ATOM     24  C   UNL     1      10.009  11.032  17.745  0.00  0.00    +0.000 A 
ATOM     25  C   UNL     1      11.076  11.781  18.245  0.00  0.00    +0.000 A 
ATOM     26  C   UNL     1      11.242  11.919  19.621  0.00  0.00    +0.000 A 
ATOM     27  C   UNL     1      10.332  11.330  20.493  0.00  0.00    +0.000 A 
ATOM     28  C   UNL     1       9.264  10.572  19.992  0.00  0.00    +0.000 A 
ENDBRANCH  22  23
ENDBRANCH  21  22
ENDBRANCH  18  21
ENDBRANCH  15  16
ENDBRANCH   4  15
TORSDOF 5
ENDMDL
MODEL 5
REMARK VINA RESULT:      -8.3      4.996      8.501
REMARK  Name = 
REMARK  6 active torsions:
REMARK  status: ('A' for Active; 'I' for Inactive)
REMARK    1  A    between atoms: C_1  and  C_2
REMARK    2  A    between atoms: N_4  and  C_5
REMARK    3  A    between atoms: C_5  and  C_6
REMARK    4  A    between atoms: C_8  and  C_9
REMARK    5  A    between atoms: C_9  and  C_10
REMARK    6  A    between atoms: C_10  and  C_11
REMARK                            x       y       z     vdW  Elec       q    Type
REMARK                         _______ _______ _______ _____ _____    ______ ____
ROOT
ATOM      1  C   UNL     1      -3.635  10.439  16.830  0.00  0.00    +0.000 C 
ATOM      2  C   UNL     1      -2.755  11.240  17.784  0.00  0.00    +0.000 C 
ATOM      3  C   UNL     1      -1.787  10.305  18.526  0.00  0.00    +0.000 C 
ATOM      4  N   UNL     1      -0.799  11.066  19.305  0.00  0.00    +0.000 N 
ATOM      5  C   UNL     1      -1.214  11.440  20.584  0.00  0.00    +0.000 A 
ATOM      6  C   UNL     1      -0.658  10.889  21.740  0.00  0.00    +0.000 A 
ATOM      7  C   UNL     1      -1.194  11.198  23.001  0.00  0.00    +0.000 A 
ATOM      8  C   UNL     1      -2.270  12.080  23.120  0.00  0.00    +0.000 A 
ATOM      9  C   UNL     1      -2.830  12.651  21.983  0.00  0.00    +0.000 A 
ATOM     10  C   UNL     1      -2.311  12.318  20.733  0.00  0.00    +0.000 A 
ATOM     11  N   UNL     1      -2.888  12.905  19.570  0.00  0.00    +0.000 N 
ATOM     12  C   UNL     1      -3.606  11.995  18.802  0.00  0.00    +0.000 C 
ATOM     13  O   UNL     1      -4.815  11.798  18.954  0.00  0.00    +0.000 OA
ATOM     14  H   UNL     1      -2.101  13.212  18.999  0.00  0.00    +0.000 HD
ENDROOT
BRANCH   4  15
ATOM     15  C   UNL     1       0.607  11.192  18.888  0.00  0.00    +0.000 C 
BRANCH  15  16
ATOM     16  C   UNL     1       1.293   9.894  18.575  0.00  0.00    +0.000 A 
ATOM     17  N   UNL     1       1.476   8.856  19.355  0.00  0.00    +0.000 NA
ATOM     18  C   UNL     1       2.347   8.085  18.624  0.00  0.00    +0.000 A 
ATOM     19  N   UNL     1       2.656   8.593  17.415  0.00  0.00    +0.000 NA
ATOM     20  O   UNL     1       1.942   9.791  17.375  0.00  0.00    +0.000 OA
BRANCH  18  21
ATOM     21  C   UNL     1       2.975   6.853  19.181  0.00  0.00    +0.000 C 
BRANCH  21  22
ATOM     22  C   UNL     1       3.256   5.804  18.097  0.00  0.00    +0.000 C 
BRANCH  22  23
ATOM     23  C   UNL     1       2.590   4.462  18.300  0.00  0.00    +0.000 A 
ATOM     24  C   UNL     1       1.601   4.332  19.282  0.00  0.00    +0.000 A 
ATOM     25  C   UNL     1       0.982   3.104  19.519  0.00  0.00    +0.000 A 
ATOM     26  C   UNL     1       1.336   1.990  18.761  0.00  0.00    +0.000 A 
ATOM     27  C   UNL     1       2.290   2.110  17.755  0.00  0.00    +0.000 A 
ATOM     28  C   UNL     1       2.918   3.342  17.521  0.00  0.00    +0.000 A 
ENDBRANCH  22  23
ENDBRANCH  21  22
ENDBRANCH  18  21
ENDBRANCH  15  16
ENDBRANCH   4  15
TORSDOF 5
ENDMDL
MODEL 6
REMARK VINA RESULT:      -8.3      4.822      8.316
REMARK  Name = 
REMARK  6 active torsions:
REMARK  status: ('A' for Active; 'I' for Inactive)
REMARK    1  A    between atoms: C_1  and  C_2
REMARK    2  A    between atoms: N_4  and  C_5
REMARK    3  A    between atoms: C_5  and  C_6
REMARK    4  A    between atoms: C_8  and  C_9
REMARK    5  A    between atoms: C_9  and  C_10
REMARK    6  A    between atoms: C_10  and  C_11
REMARK                            x       y       z     vdW  Elec       q    Type
REMARK                         _______ _______ _______ _____ _____    ______ ____
ROOT
ATOM      1  C   UNL     1      -2.941   9.936  16.804  0.00  0.00    +0.000 C 
ATOM      2  C   UNL     1      -2.177  10.833  17.773  0.00  0.00    +0.000 C 
ATOM      3  C   UNL     1      -1.366   9.979  18.761  0.00  0.00    +0.000 C 
ATOM      4  N   UNL     1      -0.472  10.812  19.579  0.00  0.00    +0.000 N 
ATOM      5  C   UNL     1      -1.053  11.354  20.725  0.00  0.00    +0.000 A 
ATOM      6  C   UNL     1      -0.694  10.944  22.010  0.00  0.00    +0.000 A 
ATOM      7  C   UNL     1      -1.394  11.422  23.130  0.00  0.00    +0.000 A 
ATOM      8  C   UNL     1      -2.439  12.336  22.977  0.00  0.00    +0.000 A 
ATOM      9  C   UNL     1      -2.805  12.769  21.708  0.00  0.00    +0.000 A 
ATOM     10  C   UNL     1      -2.124  12.268  20.600  0.00  0.00    +0.000 A 
ATOM     11  N   UNL     1      -2.502  12.714  19.300  0.00  0.00    +0.000 N 
ATOM     12  C   UNL     1      -3.136  11.730  18.552  0.00  0.00    +0.000 C 
ATOM     13  O   UNL     1      -4.361  11.581  18.545  0.00  0.00    +0.000 OA
ATOM     14  H   UNL     1      -1.628  12.929  18.820  0.00  0.00    +0.000 HD
ENDROOT
BRANCH   4  15
ATOM     15  C   UNL     1       0.983  10.853  19.364  0.00  0.00    +0.000 C 
BRANCH  15  16
ATOM     16  C   UNL     1       1.564   9.625  18.724  0.00  0.00    +0.000 A 
ATOM     17  N   UNL     1       1.850   8.471  19.277  0.00  0.00    +0.000 NA
ATOM     18  C   UNL     1       2.554   7.833  18.285  0.00  0.00    +0.000 A 
ATOM     19  N   UNL     1       2.661   8.536  17.141  0.00  0.00    +0.000 NA
ATOM     20  O   UNL     1       1.988   9.724  17.427  0.00  0.00    +0.000 OA
BRANCH  18  21
ATOM     21  C   UNL     1       3.232   6.525  18.511  0.00  0.00    +0.000 C 
BRANCH  21  22
ATOM     22  C   UNL     1       2.282   5.336  18.307  0.00  0.00    +0.000 C 
BRANCH  22  23
ATOM     23  C   UNL     1       2.307   4.287  19.394  0.00  0.00    +0.000 A 
ATOM     24  C   UNL     1       1.153   4.063  20.154  0.00  0.00    +0.000 A 
ATOM     25  C   UNL     1       1.144   3.122  21.185  0.00  0.00    +0.000 A 
ATOM     26  C   UNL     1       2.291   2.381  21.458  0.00  0.00    +0.000 A 
ATOM     27  C   UNL     1       3.435   2.563  20.688  0.00  0.00    +0.000 A 
ATOM     28  C   UNL     1       3.448   3.512  19.657  0.00  0.00    +0.000 A 
ENDBRANCH  22  23
ENDBRANCH  21  22
ENDBRANCH  18  21
ENDBRANCH  15  16
ENDBRANCH   4  15
TORSDOF 5
ENDMDL
MODEL 7
REMARK VINA RESULT:      -8.2      4.627      8.248
REMARK  Name = 
REMARK  6 active torsions:
REMARK  status: ('A' for Active; 'I' for Inactive)
REMARK    1  A    between atoms: C_1  and  C_2
REMARK    2  A    between atoms: N_4  and  C_5
REMARK    3  A    between atoms: C_5  and  C_6
REMARK    4  A    between atoms: C_8  and  C_9
REMARK    5  A    between atoms: C_9  and  C_10
REMARK    6  A    between atoms: C_10  and  C_11
REMARK                            x       y       z     vdW  Elec       q    Type
REMARK                         _______ _______ _______ _____ _____    ______ ____
ROOT
ATOM      1  C   UNL     1      -2.829   9.671  16.108  0.00  0.00    +0.000 C 
ATOM      2  C   UNL     1      -2.039  10.584  17.040  0.00  0.00    +0.000 C 
ATOM      3  C   UNL     1      -1.261   9.748  18.069  0.00  0.00    +0.000 C 
ATOM      4  N   UNL     1      -0.342  10.584  18.854  0.00  0.00    +0.000 N 
ATOM      5  C   UNL     1      -0.908  11.198  19.972  0.00  0.00    +0.000 A 
ATOM      6  C   UNL     1      -0.569  10.834  21.276  0.00  0.00    +0.000 A 
ATOM      7  C   UNL     1      -1.256  11.386  22.369  0.00  0.00    +0.000 A 
ATOM      8  C   UNL     1      -2.268  12.328  22.170  0.00  0.00    +0.000 A 
ATOM      9  C   UNL     1      -2.614  12.716  20.881  0.00  0.00    +0.000 A 
ATOM     10  C   UNL     1      -1.946  12.142  19.800  0.00  0.00    +0.000 A 
ATOM     11  N   UNL     1      -2.303  12.542  18.480  0.00  0.00    +0.000 N 
ATOM     12  C   UNL     1      -2.968  11.547  17.773  0.00  0.00    +0.000 C 
ATOM     13  O   UNL     1      -4.198  11.440  17.766  0.00  0.00    +0.000 OA
ATOM     14  H   UNL     1      -1.421  12.704  17.995  0.00  0.00    +0.000 HD
ENDROOT
BRANCH   4  15
ATOM     15  C   UNL     1       1.115  10.566  18.645  0.00  0.00    +0.000 C 
BRANCH  15  16
ATOM     16  C   UNL     1       1.757   9.216  18.788  0.00  0.00    +0.000 A 
ATOM     17  N   UNL     1       2.311   8.471  17.862  0.00  0.00    +0.000 NA
ATOM     18  C   UNL     1       2.508   7.280  18.517  0.00  0.00    +0.000 A 
ATOM     19  N   UNL     1       2.139   7.293  19.813  0.00  0.00    +0.000 NA
ATOM     20  O   UNL     1       1.654   8.588  19.999  0.00  0.00    +0.000 OA
BRANCH  18  21
ATOM     21  C   UNL     1       2.980   6.056  17.810  0.00  0.00    +0.000 C 
BRANCH  21  22
ATOM     22  C   UNL     1       1.984   4.895  17.933  0.00  0.00    +0.000 C 
BRANCH  22  23
ATOM     23  C   UNL     1       2.114   4.052  19.181  0.00  0.00    +0.000 A 
ATOM     24  C   UNL     1       3.347   3.460  19.480  0.00  0.00    +0.000 A 
ATOM     25  C   UNL     1       3.501   2.654  20.608  0.00  0.00    +0.000 A 
ATOM     26  C   UNL     1       2.421   2.442  21.462  0.00  0.00    +0.000 A 
ATOM     27  C   UNL     1       1.199   3.054  21.201  0.00  0.00    +0.000 A 
ATOM     28  C   UNL     1       1.041   3.858  20.065  0.00  0.00    +0.000 A 
ENDBRANCH  22  23
ENDBRANCH  21  22
ENDBRANCH  18  21
ENDBRANCH  15  16
ENDBRANCH   4  15
TORSDOF 5
ENDMDL
MODEL 8
REMARK VINA RESULT:      -8.1      3.642      7.769
REMARK  Name = 
REMARK  6 active torsions:
REMARK  status: ('A' for Active; 'I' for Inactive)
REMARK    1  A    between atoms: C_1  and  C_2
REMARK    2  A    between atoms: N_4  and  C_5
REMARK    3  A    between atoms: C_5  and  C_6
REMARK    4  A    between atoms: C_8  and  C_9
REMARK    5  A    between atoms: C_9  and  C_10
REMARK    6  A    between atoms: C_10  and  C_11
REMARK                            x       y       z     vdW  Elec       q    Type
REMARK                         _______ _______ _______ _____ _____    ______ ____
ROOT
ATOM      1  C   UNL     1       1.464   3.413  18.354  0.00  0.00    +0.000 C 
ATOM      2  C   UNL     1       2.394   4.570  18.707  0.00  0.00    +0.000 C 
ATOM      3  C   UNL     1       2.868   5.280  17.429  0.00  0.00    +0.000 C 
ATOM      4  N   UNL     1       3.605   6.512  17.743  0.00  0.00    +0.000 N 
ATOM      5  C   UNL     1       4.966   6.339  17.996  0.00  0.00    +0.000 A 
ATOM      6  C   UNL     1       5.954   6.806  17.127  0.00  0.00    +0.000 A 
ATOM      7  C   UNL     1       7.305   6.497  17.355  0.00  0.00    +0.000 A 
ATOM      8  C   UNL     1       7.683   5.744  18.469  0.00  0.00    +0.000 A 
ATOM      9  C   UNL     1       6.718   5.280  19.356  0.00  0.00    +0.000 A 
ATOM     10  C   UNL     1       5.378   5.566  19.107  0.00  0.00    +0.000 A 
ATOM     11  N   UNL     1       4.391   5.089  20.018  0.00  0.00    +0.000 N 
ATOM     12  C   UNL     1       3.609   4.072  19.486  0.00  0.00    +0.000 C 
ATOM     13  O   UNL     1       3.891   2.876  19.610  0.00  0.00    +0.000 OA
ATOM     14  H   UNL     1       3.768   5.879  20.186  0.00  0.00    +0.000 HD
ENDROOT
BRANCH   4  15
ATOM     15  C   UNL     1       3.028   7.851  17.542  0.00  0.00    +0.000 C 
BRANCH  15  16
ATOM     16  C   UNL     1       2.084   8.301  18.621  0.00  0.00    +0.000 A 
ATOM     17  N   UNL     1       1.239   9.303  18.603  0.00  0.00    +0.000 NA
ATOM     18  C   UNL     1       0.832   9.371  19.913  0.00  0.00    +0.000 A 
ATOM     19  N   UNL     1       1.361   8.420  20.708  0.00  0.00    +0.000 NA
ATOM     20  O   UNL     1       2.183   7.696  19.845  0.00  0.00    +0.000 OA
BRANCH  18  21
ATOM     21  C   UNL     1      -0.030  10.477  20.419  0.00  0.00    +0.000 C 
BRANCH  21  22
ATOM     22  C   UNL     1      -0.473  11.426  19.296  0.00  0.00    +0.000 C 
BRANCH  22  23
ATOM     23  C   UNL     1      -1.871  11.202  18.768  0.00  0.00    +0.000 A 
ATOM     24  C   UNL     1      -2.907  12.038  19.201  0.00  0.00    +0.000 A 
ATOM     25  C   UNL     1      -4.217  11.847  18.757  0.00  0.00    +0.000 A 
ATOM     26  C   UNL     1      -4.502  10.822  17.858  0.00  0.00    +0.000 A 
ATOM     27  C   UNL     1      -3.478  10.006  17.387  0.00  0.00    +0.000 A 
ATOM     28  C   UNL     1      -2.164  10.192  17.838  0.00  0.00    +0.000 A 
ENDBRANCH  22  23
ENDBRANCH  21  22
ENDBRANCH  18  21
ENDBRANCH  15  16
ENDBRANCH   4  15
TORSDOF 5
ENDMDL
MODEL 9
REMARK VINA RESULT:      -8.1      3.505      7.431
REMARK  Name = 
REMARK  6 active torsions:
REMARK  status: ('A' for Active; 'I' for Inactive)
REMARK    1  A    between atoms: C_1  and  C_2
REMARK    2  A    between atoms: N_4  and  C_5
REMARK    3  A    between atoms: C_5  and  C_6
REMARK    4  A    between atoms: C_8  and  C_9
REMARK    5  A    between atoms: C_9  and  C_10
REMARK    6  A    between atoms: C_10  and  C_11
REMARK                            x       y       z     vdW  Elec       q    Type
REMARK                         _______ _______ _______ _____ _____    ______ ____
ROOT
ATOM      1  C   UNL     1       5.795   5.905  17.412  0.00  0.00    +0.000 C 
ATOM      2  C   UNL     1       4.344   5.800  17.867  0.00  0.00    +0.000 C 
ATOM      3  C   UNL     1       4.276   5.654  19.396  0.00  0.00    +0.000 C 
ATOM      4  N   UNL     1       2.892   5.744  19.882  0.00  0.00    +0.000 N 
ATOM      5  C   UNL     1       2.179   4.545  19.865  0.00  0.00    +0.000 A 
ATOM      6  C   UNL     1       1.802   3.883  21.035  0.00  0.00    +0.000 A 
ATOM      7  C   UNL     1       1.199   2.616  20.971  0.00  0.00    +0.000 A 
ATOM      8  C   UNL     1       0.943   2.012  19.739  0.00  0.00    +0.000 A 
ATOM      9  C   UNL     1       1.297   2.659  18.560  0.00  0.00    +0.000 A 
ATOM     10  C   UNL     1       1.920   3.903  18.632  0.00  0.00    +0.000 A 
ATOM     11  N   UNL     1       2.282   4.563  17.422  0.00  0.00    +0.000 N 
ATOM     12  C   UNL     1       3.656   4.603  17.216  0.00  0.00    +0.000 C 
ATOM     13  O   UNL     1       4.264   3.731  16.588  0.00  0.00    +0.000 OA
ATOM     14  H   UNL     1       1.976   5.529  17.535  0.00  0.00    +0.000 HD
ENDROOT
BRANCH   4  15
ATOM     15  C   UNL     1       2.378   6.932  20.584  0.00  0.00    +0.000 C 
BRANCH  15  16
ATOM     16  C   UNL     1       1.973   8.068  19.690  0.00  0.00    +0.000 A 
ATOM     17  N   UNL     1       1.257   9.126  19.985  0.00  0.00    +0.000 NA
ATOM     18  C   UNL     1       1.019   9.678  18.750  0.00  0.00    +0.000 A 
ATOM     19  N   UNL     1       1.603   9.022  17.728  0.00  0.00    +0.000 NA
ATOM     20  O   UNL     1       2.252   7.958  18.355  0.00  0.00    +0.000 OA
BRANCH  18  21
ATOM     21  C   UNL     1       0.098  10.835  18.563  0.00  0.00    +0.000 C 
BRANCH  21  22
ATOM     22  C   UNL     1      -1.360  10.472  18.880  0.00  0.00    +0.000 C 
BRANCH  22  23
ATOM     23  C   UNL     1      -2.321  10.563  17.717  0.00  0.00    +0.000 A 
ATOM     24  C   UNL     1      -2.121   9.743  16.600  0.00  0.00    +0.000 A 
ATOM     25  C   UNL     1      -2.972   9.816  15.495  0.00  0.00    +0.000 A 
ATOM     26  C   UNL     1      -4.045  10.703  15.503  0.00  0.00    +0.000 A 
ATOM     27  C   UNL     1      -4.281  11.497  16.621  0.00  0.00    +0.000 A 
ATOM     28  C   UNL     1      -3.425  11.430  17.728  0.00  0.00    +0.000 A 
ENDBRANCH  22  23
ENDBRANCH  21  22
ENDBRANCH  18  21
ENDBRANCH  15  16
ENDBRANCH   4  15
TORSDOF 5
ENDMDL
