MODEL 1
REMARK VINA RESULT:      -8.4      0.000      0.000
REMARK  Name = 
REMARK  8 active torsions:
REMARK  status: ('A' for Active; 'I' for Inactive)
REMARK    1  A    between atoms: C_1  and  N_2
REMARK    2  A    between atoms: C_6  and  S_7
REMARK    3  A    between atoms: S_7  and  C_8
REMARK    4  A    between atoms: C_8  and  C_9
REMARK    5  A    between atoms: C_13  and  N_14
REMARK    6  A    between atoms: C_19  and  C_20
REMARK    7  A    between atoms: C_20  and  O_21
REMARK    8  A    between atoms: C_23  and  C_24
REMARK                            x       y       z     vdW  Elec       q    Type
REMARK                         _______ _______ _______ _____ _____    ______ ____
ROOT
ATOM      1  N   UNL     1       4.048   4.506  19.103  0.00  0.00    +0.000 N 
ATOM      2  C   UNL     1       5.402   5.088  19.258  0.00  0.00    +0.000 C 
ATOM      3  C   UNL     1       5.938   5.018  17.860  0.00  0.00    +0.000 A 
ATOM      4  C   UNL     1       5.298   3.952  17.224  0.00  0.00    +0.000 A 
ATOM      5  C   UNL     1       5.443   3.680  15.875  0.00  0.00    +0.000 A 
ATOM      6  C   UNL     1       6.256   4.534  15.123  0.00  0.00    +0.000 A 
ATOM      7  C   UNL     1       6.900   5.623  15.761  0.00  0.00    +0.000 A 
ATOM      8  C   UNL     1       6.744   5.892  17.139  0.00  0.00    +0.000 A 
ATOM      9  C   UNL     1       4.178   3.517  18.092  0.00  0.00    +0.000 C 
ATOM     10  O   UNL     1       3.421   2.604  17.818  0.00  0.00    +0.000 OA
ENDROOT
BRANCH   1  15
ATOM     11  C   UNL     1       2.051   7.464  19.946  0.00  0.00    +0.000 A 
ATOM     12  C   UNL     1       2.375   8.245  18.825  0.00  0.00    +0.000 A 
ATOM     13  C   UNL     1       2.861   7.652  17.665  0.00  0.00    +0.000 A 
ATOM     14  C   UNL     1       3.151   6.292  17.649  0.00  0.00    +0.000 A 
ATOM     15  C   UNL     1       3.072   5.555  18.841  0.00  0.00    +0.000 A 
ATOM     16  C   UNL     1       2.383   6.102  19.933  0.00  0.00    +0.000 A 
BRANCH  11  17
ATOM     17  C   UNL     1       1.514   8.102  21.205  0.00  0.00    +0.000 C 
BRANCH  17  18
ATOM     18  S   UNL     1      -0.279   8.395  21.145  0.00  0.00    +0.000 S 
BRANCH  18  24
ATOM     19  C   UNL     1       0.171  11.197  19.650  0.00  0.00    +0.000 C 
ATOM     20  N   UNL     1      -0.190  11.115  21.045  0.00  0.00    +0.000 N 
ATOM     21  C   UNL     1      -0.377  12.201  21.858  0.00  0.00    +0.000 A 
ATOM     22  N   UNL     1      -0.695  11.845  23.076  0.00  0.00    +0.000 NA
ATOM     23  C   UNL     1      -0.717  10.477  23.053  0.00  0.00    +0.000 A 
ATOM     24  C   UNL     1      -0.411   9.994  21.799  0.00  0.00    +0.000 A 
ENDBRANCH  18  24
ENDBRANCH  17  18
ENDBRANCH  11  17
ENDBRANCH   1  15
BRANCH   8  25
ATOM     25  C   UNL     1       7.344   7.151  17.714  0.00  0.00    +0.000 C 
ATOM     26  F   UNL     1       8.047   6.959  18.863  0.00  0.00    +0.000 F 
ATOM     27  F   UNL     1       8.206   7.754  16.852  0.00  0.00    +0.000 F 
ATOM     28  F   UNL     1       6.398   8.084  18.015  0.00  0.00    +0.000 F 
ENDBRANCH   8  25
BRANCH   6  29
ATOM     29  C   UNL     1       6.393   4.349  13.634  0.00  0.00    +0.000 C 
BRANCH  29  30
ATOM     30  O   UNL     1       6.293   2.971  13.303  0.00  0.00    +0.000 OA
ATOM     31  H   UNL     1       5.481   2.632  13.717  0.00  0.00    +0.000 HD
ENDBRANCH  29  30
ENDBRANCH   6  29
TORSDOF 7
ENDMDL
MODEL 2
REMARK VINA RESULT:      -8.3      4.449      6.884
REMARK  Name = 
REMARK  8 active torsions:
REMARK  status: ('A' for Active; 'I' for Inactive)
REMARK    1  A    between atoms: C_1  and  N_2
REMARK    2  A    between atoms: C_6  and  S_7
REMARK    3  A    between atoms: S_7  and  C_8
REMARK    4  A    between atoms: C_8  and  C_9
REMARK    5  A    between atoms: C_13  and  N_14
REMARK    6  A    between atoms: C_19  and  C_20
REMARK    7  A    between atoms: C_20  and  O_21
REMARK    8  A    between atoms: C_23  and  C_24
REMARK                            x       y       z     vdW  Elec       q    Type
REMARK                         _______ _______ _______ _____ _____    ______ ____
ROOT
ATOM      1  N   UNL     1       6.086   5.468  15.644  0.00  0.00    +0.000 N 
ATOM      2  C   UNL     1       4.877   6.304  15.828  0.00  0.00    +0.000 C 
ATOM      3  C   UNL     1       4.096   5.513  16.833  0.00  0.00    +0.000 A 
ATOM      4  C   UNL     1       4.455   4.173  16.676  0.00  0.00    +0.000 A 
ATOM      5  C   UNL     1       4.035   3.172  17.534  0.00  0.00    +0.000 A 
ATOM      6  C   UNL     1       3.228   3.539  18.616  0.00  0.00    +0.000 A 
ATOM      7  C   UNL     1       2.868   4.899  18.785  0.00  0.00    +0.000 A 
ATOM      8  C   UNL     1       3.303   5.913  17.904  0.00  0.00    +0.000 A 
ATOM      9  C   UNL     1       5.641   4.127  15.787  0.00  0.00    +0.000 C 
ATOM     10  O   UNL     1       6.201   3.099  15.454  0.00  0.00    +0.000 OA
ENDROOT
BRANCH   1  15
ATOM     11  C   UNL     1       7.833   7.844  17.825  0.00  0.00    +0.000 A 
ATOM     12  C   UNL     1       7.912   7.037  18.970  0.00  0.00    +0.000 A 
ATOM     13  C   UNL     1       7.793   5.654  18.873  0.00  0.00    +0.000 A 
ATOM     14  C   UNL     1       7.468   5.069  17.654  0.00  0.00    +0.000 A 
ATOM     15  C   UNL     1       7.137   5.887  16.563  0.00  0.00    +0.000 A 
ATOM     16  C   UNL     1       7.467   7.249  16.609  0.00  0.00    +0.000 A 
BRANCH  11  17
ATOM     17  C   UNL     1       7.969   9.344  17.924  0.00  0.00    +0.000 C 
BRANCH  17  18
ATOM     18  S   UNL     1       9.275   9.866  19.077  0.00  0.00    +0.000 S 
BRANCH  18  24
ATOM     19  C   UNL     1      11.977  11.561  19.413  0.00  0.00    +0.000 C 
ATOM     20  N   UNL     1      10.802  12.098  18.768  0.00  0.00    +0.000 N 
ATOM     21  C   UNL     1      10.723  13.359  18.240  0.00  0.00    +0.000 A 
ATOM     22  N   UNL     1       9.546  13.591  17.717  0.00  0.00    +0.000 NA
ATOM     23  C   UNL     1       8.836  12.437  17.911  0.00  0.00    +0.000 A 
ATOM     24  C   UNL     1       9.596  11.487  18.559  0.00  0.00    +0.000 A 
ENDBRANCH  18  24
ENDBRANCH  17  18
ENDBRANCH  11  17
ENDBRANCH   1  15
BRANCH   8  25
ATOM     25  C   UNL     1       2.999   7.353  18.232  0.00  0.00    +0.000 C 
ATOM     26  F   UNL     1       2.675   7.571  19.536  0.00  0.00    +0.000 F 
ATOM     27  F   UNL     1       4.049   8.177  17.972  0.00  0.00    +0.000 F 
ATOM     28  F   UNL     1       1.951   7.839  17.508  0.00  0.00    +0.000 F 
ENDBRANCH   8  25
BRANCH   6  29
ATOM     29  C   UNL     1       2.803   2.517  19.638  0.00  0.00    +0.000 C 
BRANCH  29  30
ATOM     30  O   UNL     1       2.254   1.378  18.989  0.00  0.00    +0.000 OA
ATOM     31  H   UNL     1       1.317   1.325  19.242  0.00  0.00    +0.000 HD
ENDBRANCH  29  30
ENDBRANCH   6  29
TORSDOF 7
ENDMDL
MODEL 3
REMARK VINA RESULT:      -8.1      0.525      1.182
REMARK  Name = 
REMARK  8 active torsions:
REMARK  status: ('A' for Active; 'I' for Inactive)
REMARK    1  A    between atoms: C_1  and  N_2
REMARK    2  A    between atoms: C_6  and  S_7
REMARK    3  A    between atoms: S_7  and  C_8
REMARK    4  A    between atoms: C_8  and  C_9
REMARK    5  A    between atoms: C_13  and  N_14
REMARK    6  A    between atoms: C_19  and  C_20
REMARK    7  A    between atoms: C_20  and  O_21
REMARK    8  A    between atoms: C_23  and  C_24
REMARK                            x       y       z     vdW  Elec       q    Type
REMARK                         _______ _______ _______ _____ _____    ______ ____
ROOT
ATOM      1  N   UNL     1       3.932   4.597  19.107  0.00  0.00    +0.000 N 
ATOM      2  C   UNL     1       5.304   5.141  19.246  0.00  0.00    +0.000 C 
ATOM      3  C   UNL     1       5.822   5.054  17.843  0.00  0.00    +0.000 A 
ATOM      4  C   UNL     1       5.146   4.006  17.216  0.00  0.00    +0.000 A 
ATOM      5  C   UNL     1       5.268   3.727  15.865  0.00  0.00    +0.000 A 
ATOM      6  C   UNL     1       6.097   4.557  15.103  0.00  0.00    +0.000 A 
ATOM      7  C   UNL     1       6.778   5.629  15.733  0.00  0.00    +0.000 A 
ATOM      8  C   UNL     1       6.645   5.904  17.112  0.00  0.00    +0.000 A 
ATOM      9  C   UNL     1       4.024   3.603  18.097  0.00  0.00    +0.000 C 
ATOM     10  O   UNL     1       3.239   2.711  17.832  0.00  0.00    +0.000 OA
ENDROOT
BRANCH   1  15
ATOM     11  C   UNL     1       2.050   7.628  19.955  0.00  0.00    +0.000 A 
ATOM     12  C   UNL     1       2.370   8.382  18.815  0.00  0.00    +0.000 A 
ATOM     13  C   UNL     1       2.808   7.758  17.652  0.00  0.00    +0.000 A 
ATOM     14  C   UNL     1       3.055   6.389  17.650  0.00  0.00    +0.000 A 
ATOM     15  C   UNL     1       2.983   5.672  18.854  0.00  0.00    +0.000 A 
ATOM     16  C   UNL     1       2.339   6.255  19.955  0.00  0.00    +0.000 A 
BRANCH  11  17
ATOM     17  C   UNL     1       1.566   8.300  21.218  0.00  0.00    +0.000 C 
BRANCH  17  18
ATOM     18  S   UNL     1      -0.244   8.458  21.290  0.00  0.00    +0.000 S 
BRANCH  18  24
ATOM     19  C   UNL     1      -1.039  11.062  22.986  0.00  0.00    +0.000 C 
ATOM     20  N   UNL     1      -0.834  11.103  21.557  0.00  0.00    +0.000 N 
ATOM     21  C   UNL     1      -0.952  12.234  20.795  0.00  0.00    +0.000 A 
ATOM     22  N   UNL     1      -0.717  11.991  19.531  0.00  0.00    +0.000 NA
ATOM     23  C   UNL     1      -0.433  10.653  19.471  0.00  0.00    +0.000 A 
ATOM     24  C   UNL     1      -0.494  10.075  20.720  0.00  0.00    +0.000 A 
ENDBRANCH  18  24
ENDBRANCH  17  18
ENDBRANCH  11  17
ENDBRANCH   1  15
BRANCH   8  25
ATOM     25  C   UNL     1       7.285   7.146  17.678  0.00  0.00    +0.000 C 
ATOM     26  F   UNL     1       8.003   6.935  18.815  0.00  0.00    +0.000 F 
ATOM     27  F   UNL     1       8.148   7.729  16.803  0.00  0.00    +0.000 F 
ATOM     28  F   UNL     1       6.368   8.103  17.996  0.00  0.00    +0.000 F 
ENDBRANCH   8  25
BRANCH   6  29
ATOM     29  C   UNL     1       6.213   4.367  13.614  0.00  0.00    +0.000 C 
BRANCH  29  30
ATOM     30  O   UNL     1       6.342   2.985  13.307  0.00  0.00    +0.000 OA
ATOM     31  H   UNL     1       7.044   2.902  12.640  0.00  0.00    +0.000 HD
ENDBRANCH  29  30
ENDBRANCH   6  29
TORSDOF 7
ENDMDL
MODEL 4
REMARK VINA RESULT:      -8.0      4.432      7.012
REMARK  Name = 
REMARK  8 active torsions:
REMARK  status: ('A' for Active; 'I' for Inactive)
REMARK    1  A    between atoms: C_1  and  N_2
REMARK    2  A    between atoms: C_6  and  S_7
REMARK    3  A    between atoms: S_7  and  C_8
REMARK    4  A    between atoms: C_8  and  C_9
REMARK    5  A    between atoms: C_13  and  N_14
REMARK    6  A    between atoms: C_19  and  C_20
REMARK    7  A    between atoms: C_20  and  O_21
REMARK    8  A    between atoms: C_23  and  C_24
REMARK                            x       y       z     vdW  Elec       q    Type
REMARK                         _______ _______ _______ _____ _____    ______ ____
ROOT
ATOM      1  N   UNL     1       6.100   5.498  15.689  0.00  0.00    +0.000 N 
ATOM      2  C   UNL     1       4.875   6.308  15.888  0.00  0.00    +0.000 C 
ATOM      3  C   UNL     1       4.118   5.495  16.893  0.00  0.00    +0.000 A 
ATOM      4  C   UNL     1       4.504   4.164  16.724  0.00  0.00    +0.000 A 
ATOM      5  C   UNL     1       4.111   3.147  17.578  0.00  0.00    +0.000 A 
ATOM      6  C   UNL     1       3.305   3.490  18.669  0.00  0.00    +0.000 A 
ATOM      7  C   UNL     1       2.919   4.842  18.851  0.00  0.00    +0.000 A 
ATOM      8  C   UNL     1       3.327   5.871  17.973  0.00  0.00    +0.000 A 
ATOM      9  C   UNL     1       5.683   4.148  15.826  0.00  0.00    +0.000 C 
ATOM     10  O   UNL     1       6.261   3.134  15.481  0.00  0.00    +0.000 OA
ENDROOT
BRANCH   1  15
ATOM     11  C   UNL     1       7.904   7.937  17.751  0.00  0.00    +0.000 A 
ATOM     12  C   UNL     1       7.924   7.204  18.947  0.00  0.00    +0.000 A 
ATOM     13  C   UNL     1       7.748   5.824  18.938  0.00  0.00    +0.000 A 
ATOM     14  C   UNL     1       7.422   5.175  17.751  0.00  0.00    +0.000 A 
ATOM     15  C   UNL     1       7.149   5.932  16.602  0.00  0.00    +0.000 A 
ATOM     16  C   UNL     1       7.537   7.279  16.567  0.00  0.00    +0.000 A 
BRANCH  11  17
ATOM     17  C   UNL     1       8.104   9.433  17.755  0.00  0.00    +0.000 C 
BRANCH  17  18
ATOM     18  S   UNL     1       9.119  10.012  19.148  0.00  0.00    +0.000 S 
BRANCH  18  24
ATOM     19  C   UNL     1       8.191  12.682  17.632  0.00  0.00    +0.000 C 
ATOM     20  N   UNL     1       9.581  12.322  17.783  0.00  0.00    +0.000 N 
ATOM     21  C   UNL     1      10.626  13.069  17.308  0.00  0.00    +0.000 A 
ATOM     22  N   UNL     1      11.779  12.514  17.578  0.00  0.00    +0.000 NA
ATOM     23  C   UNL     1      11.472  11.365  18.256  0.00  0.00    +0.000 A 
ATOM     24  C   UNL     1      10.109  11.222  18.403  0.00  0.00    +0.000 A 
ENDBRANCH  18  24
ENDBRANCH  17  18
ENDBRANCH  11  17
ENDBRANCH   1  15
BRANCH   8  25
ATOM     25  C   UNL     1       2.995   7.301  18.315  0.00  0.00    +0.000 C 
ATOM     26  F   UNL     1       1.919   7.799  17.646  0.00  0.00    +0.000 F 
ATOM     27  F   UNL     1       2.715   7.467  19.635  0.00  0.00    +0.000 F 
ATOM     28  F   UNL     1       4.024   8.151  18.039  0.00  0.00    +0.000 F 
ENDBRANCH   8  25
BRANCH   6  29
ATOM     29  C   UNL     1       2.909   2.453  19.686  0.00  0.00    +0.000 C 
BRANCH  29  30
ATOM     30  O   UNL     1       1.557   2.065  19.486  0.00  0.00    +0.000 OA
ATOM     31  H   UNL     1       1.182   1.861  20.359  0.00  0.00    +0.000 HD
ENDBRANCH  29  30
ENDBRANCH   6  29
TORSDOF 7
ENDMDL
MODEL 5
REMARK VINA RESULT:      -8.0      1.107      1.426
REMARK  Name = 
REMARK  8 active torsions:
REMARK  status: ('A' for Active; 'I' for Inactive)
REMARK    1  A    between atoms: C_1  and  N_2
REMARK    2  A    between atoms: C_6  and  S_7
REMARK    3  A    between atoms: S_7  and  C_8
REMARK    4  A    between atoms: C_8  and  C_9
REMARK    5  A    between atoms: C_13  and  N_14
REMARK    6  A    between atoms: C_19  and  C_20
REMARK    7  A    between atoms: C_20  and  O_21
REMARK    8  A    between atoms: C_23  and  C_24
REMARK                            x       y       z     vdW  Elec       q    Type
REMARK                         _______ _______ _______ _____ _____    ______ ____
ROOT
ATOM      1  N   UNL     1       3.659   4.633  19.280  0.00  0.00    +0.000 N 
ATOM      2  C   UNL     1       5.056   5.125  19.310  0.00  0.00    +0.000 C 
ATOM      3  C   UNL     1       5.482   4.956  17.884  0.00  0.00    +0.000 A 
ATOM      4  C   UNL     1       4.728   3.910  17.348  0.00  0.00    +0.000 A 
ATOM      5  C   UNL     1       4.754   3.569  16.006  0.00  0.00    +0.000 A 
ATOM      6  C   UNL     1       5.565   4.330  15.158  0.00  0.00    +0.000 A 
ATOM      7  C   UNL     1       6.325   5.399  15.695  0.00  0.00    +0.000 A 
ATOM      8  C   UNL     1       6.289   5.739  17.066  0.00  0.00    +0.000 A 
ATOM      9  C   UNL     1       3.648   3.593  18.312  0.00  0.00    +0.000 C 
ATOM     10  O   UNL     1       2.815   2.724  18.138  0.00  0.00    +0.000 OA
ENDROOT
BRANCH   1  15
ATOM     11  C   UNL     1       1.872   7.716  20.145  0.00  0.00    +0.000 A 
ATOM     12  C   UNL     1       2.201   8.460  19.001  0.00  0.00    +0.000 A 
ATOM     13  C   UNL     1       2.608   7.823  17.834  0.00  0.00    +0.000 A 
ATOM     14  C   UNL     1       2.816   6.448  17.831  0.00  0.00    +0.000 A 
ATOM     15  C   UNL     1       2.737   5.734  19.036  0.00  0.00    +0.000 A 
ATOM     16  C   UNL     1       2.123   6.336  20.143  0.00  0.00    +0.000 A 
BRANCH  11  17
ATOM     17  C   UNL     1       1.421   8.403  21.412  0.00  0.00    +0.000 C 
BRANCH  17  18
ATOM     18  S   UNL     1      -0.222   9.166  21.262  0.00  0.00    +0.000 S 
BRANCH  18  24
ATOM     19  C   UNL     1      -1.299  10.291  18.458  0.00  0.00    +0.000 C 
ATOM     20  N   UNL     1      -0.388  11.038  19.291  0.00  0.00    +0.000 N 
ATOM     21  C   UNL     1       0.099  12.279  18.980  0.00  0.00    +0.000 A 
ATOM     22  N   UNL     1       0.908  12.727  19.905  0.00  0.00    +0.000 NA
ATOM     23  C   UNL     1       0.947  11.742  20.854  0.00  0.00    +0.000 A 
ATOM     24  C   UNL     1       0.144  10.678  20.500  0.00  0.00    +0.000 A 
ENDBRANCH  18  24
ENDBRANCH  17  18
ENDBRANCH  11  17
ENDBRANCH   1  15
BRANCH   8  25
ATOM     25  C   UNL     1       7.011   6.977  17.534  0.00  0.00    +0.000 C 
ATOM     26  F   UNL     1       7.949   7.439  16.662  0.00  0.00    +0.000 F 
ATOM     27  F   UNL     1       6.164   8.020  17.749  0.00  0.00    +0.000 F 
ATOM     28  F   UNL     1       7.669   6.779  18.710  0.00  0.00    +0.000 F 
ENDBRANCH   8  25
BRANCH   6  29
ATOM     29  C   UNL     1       5.580   4.071  13.674  0.00  0.00    +0.000 C 
BRANCH  29  30
ATOM     30  O   UNL     1       6.582   3.114  13.356  0.00  0.00    +0.000 OA
ATOM     31  H   UNL     1       7.217   3.107  14.092  0.00  0.00    +0.000 HD
ENDBRANCH  29  30
ENDBRANCH   6  29
TORSDOF 7
ENDMDL
MODEL 6
REMARK VINA RESULT:      -7.9      4.174      8.140
REMARK  Name = 
REMARK  8 active torsions:
REMARK  status: ('A' for Active; 'I' for Inactive)
REMARK    1  A    between atoms: C_1  and  N_2
REMARK    2  A    between atoms: C_6  and  S_7
REMARK    3  A    between atoms: S_7  and  C_8
REMARK    4  A    between atoms: C_8  and  C_9
REMARK    5  A    between atoms: C_13  and  N_14
REMARK    6  A    between atoms: C_19  and  C_20
REMARK    7  A    between atoms: C_20  and  O_21
REMARK    8  A    between atoms: C_23  and  C_24
REMARK                            x       y       z     vdW  Elec       q    Type
REMARK                         _______ _______ _______ _____ _____    ______ ____
ROOT
ATOM      1  N   UNL     1       2.559   7.615  19.361  0.00  0.00    +0.000 N 
ATOM      2  C   UNL     1       2.218   8.388  20.578  0.00  0.00    +0.000 C 
ATOM      3  C   UNL     1       1.072   9.230  20.107  0.00  0.00    +0.000 A 
ATOM      4  C   UNL     1       1.231   9.415  18.732  0.00  0.00    +0.000 A 
ATOM      5  C   UNL     1       0.279  10.027  17.936  0.00  0.00    +0.000 A 
ATOM      6  C   UNL     1      -0.902  10.458  18.550  0.00  0.00    +0.000 A 
ATOM      7  C   UNL     1      -1.074  10.263  19.943  0.00  0.00    +0.000 A 
ATOM      8  C   UNL     1      -0.095   9.636  20.746  0.00  0.00    +0.000 A 
ATOM      9  C   UNL     1       2.295   8.490  18.274  0.00  0.00    +0.000 C 
ATOM     10  O   UNL     1       2.672   8.406  17.120  0.00  0.00    +0.000 OA
ENDROOT
BRANCH   1  15
ATOM     11  C   UNL     1       2.039   4.104  18.437  0.00  0.00    +0.000 A 
ATOM     12  C   UNL     1       1.794   3.597  19.722  0.00  0.00    +0.000 A 
ATOM     13  C   UNL     1       1.390   4.441  20.752  0.00  0.00    +0.000 A 
ATOM     14  C   UNL     1       1.348   5.816  20.546  0.00  0.00    +0.000 A 
ATOM     15  C   UNL     1       1.836   6.349  19.344  0.00  0.00    +0.000 A 
ATOM     16  C   UNL     1       2.032   5.494  18.251  0.00  0.00    +0.000 A 
BRANCH  11  17
ATOM     17  C   UNL     1       2.470   3.191  17.314  0.00  0.00    +0.000 C 
BRANCH  17  18
ATOM     18  S   UNL     1       4.230   2.739  17.399  0.00  0.00    +0.000 S 
BRANCH  18  24
ATOM     19  C   UNL     1       5.595   5.088  19.105  0.00  0.00    +0.000 C 
ATOM     20  N   UNL     1       5.551   5.105  17.662  0.00  0.00    +0.000 N 
ATOM     21  C   UNL     1       6.079   6.104  16.888  0.00  0.00    +0.000 A 
ATOM     22  N   UNL     1       5.900   5.873  15.613  0.00  0.00    +0.000 NA
ATOM     23  C   UNL     1       5.232   4.680  15.556  0.00  0.00    +0.000 A 
ATOM     24  C   UNL     1       5.005   4.176  16.819  0.00  0.00    +0.000 A 
ENDBRANCH  18  24
ENDBRANCH  17  18
ENDBRANCH  11  17
ENDBRANCH   1  15
BRANCH   8  25
ATOM     25  C   UNL     1      -0.411   9.336  22.189  0.00  0.00    +0.000 C 
ATOM     26  F   UNL     1      -1.281  10.211  22.763  0.00  0.00    +0.000 F 
ATOM     27  F   UNL     1      -0.968   8.105  22.352  0.00  0.00    +0.000 F 
ATOM     28  F   UNL     1       0.700   9.353  22.977  0.00  0.00    +0.000 F 
ENDBRANCH   8  25
BRANCH   6  29
ATOM     29  C   UNL     1      -2.018  11.055  17.733  0.00  0.00    +0.000 C 
BRANCH  29  30
ATOM     30  O   UNL     1      -1.604  12.296  17.176  0.00  0.00    +0.000 OA
ATOM     31  H   UNL     1      -2.405  12.825  17.024  0.00  0.00    +0.000 HD
ENDBRANCH  29  30
ENDBRANCH   6  29
TORSDOF 7
ENDMDL
MODEL 7
REMARK VINA RESULT:      -7.8      0.982      1.101
REMARK  Name = 
REMARK  8 active torsions:
REMARK  status: ('A' for Active; 'I' for Inactive)
REMARK    1  A    between atoms: C_1  and  N_2
REMARK    2  A    between atoms: C_6  and  S_7
REMARK    3  A    between atoms: S_7  and  C_8
REMARK    4  A    between atoms: C_8  and  C_9
REMARK    5  A    between atoms: C_13  and  N_14
REMARK    6  A    between atoms: C_19  and  C_20
REMARK    7  A    between atoms: C_20  and  O_21
REMARK    8  A    between atoms: C_23  and  C_24
REMARK                            x       y       z     vdW  Elec       q    Type
REMARK                         _______ _______ _______ _____ _____    ______ ____
ROOT
ATOM      1  N   UNL     1       3.083   4.038  18.838  0.00  0.00    +0.000 N 
ATOM      2  C   UNL     1       4.465   4.149  19.363  0.00  0.00    +0.000 C 
ATOM      3  C   UNL     1       5.278   4.186  18.105  0.00  0.00    +0.000 A 
ATOM      4  C   UNL     1       4.558   3.500  17.125  0.00  0.00    +0.000 A 
ATOM      5  C   UNL     1       4.941   3.456  15.795  0.00  0.00    +0.000 A 
ATOM      6  C   UNL     1       6.097   4.153  15.429  0.00  0.00    +0.000 A 
ATOM      7  C   UNL     1       6.826   4.859  16.418  0.00  0.00    +0.000 A 
ATOM      8  C   UNL     1       6.425   4.898  17.771  0.00  0.00    +0.000 A 
ATOM      9  C   UNL     1       3.192   3.265  17.653  0.00  0.00    +0.000 C 
ATOM     10  O   UNL     1       2.315   2.689  17.036  0.00  0.00    +0.000 OA
ENDROOT
BRANCH   1  15
ATOM     11  C   UNL     1       1.984   7.340  19.995  0.00  0.00    +0.000 A 
ATOM     12  C   UNL     1       2.633   8.115  19.021  0.00  0.00    +0.000 A 
ATOM     13  C   UNL     1       3.032   7.549  17.815  0.00  0.00    +0.000 A 
ATOM     14  C   UNL     1       2.904   6.178  17.616  0.00  0.00    +0.000 A 
ATOM     15  C   UNL     1       2.493   5.361  18.679  0.00  0.00    +0.000 A 
ATOM     16  C   UNL     1       1.895   5.954  19.800  0.00  0.00    +0.000 A 
BRANCH  11  17
ATOM     17  C   UNL     1       1.541   7.952  21.302  0.00  0.00    +0.000 C 
BRANCH  17  18
ATOM     18  S   UNL     1      -0.258   8.195  21.401  0.00  0.00    +0.000 S 
BRANCH  18  24
ATOM     19  C   UNL     1       0.171  10.853  19.658  0.00  0.00    +0.000 C 
ATOM     20  N   UNL     1      -0.168  10.895  21.061  0.00  0.00    +0.000 N 
ATOM     21  C   UNL     1      -0.341  12.049  21.777  0.00  0.00    +0.000 A 
ATOM     22  N   UNL     1      -0.640  11.802  23.027  0.00  0.00    +0.000 NA
ATOM     23  C   UNL     1      -0.664  10.437  23.125  0.00  0.00    +0.000 A 
ATOM     24  C   UNL     1      -0.379   9.845  21.914  0.00  0.00    +0.000 A 
ENDBRANCH  18  24
ENDBRANCH  17  18
ENDBRANCH  11  17
ENDBRANCH   1  15
BRANCH   8  25
ATOM     25  C   UNL     1       7.171   5.788  18.733  0.00  0.00    +0.000 C 
ATOM     26  F   UNL     1       8.389   5.308  19.107  0.00  0.00    +0.000 F 
ATOM     27  F   UNL     1       7.406   7.025  18.219  0.00  0.00    +0.000 F 
ATOM     28  F   UNL     1       6.484   5.988  19.893  0.00  0.00    +0.000 F 
ENDBRANCH   8  25
BRANCH   6  29
ATOM     29  C   UNL     1       6.528   4.220  13.987  0.00  0.00    +0.000 C 
BRANCH  29  30
ATOM     30  O   UNL     1       7.427   5.304  13.798  0.00  0.00    +0.000 OA
ATOM     31  H   UNL     1       7.067   6.066  14.282  0.00  0.00    +0.000 HD
ENDBRANCH  29  30
ENDBRANCH   6  29
TORSDOF 7
ENDMDL
MODEL 8
REMARK VINA RESULT:      -7.6      4.668      9.105
REMARK  Name = 
REMARK  8 active torsions:
REMARK  status: ('A' for Active; 'I' for Inactive)
REMARK    1  A    between atoms: C_1  and  N_2
REMARK    2  A    between atoms: C_6  and  S_7
REMARK    3  A    between atoms: S_7  and  C_8
REMARK    4  A    between atoms: C_8  and  C_9
REMARK    5  A    between atoms: C_13  and  N_14
REMARK    6  A    between atoms: C_19  and  C_20
REMARK    7  A    between atoms: C_20  and  O_21
REMARK    8  A    between atoms: C_23  and  C_24
REMARK                            x       y       z     vdW  Elec       q    Type
REMARK                         _______ _______ _______ _____ _____    ______ ____
ROOT
ATOM      1  N   UNL     1       0.297   9.092  20.794  0.00  0.00    +0.000 N 
ATOM      2  C   UNL     1      -0.938   9.090  19.975  0.00  0.00    +0.000 C 
ATOM      3  C   UNL     1      -1.016  10.514  19.517  0.00  0.00    +0.000 A 
ATOM      4  C   UNL     1      -0.373  11.295  20.479  0.00  0.00    +0.000 A 
ATOM      5  C   UNL     1      -0.128  12.648  20.317  0.00  0.00    +0.000 A 
ATOM      6  C   UNL     1      -0.534  13.242  19.117  0.00  0.00    +0.000 A 
ATOM      7  C   UNL     1      -1.179  12.452  18.132  0.00  0.00    +0.000 A 
ATOM      8  C   UNL     1      -1.422  11.072  18.309  0.00  0.00    +0.000 A 
ATOM      9  C   UNL     1       0.346  10.378  21.396  0.00  0.00    +0.000 C 
ATOM     10  O   UNL     1       1.009  10.749  22.346  0.00  0.00    +0.000 OA
ENDROOT
BRANCH   1  15
ATOM     11  C   UNL     1       2.543   6.759  19.073  0.00  0.00    +0.000 A 
ATOM     12  C   UNL     1       2.530   7.370  17.810  0.00  0.00    +0.000 A 
ATOM     13  C   UNL     1       2.161   8.704  17.671  0.00  0.00    +0.000 A 
ATOM     14  C   UNL     1       1.679   9.408  18.770  0.00  0.00    +0.000 A 
ATOM     15  C   UNL     1       1.449   8.732  19.977  0.00  0.00    +0.000 A 
ATOM     16  C   UNL     1       2.019   7.465  20.166  0.00  0.00    +0.000 A 
BRANCH  11  17
ATOM     17  C   UNL     1       2.951   5.313  19.230  0.00  0.00    +0.000 C 
BRANCH  17  18
ATOM     18  S   UNL     1       3.682   4.612  17.720  0.00  0.00    +0.000 S 
BRANCH  18  24
ATOM     19  C   UNL     1       6.130   3.972  15.749  0.00  0.00    +0.000 C 
ATOM     20  N   UNL     1       6.328   4.441  17.100  0.00  0.00    +0.000 N 
ATOM     21  C   UNL     1       7.555   4.660  17.666  0.00  0.00    +0.000 A 
ATOM     22  N   UNL     1       7.449   5.080  18.901  0.00  0.00    +0.000 NA
ATOM     23  C   UNL     1       6.103   5.138  19.144  0.00  0.00    +0.000 A 
ATOM     24  C   UNL     1       5.380   4.750  18.037  0.00  0.00    +0.000 A 
ENDBRANCH  18  24
ENDBRANCH  17  18
ENDBRANCH  11  17
ENDBRANCH   1  15
BRANCH   8  25
ATOM     25  C   UNL     1      -1.981  10.271  17.160  0.00  0.00    +0.000 C 
ATOM     26  F   UNL     1      -1.133   9.322  16.677  0.00  0.00    +0.000 F 
ATOM     27  F   UNL     1      -3.120   9.608  17.496  0.00  0.00    +0.000 F 
ATOM     28  F   UNL     1      -2.302  11.053  16.091  0.00  0.00    +0.000 F 
ENDBRANCH   8  25
BRANCH   6  29
ATOM     29  C   UNL     1      -0.226  14.689  18.834  0.00  0.00    +0.000 C 
BRANCH  29  30
ATOM     30  O   UNL     1      -1.305  15.509  19.263  0.00  0.00    +0.000 OA
ATOM     31  H   UNL     1      -1.935  15.565  18.525  0.00  0.00    +0.000 HD
ENDBRANCH  29  30
ENDBRANCH   6  29
TORSDOF 7
ENDMDL
MODEL 9
REMARK VINA RESULT:      -7.5      4.157      8.130
REMARK  Name = 
REMARK  8 active torsions:
REMARK  status: ('A' for Active; 'I' for Inactive)
REMARK    1  A    between atoms: C_1  and  N_2
REMARK    2  A    between atoms: C_6  and  S_7
REMARK    3  A    between atoms: S_7  and  C_8
REMARK    4  A    between atoms: C_8  and  C_9
REMARK    5  A    between atoms: C_13  and  N_14
REMARK    6  A    between atoms: C_19  and  C_20
REMARK    7  A    between atoms: C_20  and  O_21
REMARK    8  A    between atoms: C_23  and  C_24
REMARK                            x       y       z     vdW  Elec       q    Type
REMARK                         _______ _______ _______ _____ _____    ______ ____
ROOT
ATOM      1  N   UNL     1       2.527   7.447  19.360  0.00  0.00    +0.000 N 
ATOM      2  C   UNL     1       2.221   8.233  20.579  0.00  0.00    +0.000 C 
ATOM      3  C   UNL     1       1.122   9.134  20.105  0.00  0.00    +0.000 A 
ATOM      4  C   UNL     1       1.297   9.316  18.732  0.00  0.00    +0.000 A 
ATOM      5  C   UNL     1       0.381   9.979  17.933  0.00  0.00    +0.000 A 
ATOM      6  C   UNL     1      -0.779  10.468  18.544  0.00  0.00    +0.000 A 
ATOM      7  C   UNL     1      -0.966  10.278  19.935  0.00  0.00    +0.000 A 
ATOM      8  C   UNL     1      -0.025   9.598  20.740  0.00  0.00    +0.000 A 
ATOM      9  C   UNL     1       2.314   8.338  18.275  0.00  0.00    +0.000 C 
ATOM     10  O   UNL     1       2.691   8.239  17.123  0.00  0.00    +0.000 OA
ENDROOT
BRANCH   1  15
ATOM     11  C   UNL     1       1.844   3.962  18.444  0.00  0.00    +0.000 A 
ATOM     12  C   UNL     1       1.547   3.477  19.727  0.00  0.00    +0.000 A 
ATOM     13  C   UNL     1       1.168   4.347  20.744  0.00  0.00    +0.000 A 
ATOM     14  C   UNL     1       1.202   5.721  20.531  0.00  0.00    +0.000 A 
ATOM     15  C   UNL     1       1.740   6.221  19.336  0.00  0.00    +0.000 A 
ATOM     16  C   UNL     1       1.912   5.349  18.251  0.00  0.00    +0.000 A 
BRANCH  11  17
ATOM     17  C   UNL     1       2.248   3.021  17.335  0.00  0.00    +0.000 C 
BRANCH  17  18
ATOM     18  S   UNL     1       3.798   2.136  17.682  0.00  0.00    +0.000 S 
BRANCH  18  24
ATOM     19  C   UNL     1       5.522   4.058  15.778  0.00  0.00    +0.000 C 
ATOM     20  N   UNL     1       5.544   4.174  17.217  0.00  0.00    +0.000 N 
ATOM     21  C   UNL     1       6.285   5.098  17.904  0.00  0.00    +0.000 A 
ATOM     22  N   UNL     1       6.124   4.982  19.197  0.00  0.00    +0.000 NA
ATOM     23  C   UNL     1       5.244   3.945  19.356  0.00  0.00    +0.000 A 
ATOM     24  C   UNL     1       4.862   3.425  18.138  0.00  0.00    +0.000 A 
ENDBRANCH  18  24
ENDBRANCH  17  18
ENDBRANCH  11  17
ENDBRANCH   1  15
BRANCH   8  25
ATOM     25  C   UNL     1      -0.363   9.310  22.181  0.00  0.00    +0.000 C 
ATOM     26  F   UNL     1      -1.228  10.201  22.740  0.00  0.00    +0.000 F 
ATOM     27  F   UNL     1      -0.940   8.088  22.343  0.00  0.00    +0.000 F 
ATOM     28  F   UNL     1       0.738   9.316  22.983  0.00  0.00    +0.000 F 
ENDBRANCH   8  25
BRANCH   6  29
ATOM     29  C   UNL     1      -1.858  11.125  17.724  0.00  0.00    +0.000 C 
BRANCH  29  30
ATOM     30  O   UNL     1      -2.152  12.413  18.247  0.00  0.00    +0.000 OA
ATOM     31  H   UNL     1      -2.789  12.292  18.972  0.00  0.00    +0.000 HD
ENDBRANCH  29  30
ENDBRANCH   6  29
TORSDOF 7
ENDMDL
