MODEL 1
REMARK VINA RESULT:      -8.4      0.000      0.000
REMARK  Name = 
REMARK  2 active torsions:
REMARK  status: ('A' for Active; 'I' for Inactive)
REMARK    1  A    between atoms: C_7  and  S_8
REMARK    2  A    between atoms: S_8  and  N_11
REMARK                            x       y       z     vdW  Elec       q    Type
REMARK                         _______ _______ _______ _____ _____    ______ ____
ROOT
ATOM      1  S   UNL     1       3.090   3.410  18.022  0.00  0.00    +0.000 S 
ATOM      2  O   UNL     1       3.197   2.412  19.048  0.00  0.00    +0.000 OA
ATOM      3  O   UNL     1       2.228   3.202  16.879  0.00  0.00    +0.000 OA
ENDROOT
BRANCH   1  10
ATOM      4  O   UNL     1       1.147  10.794  20.418  0.00  0.00    +0.000 OA
ATOM      5  C   UNL     1       1.298   9.730  19.823  0.00  0.00    +0.000 C 
ATOM      6  C   UNL     1       1.188   9.613  18.321  0.00  0.00    +0.000 C 
ATOM      7  C   UNL     1       2.128   8.562  17.747  0.00  0.00    +0.000 C 
ATOM      8  C   UNL     1       2.126   7.296  18.558  0.00  0.00    +0.000 A 
ATOM      9  C   UNL     1       2.562   6.087  17.996  0.00  0.00    +0.000 A 
ATOM     10  C   UNL     1       2.590   4.921  18.770  0.00  0.00    +0.000 A 
ATOM     11  C   UNL     1       2.169   4.971  20.092  0.00  0.00    +0.000 A 
ATOM     12  F   UNL     1       2.111   3.877  20.857  0.00  0.00    +0.000 F 
ATOM     13  C   UNL     1       1.783   6.175  20.677  0.00  0.00    +0.000 A 
ATOM     14  C   UNL     1       1.775   7.336  19.912  0.00  0.00    +0.000 A 
ATOM     15  N   UNL     1       1.444   8.553  20.509  0.00  0.00    +0.000 N 
ATOM     16  H   UNL     1       1.363   8.627  21.516  0.00  0.00    +0.000 HD
ENDBRANCH   1  10
BRANCH   1  17
ATOM     17  N   UNL     1       4.616   3.689  17.370  0.00  0.00    +0.000 NA
ATOM     18  C   UNL     1       5.756   3.950  18.240  0.00  0.00    +0.000 C 
ATOM     19  C   UNL     1       6.559   5.104  17.613  0.00  0.00    +0.000 C 
ATOM     20  C   UNL     1       8.026   4.917  18.240  0.00  0.00    +0.000 C 
ATOM     21  C   UNL     1       7.584   5.972  19.304  0.00  0.00    +0.000 C 
ATOM     22  C   UNL     1       6.773   6.577  18.170  0.00  0.00    +0.000 C 
ATOM     23  C   UNL     1       5.836   5.413  16.283  0.00  0.00    +0.000 C 
ATOM     24  C   UNL     1       6.669   5.391  15.035  0.00  0.00    +0.000 C 
ATOM     25  O   UNL     1       6.738   4.023  14.633  0.00  0.00    +0.000 OA
ATOM     26  C   UNL     1       5.527   3.371  15.065  0.00  0.00    +0.000 C 
ATOM     27  C   UNL     1       4.827   4.297  16.058  0.00  0.00    +0.000 C 
ENDBRANCH   1  17
TORSDOF 2
ENDMDL
MODEL 2
REMARK VINA RESULT:      -8.0      1.459      2.632
REMARK  Name = 
REMARK  2 active torsions:
REMARK  status: ('A' for Active; 'I' for Inactive)
REMARK    1  A    between atoms: C_7  and  S_8
REMARK    2  A    between atoms: S_8  and  N_11
REMARK                            x       y       z     vdW  Elec       q    Type
REMARK                         _______ _______ _______ _____ _____    ______ ____
ROOT
ATOM      1  S   UNL     1       2.941   4.867  18.649  0.00  0.00    +0.000 S 
ATOM      2  O   UNL     1       3.095   3.938  19.731  0.00  0.00    +0.000 OA
ATOM      3  O   UNL     1       2.127   4.532  17.501  0.00  0.00    +0.000 OA
ENDROOT
BRANCH   1  10
ATOM      4  O   UNL     1       0.458  12.216  20.620  0.00  0.00    +0.000 OA
ATOM      5  C   UNL     1       0.709  11.143  20.077  0.00  0.00    +0.000 C 
ATOM      6  C   UNL     1       0.732  10.974  18.576  0.00  0.00    +0.000 C 
ATOM      7  C   UNL     1       1.765   9.955  18.118  0.00  0.00    +0.000 C 
ATOM      8  C   UNL     1       1.754   8.715  18.969  0.00  0.00    +0.000 A 
ATOM      9  C   UNL     1       2.291   7.512  18.487  0.00  0.00    +0.000 A 
ATOM     10  C   UNL     1       2.309   6.373  19.301  0.00  0.00    +0.000 A 
ATOM     11  C   UNL     1       1.777   6.443  20.581  0.00  0.00    +0.000 A 
ATOM     12  F   UNL     1       1.705   5.371  21.376  0.00  0.00    +0.000 F 
ATOM     13  C   UNL     1       1.286   7.643  21.090  0.00  0.00    +0.000 A 
ATOM     14  C   UNL     1       1.288   8.779  20.287  0.00  0.00    +0.000 A 
ATOM     15  N   UNL     1       0.852   9.996  20.813  0.00  0.00    +0.000 N 
ATOM     16  H   UNL     1       0.682  10.097  21.806  0.00  0.00    +0.000 HD
ENDBRANCH   1  10
BRANCH   1  17
ATOM     17  N   UNL     1       4.458   5.226  18.016  0.00  0.00    +0.000 NA
ATOM     18  C   UNL     1       4.629   5.451  16.585  0.00  0.00    +0.000 C 
ATOM     19  C   UNL     1       5.911   4.717  16.155  0.00  0.00    +0.000 C 
ATOM     20  C   UNL     1       6.340   5.483  14.809  0.00  0.00    +0.000 C 
ATOM     21  C   UNL     1       5.586   4.344  14.053  0.00  0.00    +0.000 C 
ATOM     22  C   UNL     1       6.055   3.458  15.196  0.00  0.00    +0.000 C 
ATOM     23  C   UNL     1       6.495   4.137  17.463  0.00  0.00    +0.000 C 
ATOM     24  C   UNL     1       7.917   4.490  17.787  0.00  0.00    +0.000 C 
ATOM     25  O   UNL     1       7.871   5.768  18.422  0.00  0.00    +0.000 OA
ATOM     26  C   UNL     1       6.608   5.876  19.109  0.00  0.00    +0.000 C 
ATOM     27  C   UNL     1       5.705   4.750  18.609  0.00  0.00    +0.000 C 
ENDBRANCH   1  17
TORSDOF 2
ENDMDL
MODEL 3
REMARK VINA RESULT:      -7.6      2.024      3.334
REMARK  Name = 
REMARK  2 active torsions:
REMARK  status: ('A' for Active; 'I' for Inactive)
REMARK    1  A    between atoms: C_7  and  S_8
REMARK    2  A    between atoms: S_8  and  N_11
REMARK                            x       y       z     vdW  Elec       q    Type
REMARK                         _______ _______ _______ _____ _____    ______ ____
ROOT
ATOM      1  S   UNL     1       2.950   5.272  18.820  0.00  0.00    +0.000 S 
ATOM      2  O   UNL     1       3.079   4.597  20.080  0.00  0.00    +0.000 OA
ATOM      3  O   UNL     1       2.171   4.689  17.750  0.00  0.00    +0.000 OA
ENDROOT
BRANCH   1  10
ATOM      4  O   UNL     1      -0.477  12.111  21.170  0.00  0.00    +0.000 OA
ATOM      5  C   UNL     1       0.152  11.061  21.069  0.00  0.00    +0.000 C 
ATOM      6  C   UNL     1       0.531  10.218  22.264  0.00  0.00    +0.000 C 
ATOM      7  C   UNL     1       0.541   8.729  21.949  0.00  0.00    +0.000 C 
ATOM      8  C   UNL     1       1.208   8.432  20.634  0.00  0.00    +0.000 A 
ATOM      9  C   UNL     1       1.704   7.150  20.357  0.00  0.00    +0.000 A 
ATOM     10  C   UNL     1       2.291   6.875  19.116  0.00  0.00    +0.000 A 
ATOM     11  C   UNL     1       2.389   7.886  18.171  0.00  0.00    +0.000 A 
ATOM     12  F   UNL     1       3.000   7.699  16.997  0.00  0.00    +0.000 F 
ATOM     13  C   UNL     1       1.855   9.149  18.414  0.00  0.00    +0.000 A 
ATOM     14  C   UNL     1       1.255   9.415  19.639  0.00  0.00    +0.000 A 
ATOM     15  N   UNL     1       0.668  10.661  19.864  0.00  0.00    +0.000 N 
ATOM     16  H   UNL     1       0.537  11.314  19.101  0.00  0.00    +0.000 HD
ENDBRANCH   1  10
BRANCH   1  17
ATOM     17  N   UNL     1       4.483   5.504  18.165  0.00  0.00    +0.000 NA
ATOM     18  C   UNL     1       4.658   5.647  16.725  0.00  0.00    +0.000 C 
ATOM     19  C   UNL     1       5.890   4.816  16.327  0.00  0.00    +0.000 C 
ATOM     20  C   UNL     1       6.357   5.486  14.943  0.00  0.00    +0.000 C 
ATOM     21  C   UNL     1       5.529   4.360  14.247  0.00  0.00    +0.000 C 
ATOM     22  C   UNL     1       5.950   3.504  15.431  0.00  0.00    +0.000 C 
ATOM     23  C   UNL     1       6.445   4.266  17.660  0.00  0.00    +0.000 C 
ATOM     24  C   UNL     1       7.888   4.545  17.962  0.00  0.00    +0.000 C 
ATOM     25  O   UNL     1       7.925   5.853  18.532  0.00  0.00    +0.000 OA
ATOM     26  C   UNL     1       6.676   6.073  19.218  0.00  0.00    +0.000 C 
ATOM     27  C   UNL     1       5.702   4.981  18.777  0.00  0.00    +0.000 C 
ENDBRANCH   1  17
TORSDOF 2
ENDMDL
MODEL 4
REMARK VINA RESULT:      -7.6      3.433      8.207
REMARK  Name = 
REMARK  2 active torsions:
REMARK  status: ('A' for Active; 'I' for Inactive)
REMARK    1  A    between atoms: C_7  and  S_8
REMARK    2  A    between atoms: S_8  and  N_11
REMARK                            x       y       z     vdW  Elec       q    Type
REMARK                         _______ _______ _______ _____ _____    ______ ____
ROOT
ATOM      1  S   UNL     1       0.584   9.546  21.023  0.00  0.00    +0.000 S 
ATOM      2  O   UNL     1      -0.516   9.021  21.779  0.00  0.00    +0.000 OA
ATOM      3  O   UNL     1       1.600  10.352  21.664  0.00  0.00    +0.000 OA
ENDROOT
BRANCH   1  10
ATOM      4  O   UNL     1       4.123   2.830  18.490  0.00  0.00    +0.000 OA
ATOM      5  C   UNL     1       3.369   3.688  18.943  0.00  0.00    +0.000 C 
ATOM      6  C   UNL     1       2.268   3.370  19.926  0.00  0.00    +0.000 C 
ATOM      7  C   UNL     1       2.025   4.500  20.916  0.00  0.00    +0.000 C 
ATOM      8  C   UNL     1       2.009   5.847  20.247  0.00  0.00    +0.000 A 
ATOM      9  C   UNL     1       1.391   6.945  20.864  0.00  0.00    +0.000 A 
ATOM     10  C   UNL     1       1.413   8.202  20.249  0.00  0.00    +0.000 A 
ATOM     11  C   UNL     1       2.038   8.347  19.018  0.00  0.00    +0.000 A 
ATOM     12  F   UNL     1       2.031   9.507  18.354  0.00  0.00    +0.000 F 
ATOM     13  C   UNL     1       2.699   7.277  18.418  0.00  0.00    +0.000 A 
ATOM     14  C   UNL     1       2.693   6.034  19.040  0.00  0.00    +0.000 A 
ATOM     15  N   UNL     1       3.403   4.974  18.472  0.00  0.00    +0.000 N 
ATOM     16  H   UNL     1       4.042   5.137  17.704  0.00  0.00    +0.000 HD
ENDBRANCH   1  10
BRANCH   1  17
ATOM     17  N   UNL     1      -0.016  10.510  19.781  0.00  0.00    +0.000 NA
ATOM     18  C   UNL     1       0.366  11.914  19.683  0.00  0.00    +0.000 C 
ATOM     19  C   UNL     1      -0.904  12.713  19.343  0.00  0.00    +0.000 C 
ATOM     20  C   UNL     1      -0.328  14.056  18.675  0.00  0.00    +0.000 C 
ATOM     21  C   UNL     1      -0.463  14.688  20.097  0.00  0.00    +0.000 C 
ATOM     22  C   UNL     1      -1.672  13.778  20.239  0.00  0.00    +0.000 C 
ATOM     23  C   UNL     1      -2.010  11.647  19.171  0.00  0.00    +0.000 C 
ATOM     24  C   UNL     1      -2.775  11.665  17.881  0.00  0.00    +0.000 C 
ATOM     25  O   UNL     1      -1.983  10.936  16.943  0.00  0.00    +0.000 OA
ATOM     26  C   UNL     1      -1.231   9.946  17.673  0.00  0.00    +0.000 C 
ATOM     27  C   UNL     1      -1.319  10.292  19.158  0.00  0.00    +0.000 C 
ENDBRANCH   1  17
TORSDOF 2
ENDMDL
MODEL 5
REMARK VINA RESULT:      -7.4      3.353      7.999
REMARK  Name = 
REMARK  2 active torsions:
REMARK  status: ('A' for Active; 'I' for Inactive)
REMARK    1  A    between atoms: C_7  and  S_8
REMARK    2  A    between atoms: S_8  and  N_11
REMARK                            x       y       z     vdW  Elec       q    Type
REMARK                         _______ _______ _______ _____ _____    ______ ____
ROOT
ATOM      1  S   UNL     1       0.776   8.842  21.432  0.00  0.00    +0.000 S 
ATOM      2  O   UNL     1      -0.432   8.314  21.999  0.00  0.00    +0.000 OA
ATOM      3  O   UNL     1       1.827   9.354  22.285  0.00  0.00    +0.000 OA
ENDROOT
BRANCH   1  10
ATOM      4  O   UNL     1       3.822   2.443  17.713  0.00  0.00    +0.000 OA
ATOM      5  C   UNL     1       3.135   3.257  18.324  0.00  0.00    +0.000 C 
ATOM      6  C   UNL     1       2.033   2.847  19.272  0.00  0.00    +0.000 C 
ATOM      7  C   UNL     1       1.882   3.807  20.444  0.00  0.00    +0.000 C 
ATOM      8  C   UNL     1       1.942   5.245  20.009  0.00  0.00    +0.000 A 
ATOM      9  C   UNL     1       1.408   6.260  20.818  0.00  0.00    +0.000 A 
ATOM     10  C   UNL     1       1.501   7.599  20.421  0.00  0.00    +0.000 A 
ATOM     11  C   UNL     1       2.112   7.910  19.215  0.00  0.00    +0.000 A 
ATOM     12  F   UNL     1       2.170   9.163  18.754  0.00  0.00    +0.000 F 
ATOM     13  C   UNL     1       2.691   6.918  18.426  0.00  0.00    +0.000 A 
ATOM     14  C   UNL     1       2.615   5.591  18.832  0.00  0.00    +0.000 A 
ATOM     15  N   UNL     1       3.243   4.600  18.074  0.00  0.00    +0.000 N 
ATOM     16  H   UNL     1       3.878   4.850  17.326  0.00  0.00    +0.000 HD
ENDBRANCH   1  10
BRANCH   1  17
ATOM     17  N   UNL     1       0.388  10.118  20.407  0.00  0.00    +0.000 NA
ATOM     18  C   UNL     1       1.006  11.426  20.586  0.00  0.00    +0.000 C 
ATOM     19  C   UNL     1      -0.098  12.484  20.415  0.00  0.00    +0.000 C 
ATOM     20  C   UNL     1       0.719  13.811  20.023  0.00  0.00    +0.000 C 
ATOM     21  C   UNL     1       0.650  14.168  21.541  0.00  0.00    +0.000 C 
ATOM     22  C   UNL     1      -0.700  13.471  21.506  0.00  0.00    +0.000 C 
ATOM     23  C   UNL     1      -1.364  11.680  20.041  0.00  0.00    +0.000 C 
ATOM     24  C   UNL     1      -2.076  12.081  18.782  0.00  0.00    +0.000 C 
ATOM     25  O   UNL     1      -1.391  11.423  17.716  0.00  0.00    +0.000 OA
ATOM     26  C   UNL     1      -0.842  10.194  18.234  0.00  0.00    +0.000 C 
ATOM     27  C   UNL     1      -0.914  10.255  19.759  0.00  0.00    +0.000 C 
ENDBRANCH   1  17
TORSDOF 2
ENDMDL
MODEL 6
REMARK VINA RESULT:      -7.2      5.449     10.720
REMARK  Name = 
REMARK  2 active torsions:
REMARK  status: ('A' for Active; 'I' for Inactive)
REMARK    1  A    between atoms: C_7  and  S_8
REMARK    2  A    between atoms: S_8  and  N_11
REMARK                            x       y       z     vdW  Elec       q    Type
REMARK                         _______ _______ _______ _____ _____    ______ ____
ROOT
ATOM      1  S   UNL     1      -0.872  12.758  20.769  0.00  0.00    +0.000 S 
ATOM      2  O   UNL     1      -0.143  13.590  21.684  0.00  0.00    +0.000 OA
ATOM      3  O   UNL     1      -1.094  13.183  19.404  0.00  0.00    +0.000 OA
ENDROOT
BRANCH   1  10
ATOM      4  O   UNL     1       2.747   5.784  19.251  0.00  0.00    +0.000 OA
ATOM      5  C   UNL     1       2.387   6.957  19.312  0.00  0.00    +0.000 C 
ATOM      6  C   UNL     1       2.695   7.963  18.228  0.00  0.00    +0.000 C 
ATOM      7  C   UNL     1       1.592   8.998  18.061  0.00  0.00    +0.000 C 
ATOM      8  C   UNL     1       1.093   9.513  19.383  0.00  0.00    +0.000 A 
ATOM      9  C   UNL     1       0.417  10.739  19.463  0.00  0.00    +0.000 A 
ATOM     10  C   UNL     1      -0.075  11.192  20.693  0.00  0.00    +0.000 A 
ATOM     11  C   UNL     1       0.125  10.424  21.831  0.00  0.00    +0.000 A 
ATOM     12  F   UNL     1      -0.263  10.838  23.041  0.00  0.00    +0.000 F 
ATOM     13  C   UNL     1       0.750   9.181  21.757  0.00  0.00    +0.000 A 
ATOM     14  C   UNL     1       1.220   8.724  20.532  0.00  0.00    +0.000 A 
ATOM     15  N   UNL     1       1.794   7.454  20.443  0.00  0.00    +0.000 N 
ATOM     16  H   UNL     1       1.733   6.806  21.219  0.00  0.00    +0.000 HD
ENDBRANCH   1  10
BRANCH   1  17
ATOM     17  N   UNL     1      -2.409  12.477  21.392  0.00  0.00    +0.000 NA
ATOM     18  C   UNL     1      -3.523  12.169  20.503  0.00  0.00    +0.000 C 
ATOM     19  C   UNL     1      -4.741  12.969  20.997  0.00  0.00    +0.000 C 
ATOM     20  C   UNL     1      -5.988  12.149  20.402  0.00  0.00    +0.000 C 
ATOM     21  C   UNL     1      -5.954  13.171  19.222  0.00  0.00    +0.000 C 
ATOM     22  C   UNL     1      -5.496  14.167  20.274  0.00  0.00    +0.000 C 
ATOM     23  C   UNL     1      -4.254  13.682  22.279  0.00  0.00    +0.000 C 
ATOM     24  C   UNL     1      -5.062  13.465  23.525  0.00  0.00    +0.000 C 
ATOM     25  O   UNL     1      -4.602  12.234  24.083  0.00  0.00    +0.000 OA
ATOM     26  C   UNL     1      -3.215  12.075  23.722  0.00  0.00    +0.000 C 
ATOM     27  C   UNL     1      -2.897  13.090  22.626  0.00  0.00    +0.000 C 
ENDBRANCH   1  17
TORSDOF 2
ENDMDL
MODEL 7
REMARK VINA RESULT:      -7.2      7.959      9.897
REMARK  Name = 
REMARK  2 active torsions:
REMARK  status: ('A' for Active; 'I' for Inactive)
REMARK    1  A    between atoms: C_7  and  S_8
REMARK    2  A    between atoms: S_8  and  N_11
REMARK                            x       y       z     vdW  Elec       q    Type
REMARK                         _______ _______ _______ _____ _____    ______ ____
ROOT
ATOM      1  S   UNL     1      -3.175  13.019  21.443  0.00  0.00    +0.000 S 
ATOM      2  O   UNL     1      -3.163  14.454  21.399  0.00  0.00    +0.000 OA
ATOM      3  O   UNL     1      -4.004  12.319  22.400  0.00  0.00    +0.000 OA
ENDROOT
BRANCH   1  10
ATOM      4  O   UNL     1      -4.037  10.110  14.038  0.00  0.00    +0.000 OA
ATOM      5  C   UNL     1      -3.750  10.326  15.213  0.00  0.00    +0.000 C 
ATOM      6  C   UNL     1      -2.528   9.737  15.877  0.00  0.00    +0.000 C 
ATOM      7  C   UNL     1      -1.926  10.665  16.922  0.00  0.00    +0.000 C 
ATOM      8  C   UNL     1      -2.976  11.289  17.799  0.00  0.00    +0.000 A 
ATOM      9  C   UNL     1      -2.639  11.811  19.056  0.00  0.00    +0.000 A 
ATOM     10  C   UNL     1      -3.618  12.421  19.850  0.00  0.00    +0.000 A 
ATOM     11  C   UNL     1      -4.924  12.491  19.387  0.00  0.00    +0.000 A 
ATOM     12  F   UNL     1      -5.912  13.000  20.129  0.00  0.00    +0.000 F 
ATOM     13  C   UNL     1      -5.262  12.021  18.119  0.00  0.00    +0.000 A 
ATOM     14  C   UNL     1      -4.285  11.433  17.325  0.00  0.00    +0.000 A 
ATOM     15  N   UNL     1      -4.606  11.015  16.032  0.00  0.00    +0.000 N 
ATOM     16  H   UNL     1      -5.491  11.272  15.613  0.00  0.00    +0.000 HD
ENDBRANCH   1  10
BRANCH   1  17
ATOM     17  N   UNL     1      -1.612  12.468  21.737  0.00  0.00    +0.000 NA
ATOM     18  C   UNL     1      -0.459  13.251  21.308  0.00  0.00    +0.000 C 
ATOM     19  C   UNL     1       0.561  12.271  20.701  0.00  0.00    +0.000 C 
ATOM     20  C   UNL     1       1.954  13.062  20.829  0.00  0.00    +0.000 C 
ATOM     21  C   UNL     1       1.703  13.517  19.356  0.00  0.00    +0.000 C 
ATOM     22  C   UNL     1       1.044  12.157  19.191  0.00  0.00    +0.000 C 
ATOM     23  C   UNL     1      -0.065  10.873  20.899  0.00  0.00    +0.000 C 
ATOM     24  C   UNL     1       0.770   9.848  21.608  0.00  0.00    +0.000 C 
ATOM     25  O   UNL     1       0.583  10.085  23.003  0.00  0.00    +0.000 OA
ATOM     26  C   UNL     1      -0.738  10.631  23.187  0.00  0.00    +0.000 C 
ATOM     27  C   UNL     1      -1.265  11.051  21.816  0.00  0.00    +0.000 C 
ENDBRANCH   1  17
TORSDOF 2
ENDMDL
MODEL 8
REMARK VINA RESULT:      -7.1      3.649      8.764
REMARK  Name = 
REMARK  2 active torsions:
REMARK  status: ('A' for Active; 'I' for Inactive)
REMARK    1  A    between atoms: C_7  and  S_8
REMARK    2  A    between atoms: S_8  and  N_11
REMARK                            x       y       z     vdW  Elec       q    Type
REMARK                         _______ _______ _______ _____ _____    ______ ____
ROOT
ATOM      1  S   UNL     1       0.996  10.755  20.465  0.00  0.00    +0.000 S 
ATOM      2  O   UNL     1       1.231  10.660  21.878  0.00  0.00    +0.000 OA
ATOM      3  O   UNL     1       1.579  11.830  19.693  0.00  0.00    +0.000 OA
ENDROOT
BRANCH   1  10
ATOM      4  O   UNL     1       3.307   3.451  18.149  0.00  0.00    +0.000 OA
ATOM      5  C   UNL     1       2.748   4.432  18.634  0.00  0.00    +0.000 C 
ATOM      6  C   UNL     1       1.876   4.348  19.865  0.00  0.00    +0.000 C 
ATOM      7  C   UNL     1       1.957   5.602  20.725  0.00  0.00    +0.000 C 
ATOM      8  C   UNL     1       1.900   6.859  19.901  0.00  0.00    +0.000 A 
ATOM      9  C   UNL     1       1.530   8.079  20.485  0.00  0.00    +0.000 A 
ATOM     10  C   UNL     1       1.515   9.250  19.717  0.00  0.00    +0.000 A 
ATOM     11  C   UNL     1       1.855   9.188  18.373  0.00  0.00    +0.000 A 
ATOM     12  F   UNL     1       1.793  10.260  17.578  0.00  0.00    +0.000 F 
ATOM     13  C   UNL     1       2.273   7.992  17.794  0.00  0.00    +0.000 A 
ATOM     14  C   UNL     1       2.306   6.834  18.562  0.00  0.00    +0.000 A 
ATOM     15  N   UNL     1       2.779   5.646  18.001  0.00  0.00    +0.000 N 
ATOM     16  H   UNL     1       3.239   5.651  17.099  0.00  0.00    +0.000 HD
ENDBRANCH   1  10
BRANCH   1  17
ATOM     17  N   UNL     1      -0.660  10.872  20.193  0.00  0.00    +0.000 NA
ATOM     18  C   UNL     1      -1.306  10.030  19.193  0.00  0.00    +0.000 C 
ATOM     19  C   UNL     1      -2.296  10.916  18.416  0.00  0.00    +0.000 C 
ATOM     20  C   UNL     1      -3.345   9.858  17.815  0.00  0.00    +0.000 C 
ATOM     21  C   UNL     1      -2.479   9.905  16.516  0.00  0.00    +0.000 C 
ATOM     22  C   UNL     1      -2.239  11.359  16.891  0.00  0.00    +0.000 C 
ATOM     23  C   UNL     1      -2.222  12.295  19.108  0.00  0.00    +0.000 C 
ATOM     24  C   UNL     1      -3.515  12.884  19.592  0.00  0.00    +0.000 C 
ATOM     25  O   UNL     1      -3.759  12.300  20.871  0.00  0.00    +0.000 OA
ATOM     26  C   UNL     1      -2.484  12.001  21.473  0.00  0.00    +0.000 C 
ATOM     27  C   UNL     1      -1.417  12.107  20.385  0.00  0.00    +0.000 C 
ENDBRANCH   1  17
TORSDOF 2
ENDMDL
MODEL 9
REMARK VINA RESULT:      -7.1      5.382     10.485
REMARK  Name = 
REMARK  2 active torsions:
REMARK  status: ('A' for Active; 'I' for Inactive)
REMARK    1  A    between atoms: C_7  and  S_8
REMARK    2  A    between atoms: S_8  and  N_11
REMARK                            x       y       z     vdW  Elec       q    Type
REMARK                         _______ _______ _______ _____ _____    ______ ____
ROOT
ATOM      1  S   UNL     1      -1.257  12.499  19.168  0.00  0.00    +0.000 S 
ATOM      2  O   UNL     1      -0.644  13.637  19.791  0.00  0.00    +0.000 OA
ATOM      3  O   UNL     1      -1.482  12.473  17.739  0.00  0.00    +0.000 OA
ENDROOT
BRANCH   1  10
ATOM      4  O   UNL     1       3.139   5.840  19.784  0.00  0.00    +0.000 OA
ATOM      5  C   UNL     1       2.658   6.934  19.501  0.00  0.00    +0.000 C 
ATOM      6  C   UNL     1       2.927   7.630  18.188  0.00  0.00    +0.000 C 
ATOM      7  C   UNL     1       1.737   8.444  17.703  0.00  0.00    +0.000 C 
ATOM      8  C   UNL     1       1.108   9.244  18.811  0.00  0.00    +0.000 A 
ATOM      9  C   UNL     1       0.308  10.359  18.522  0.00  0.00    +0.000 A 
ATOM     10  C   UNL     1      -0.302  11.075  19.560  0.00  0.00    +0.000 A 
ATOM     11  C   UNL     1      -0.094  10.680  20.874  0.00  0.00    +0.000 A 
ATOM     12  F   UNL     1      -0.595  11.365  21.906  0.00  0.00    +0.000 F 
ATOM     13  C   UNL     1       0.657   9.545  21.171  0.00  0.00    +0.000 A 
ATOM     14  C   UNL     1       1.246   8.823  20.139  0.00  0.00    +0.000 A 
ATOM     15  N   UNL     1       1.950   7.653  20.428  0.00  0.00    +0.000 N 
ATOM     16  H   UNL     1       1.908   7.243  21.353  0.00  0.00    +0.000 HD
ENDBRANCH   1  10
BRANCH   1  17
ATOM     17  N   UNL     1      -2.774  12.253  19.852  0.00  0.00    +0.000 NA
ATOM     18  C   UNL     1      -3.833  11.601  19.089  0.00  0.00    +0.000 C 
ATOM     19  C   UNL     1      -5.133  12.384  19.345  0.00  0.00    +0.000 C 
ATOM     20  C   UNL     1      -6.282  11.313  19.009  0.00  0.00    +0.000 C 
ATOM     21  C   UNL     1      -6.318  11.963  17.590  0.00  0.00    +0.000 C 
ATOM     22  C   UNL     1      -5.981  13.253  18.320  0.00  0.00    +0.000 C 
ATOM     23  C   UNL     1      -4.746  13.470  20.374  0.00  0.00    +0.000 C 
ATOM     24  C   UNL     1      -5.558  13.531  21.635  0.00  0.00    +0.000 C 
ATOM     25  O   UNL     1      -4.996  12.556  22.513  0.00  0.00    +0.000 OA
ATOM     26  C   UNL     1      -3.592  12.439  22.205  0.00  0.00    +0.000 C 
ATOM     27  C   UNL     1      -3.347  13.134  20.867  0.00  0.00    +0.000 C 
ENDBRANCH   1  17
TORSDOF 2
ENDMDL
