MODEL 1
REMARK VINA RESULT:      -8.3      0.000      0.000
REMARK  Name = 
REMARK  8 active torsions:
REMARK  status: ('A' for Active; 'I' for Inactive)
REMARK    1  A    between atoms: C_1  and  N_2
REMARK    2  A    between atoms: C_6  and  C_7
REMARK    3  A    between atoms: C_7  and  C_8
REMARK    4  A    between atoms: C_8  and  C_9
REMARK    5  A    between atoms: C_13  and  N_14
REMARK    6  A    between atoms: C_15  and  C_17
REMARK    7  A    between atoms: C_19  and  N_20
REMARK    8  A    between atoms: C_22  and  C_23
REMARK                            x       y       z     vdW  Elec       q    Type
REMARK                         _______ _______ _______ _____ _____    ______ ____
ROOT
ATOM      1  C   UNL     1       4.738   4.391  16.741  0.00  0.00    +0.000 A 
ATOM      2  C   UNL     1       4.675   3.141  17.382  0.00  0.00    +0.000 A 
ATOM      3  C   UNL     1       3.780   2.908  18.421  0.00  0.00    +0.000 A 
ATOM      4  C   UNL     1       2.954   3.936  18.866  0.00  0.00    +0.000 A 
ATOM      5  C   UNL     1       3.004   5.200  18.277  0.00  0.00    +0.000 A 
ATOM      6  C   UNL     1       3.852   5.399  17.178  0.00  0.00    +0.000 A 
ENDROOT
BRANCH   5   7
ATOM      7  N   UNL     1       2.275   6.310  18.772  0.00  0.00    +0.000 N 
ATOM      8  C   UNL     1       2.569   7.633  18.479  0.00  0.00    +0.000 C 
ATOM      9  O   UNL     1       3.484   8.027  17.757  0.00  0.00    +0.000 OA
ATOM     10  H   UNL     1       1.375   6.108  19.189  0.00  0.00    +0.000 HD
BRANCH   8  11
ATOM     11  C   UNL     1       1.671   8.672  19.036  0.00  0.00    +0.000 A 
ATOM     12  C   UNL     1       1.287   9.799  18.321  0.00  0.00    +0.000 A 
ATOM     13  C   UNL     1       0.355  10.638  18.902  0.00  0.00    +0.000 A 
ATOM     14  N   UNL     1      -0.162  10.435  20.126  0.00  0.00    +0.000 NA
ATOM     15  C   UNL     1       0.219   9.343  20.836  0.00  0.00    +0.000 A 
ATOM     16  C   UNL     1       1.129   8.442  20.304  0.00  0.00    +0.000 A 
BRANCH  13  17
ATOM     17  N   UNL     1      -0.083  11.776  18.229  0.00  0.00    +0.000 N 
ATOM     18  H   UNL     1      -0.730  12.322  18.785  0.00  0.00    +0.000 HD
ATOM     19  H   UNL     1       0.750  12.312  17.994  0.00  0.00    +0.000 HD
ENDBRANCH  13  17
BRANCH  15  20
ATOM     20  C   UNL     1      -0.404   9.115  22.193  0.00  0.00    +0.000 C 
ATOM     21  C   UNL     1      -0.917  10.305  22.971  0.00  0.00    +0.000 C 
ATOM     22  C   UNL     1       0.285   9.559  23.466  0.00  0.00    +0.000 C 
ENDBRANCH  15  20
ENDBRANCH   8  11
ENDBRANCH   5   7
BRANCH   1  23
ATOM     23  C   UNL     1       5.793   4.657  15.687  0.00  0.00    +0.000 C 
ATOM     24  C   UNL     1       5.435   4.452  14.223  0.00  0.00    +0.000 C 
ATOM     25  O   UNL     1       5.510   5.759  14.792  0.00  0.00    +0.000 OA
BRANCH  23  26
ATOM     26  C   UNL     1       7.245   4.656  16.117  0.00  0.00    +0.000 C 
BRANCH  26  32
ATOM     27  C   UNL     1       7.251   7.633  17.083  0.00  0.00    +0.000 C 
ATOM     28  N   UNL     1       7.533   6.469  17.881  0.00  0.00    +0.000 N 
ATOM     29  C   UNL     1       7.904   6.476  19.190  0.00  0.00    +0.000 A 
ATOM     30  N   UNL     1       8.061   5.242  19.606  0.00  0.00    +0.000 NA
ATOM     31  N   UNL     1       7.809   4.409  18.544  0.00  0.00    +0.000 NA
ATOM     32  C   UNL     1       7.505   5.153  17.497  0.00  0.00    +0.000 A 
ENDBRANCH  26  32
ENDBRANCH  23  26
ENDBRANCH   1  23
TORSDOF 7
ENDMDL
MODEL 2
REMARK VINA RESULT:      -8.1      4.195      7.150
REMARK  Name = 
REMARK  8 active torsions:
REMARK  status: ('A' for Active; 'I' for Inactive)
REMARK    1  A    between atoms: C_1  and  N_2
REMARK    2  A    between atoms: C_6  and  C_7
REMARK    3  A    between atoms: C_7  and  C_8
REMARK    4  A    between atoms: C_8  and  C_9
REMARK    5  A    between atoms: C_13  and  N_14
REMARK    6  A    between atoms: C_15  and  C_17
REMARK    7  A    between atoms: C_19  and  N_20
REMARK    8  A    between atoms: C_22  and  C_23
REMARK                            x       y       z     vdW  Elec       q    Type
REMARK                         _______ _______ _______ _____ _____    ______ ____
ROOT
ATOM      1  C   UNL     1       4.737   4.865  17.468  0.00  0.00    +0.000 A 
ATOM      2  C   UNL     1       5.256   4.040  16.455  0.00  0.00    +0.000 A 
ATOM      3  C   UNL     1       6.383   4.410  15.731  0.00  0.00    +0.000 A 
ATOM      4  C   UNL     1       6.995   5.635  15.980  0.00  0.00    +0.000 A 
ATOM      5  C   UNL     1       6.496   6.497  16.957  0.00  0.00    +0.000 A 
ATOM      6  C   UNL     1       5.409   6.077  17.736  0.00  0.00    +0.000 A 
ENDROOT
BRANCH   5   7
ATOM      7  N   UNL     1       7.006   7.804  17.165  0.00  0.00    +0.000 N 
ATOM      8  C   UNL     1       7.971   8.126  18.106  0.00  0.00    +0.000 C 
ATOM      9  O   UNL     1       8.517   7.341  18.880  0.00  0.00    +0.000 OA
ATOM     10  H   UNL     1       6.801   8.486  16.446  0.00  0.00    +0.000 HD
BRANCH   8  11
ATOM     11  C   UNL     1       8.434   9.534  18.156  0.00  0.00    +0.000 A 
ATOM     12  C   UNL     1       7.847  10.546  17.409  0.00  0.00    +0.000 A 
ATOM     13  C   UNL     1       8.287  11.838  17.626  0.00  0.00    +0.000 A 
ATOM     14  N   UNL     1       9.270  12.150  18.489  0.00  0.00    +0.000 NA
ATOM     15  C   UNL     1       9.858  11.163  19.212  0.00  0.00    +0.000 A 
ATOM     16  C   UNL     1       9.446   9.847  19.068  0.00  0.00    +0.000 A 
BRANCH  13  17
ATOM     17  N   UNL     1       7.729  12.901  16.919  0.00  0.00    +0.000 N 
ATOM     18  H   UNL     1       8.378  13.297  16.250  0.00  0.00    +0.000 HD
ATOM     19  H   UNL     1       6.896  12.538  16.461  0.00  0.00    +0.000 HD
ENDBRANCH  13  17
BRANCH  15  20
ATOM     20  C   UNL     1      10.933  11.541  20.203  0.00  0.00    +0.000 C 
ATOM     21  C   UNL     1      11.372  12.985  20.290  0.00  0.00    +0.000 C 
ATOM     22  C   UNL     1      12.317  11.954  19.752  0.00  0.00    +0.000 C 
ENDBRANCH  15  20
ENDBRANCH   8  11
ENDBRANCH   5   7
BRANCH   1  23
ATOM     23  C   UNL     1       3.447   4.495  18.170  0.00  0.00    +0.000 C 
ATOM     24  C   UNL     1       2.209   4.217  17.331  0.00  0.00    +0.000 C 
ATOM     25  O   UNL     1       2.965   3.154  17.914  0.00  0.00    +0.000 OA
BRANCH  23  26
ATOM     26  C   UNL     1       3.301   4.861  19.633  0.00  0.00    +0.000 C 
BRANCH  26  32
ATOM     27  C   UNL     1       4.477   2.205  20.798  0.00  0.00    +0.000 C 
ATOM     28  N   UNL     1       3.129   2.686  20.945  0.00  0.00    +0.000 N 
ATOM     29  C   UNL     1       2.118   2.032  21.577  0.00  0.00    +0.000 A 
ATOM     30  N   UNL     1       1.031   2.765  21.540  0.00  0.00    +0.000 NA
ATOM     31  N   UNL     1       1.328   3.915  20.850  0.00  0.00    +0.000 NA
ATOM     32  C   UNL     1       2.593   3.859  20.477  0.00  0.00    +0.000 A 
ENDBRANCH  26  32
ENDBRANCH  23  26
ENDBRANCH   1  23
TORSDOF 7
ENDMDL
MODEL 3
REMARK VINA RESULT:      -8.1      2.139      3.401
REMARK  Name = 
REMARK  8 active torsions:
REMARK  status: ('A' for Active; 'I' for Inactive)
REMARK    1  A    between atoms: C_1  and  N_2
REMARK    2  A    between atoms: C_6  and  C_7
REMARK    3  A    between atoms: C_7  and  C_8
REMARK    4  A    between atoms: C_8  and  C_9
REMARK    5  A    between atoms: C_13  and  N_14
REMARK    6  A    between atoms: C_15  and  C_17
REMARK    7  A    between atoms: C_19  and  N_20
REMARK    8  A    between atoms: C_22  and  C_23
REMARK                            x       y       z     vdW  Elec       q    Type
REMARK                         _______ _______ _______ _____ _____    ______ ____
ROOT
ATOM      1  C   UNL     1       5.556   5.226  18.821  0.00  0.00    +0.000 A 
ATOM      2  C   UNL     1       5.157   3.878  18.791  0.00  0.00    +0.000 A 
ATOM      3  C   UNL     1       3.870   3.499  19.158  0.00  0.00    +0.000 A 
ATOM      4  C   UNL     1       2.965   4.460  19.601  0.00  0.00    +0.000 A 
ATOM      5  C   UNL     1       3.329   5.804  19.674  0.00  0.00    +0.000 A 
ATOM      6  C   UNL     1       4.601   6.185  19.224  0.00  0.00    +0.000 A 
ENDROOT
BRANCH   5   7
ATOM      7  N   UNL     1       2.489   6.801  20.232  0.00  0.00    +0.000 N 
ATOM      8  C   UNL     1       1.984   7.882  19.527  0.00  0.00    +0.000 C 
ATOM      9  O   UNL     1       2.183   8.127  18.339  0.00  0.00    +0.000 OA
ATOM     10  H   UNL     1       2.077   6.589  21.132  0.00  0.00    +0.000 HD
BRANCH   8  11
ATOM     11  C   UNL     1       1.074   8.804  20.249  0.00  0.00    +0.000 A 
ATOM     12  C   UNL     1       0.620   8.557  21.538  0.00  0.00    +0.000 A 
ATOM     13  C   UNL     1      -0.129   9.543  22.152  0.00  0.00    +0.000 A 
ATOM     14  N   UNL     1      -0.464  10.699  21.552  0.00  0.00    +0.000 NA
ATOM     15  C   UNL     1      -0.035  10.940  20.287  0.00  0.00    +0.000 A 
ATOM     16  C   UNL     1       0.746  10.008  19.621  0.00  0.00    +0.000 A 
BRANCH  13  17
ATOM     17  N   UNL     1      -0.602   9.363  23.449  0.00  0.00    +0.000 N 
ATOM     18  H   UNL     1      -1.418   9.933  23.641  0.00  0.00    +0.000 HD
ATOM     19  H   UNL     1      -0.809   8.371  23.548  0.00  0.00    +0.000 HD
ENDBRANCH  13  17
BRANCH  15  20
ATOM     20  C   UNL     1      -0.391  12.261  19.648  0.00  0.00    +0.000 C 
ATOM     21  C   UNL     1       0.497  12.807  18.553  0.00  0.00    +0.000 C 
ATOM     22  C   UNL     1       0.443  13.503  19.878  0.00  0.00    +0.000 C 
ENDBRANCH  15  20
ENDBRANCH   8  11
ENDBRANCH   5   7
BRANCH   1  23
ATOM     23  C   UNL     1       6.992   5.604  18.522  0.00  0.00    +0.000 C 
ATOM     24  C   UNL     1       7.969   5.747  19.679  0.00  0.00    +0.000 C 
ATOM     25  O   UNL     1       7.978   4.593  18.838  0.00  0.00    +0.000 OA
BRANCH  23  26
ATOM     26  C   UNL     1       7.291   6.268  17.194  0.00  0.00    +0.000 C 
BRANCH  26  32
ATOM     27  C   UNL     1       4.664   6.812  15.583  0.00  0.00    +0.000 C 
ATOM     28  N   UNL     1       5.633   5.780  15.325  0.00  0.00    +0.000 N 
ATOM     29  C   UNL     1       5.539   4.827  14.359  0.00  0.00    +0.000 A 
ATOM     30  N   UNL     1       6.603   4.062  14.393  0.00  0.00    +0.000 NA
ATOM     31  N   UNL     1       7.404   4.508  15.416  0.00  0.00    +0.000 NA
ATOM     32  C   UNL     1       6.808   5.537  15.989  0.00  0.00    +0.000 A 
ENDBRANCH  26  32
ENDBRANCH  23  26
ENDBRANCH   1  23
TORSDOF 7
ENDMDL
MODEL 4
REMARK VINA RESULT:      -8.0      2.921      9.099
REMARK  Name = 
REMARK  8 active torsions:
REMARK  status: ('A' for Active; 'I' for Inactive)
REMARK    1  A    between atoms: C_1  and  N_2
REMARK    2  A    between atoms: C_6  and  C_7
REMARK    3  A    between atoms: C_7  and  C_8
REMARK    4  A    between atoms: C_8  and  C_9
REMARK    5  A    between atoms: C_13  and  N_14
REMARK    6  A    between atoms: C_15  and  C_17
REMARK    7  A    between atoms: C_19  and  N_20
REMARK    8  A    between atoms: C_22  and  C_23
REMARK                            x       y       z     vdW  Elec       q    Type
REMARK                         _______ _______ _______ _____ _____    ______ ____
ROOT
ATOM      1  C   UNL     1      -0.515  11.137  20.041  0.00  0.00    +0.000 A 
ATOM      2  C   UNL     1      -0.637  10.891  21.420  0.00  0.00    +0.000 A 
ATOM      3  C   UNL     1       0.115   9.901  22.044  0.00  0.00    +0.000 A 
ATOM      4  C   UNL     1       0.978   9.110  21.292  0.00  0.00    +0.000 A 
ATOM      5  C   UNL     1       1.108   9.301  19.916  0.00  0.00    +0.000 A 
ATOM      6  C   UNL     1       0.407  10.355  19.313  0.00  0.00    +0.000 A 
ENDROOT
BRANCH   5   7
ATOM      7  N   UNL     1       1.877   8.445  19.089  0.00  0.00    +0.000 N 
ATOM      8  C   UNL     1       2.195   7.133  19.402  0.00  0.00    +0.000 C 
ATOM      9  O   UNL     1       1.859   6.531  20.421  0.00  0.00    +0.000 OA
ATOM     10  H   UNL     1       2.019   8.750  18.134  0.00  0.00    +0.000 HD
BRANCH   8  11
ATOM     11  C   UNL     1       2.964   6.358  18.399  0.00  0.00    +0.000 A 
ATOM     12  C   UNL     1       3.966   6.920  17.620  0.00  0.00    +0.000 A 
ATOM     13  C   UNL     1       4.692   6.074  16.803  0.00  0.00    +0.000 A 
ATOM     14  N   UNL     1       4.450   4.755  16.703  0.00  0.00    +0.000 NA
ATOM     15  C   UNL     1       3.462   4.202  17.451  0.00  0.00    +0.000 A 
ATOM     16  C   UNL     1       2.713   4.986  18.315  0.00  0.00    +0.000 A 
BRANCH  13  17
ATOM     17  N   UNL     1       5.721   6.573  16.008  0.00  0.00    +0.000 N 
ATOM     18  H   UNL     1       6.298   7.240  16.507  0.00  0.00    +0.000 HD
ATOM     19  H   UNL     1       6.263   5.770  15.697  0.00  0.00    +0.000 HD
ENDBRANCH  13  17
BRANCH  15  20
ATOM     20  C   UNL     1       3.233   2.712  17.350  0.00  0.00    +0.000 C 
ATOM     21  C   UNL     1       2.128   2.085  18.169  0.00  0.00    +0.000 C 
ATOM     22  C   UNL     1       3.558   1.781  18.498  0.00  0.00    +0.000 C 
ENDBRANCH  15  20
ENDBRANCH   8  11
ENDBRANCH   5   7
BRANCH   1  23
ATOM     23  C   UNL     1      -1.420  12.145  19.362  0.00  0.00    +0.000 C 
ATOM     24  C   UNL     1      -1.118  13.627  19.521  0.00  0.00    +0.000 C 
ATOM     25  O   UNL     1      -0.798  12.929  18.316  0.00  0.00    +0.000 OA
BRANCH  23  26
ATOM     26  C   UNL     1      -2.810  11.696  18.960  0.00  0.00    +0.000 C 
BRANCH  26  32
ATOM     27  C   UNL     1      -5.266  12.092  17.061  0.00  0.00    +0.000 C 
ATOM     28  N   UNL     1      -4.053  11.379  16.761  0.00  0.00    +0.000 N 
ATOM     29  C   UNL     1      -3.794  10.706  15.608  0.00  0.00    +0.000 A 
ATOM     30  N   UNL     1      -2.590  10.189  15.663  0.00  0.00    +0.000 NA
ATOM     31  N   UNL     1      -2.056  10.510  16.887  0.00  0.00    +0.000 NA
ATOM     32  C   UNL     1      -2.947  11.216  17.556  0.00  0.00    +0.000 A 
ENDBRANCH  26  32
ENDBRANCH  23  26
ENDBRANCH   1  23
TORSDOF 7
ENDMDL
MODEL 5
REMARK VINA RESULT:      -8.0      2.870      9.151
REMARK  Name = 
REMARK  8 active torsions:
REMARK  status: ('A' for Active; 'I' for Inactive)
REMARK    1  A    between atoms: C_1  and  N_2
REMARK    2  A    between atoms: C_6  and  C_7
REMARK    3  A    between atoms: C_7  and  C_8
REMARK    4  A    between atoms: C_8  and  C_9
REMARK    5  A    between atoms: C_13  and  N_14
REMARK    6  A    between atoms: C_15  and  C_17
REMARK    7  A    between atoms: C_19  and  N_20
REMARK    8  A    between atoms: C_22  and  C_23
REMARK                            x       y       z     vdW  Elec       q    Type
REMARK                         _______ _______ _______ _____ _____    ______ ____
ROOT
ATOM      1  C   UNL     1      -0.347  10.149  20.127  0.00  0.00    +0.000 A 
ATOM      2  C   UNL     1      -0.507  10.293  21.516  0.00  0.00    +0.000 A 
ATOM      3  C   UNL     1       0.304   9.603  22.410  0.00  0.00    +0.000 A 
ATOM      4  C   UNL     1       1.270   8.723  21.931  0.00  0.00    +0.000 A 
ATOM      5  C   UNL     1       1.442   8.528  20.561  0.00  0.00    +0.000 A 
ATOM      6  C   UNL     1       0.675   9.290  19.669  0.00  0.00    +0.000 A 
ENDROOT
BRANCH   5   7
ATOM      7  N   UNL     1       2.324   7.554  20.026  0.00  0.00    +0.000 N 
ATOM      8  C   UNL     1       2.126   6.185  20.116  0.00  0.00    +0.000 C 
ATOM      9  O   UNL     1       1.173   5.628  20.659  0.00  0.00    +0.000 OA
ATOM     10  H   UNL     1       3.018   7.888  19.370  0.00  0.00    +0.000 HD
BRANCH   8  11
ATOM     11  C   UNL     1       3.118   5.306  19.454  0.00  0.00    +0.000 A 
ATOM     12  C   UNL     1       3.558   4.113  20.012  0.00  0.00    +0.000 A 
ATOM     13  C   UNL     1       4.396   3.321  19.250  0.00  0.00    +0.000 A 
ATOM     14  N   UNL     1       4.828   3.666  18.024  0.00  0.00    +0.000 NA
ATOM     15  C   UNL     1       4.413   4.838  17.479  0.00  0.00    +0.000 A 
ATOM     16  C   UNL     1       3.548   5.669  18.175  0.00  0.00    +0.000 A 
BRANCH  13  17
ATOM     17  N   UNL     1       4.860   2.106  19.746  0.00  0.00    +0.000 N 
ATOM     18  H   UNL     1       5.825   1.932  19.489  0.00  0.00    +0.000 HD
ATOM     19  H   UNL     1       4.744   2.142  20.757  0.00  0.00    +0.000 HD
ENDBRANCH  13  17
BRANCH  15  20
ATOM     20  C   UNL     1       4.880   5.187  16.086  0.00  0.00    +0.000 C 
ATOM     21  C   UNL     1       5.737   4.196  15.332  0.00  0.00    +0.000 C 
ATOM     22  C   UNL     1       6.332   5.493  15.790  0.00  0.00    +0.000 C 
ENDBRANCH  15  20
ENDBRANCH   8  11
ENDBRANCH   5   7
BRANCH   1  23
ATOM     23  C   UNL     1      -1.311  10.824  19.172  0.00  0.00    +0.000 C 
ATOM     24  C   UNL     1      -1.432  12.340  19.203  0.00  0.00    +0.000 C 
ATOM     25  O   UNL     1      -0.699  11.675  18.174  0.00  0.00    +0.000 OA
BRANCH  23  26
ATOM     26  C   UNL     1      -2.424   9.989  18.575  0.00  0.00    +0.000 C 
BRANCH  26  32
ATOM     27  C   UNL     1      -4.754  11.764  17.471  0.00  0.00    +0.000 C 
ATOM     28  N   UNL     1      -3.791  11.028  16.695  0.00  0.00    +0.000 N 
ATOM     29  C   UNL     1      -3.768  10.939  15.338  0.00  0.00    +0.000 A 
ATOM     30  N   UNL     1      -2.747  10.205  14.965  0.00  0.00    +0.000 NA
ATOM     31  N   UNL     1      -2.099   9.785  16.100  0.00  0.00    +0.000 NA
ATOM     32  C   UNL     1      -2.741  10.271  17.147  0.00  0.00    +0.000 A 
ENDBRANCH  26  32
ENDBRANCH  23  26
ENDBRANCH   1  23
TORSDOF 7
ENDMDL
MODEL 6
REMARK VINA RESULT:      -8.0      1.497      2.627
REMARK  Name = 
REMARK  8 active torsions:
REMARK  status: ('A' for Active; 'I' for Inactive)
REMARK    1  A    between atoms: C_1  and  N_2
REMARK    2  A    between atoms: C_6  and  C_7
REMARK    3  A    between atoms: C_7  and  C_8
REMARK    4  A    between atoms: C_8  and  C_9
REMARK    5  A    between atoms: C_13  and  N_14
REMARK    6  A    between atoms: C_15  and  C_17
REMARK    7  A    between atoms: C_19  and  N_20
REMARK    8  A    between atoms: C_22  and  C_23
REMARK                            x       y       z     vdW  Elec       q    Type
REMARK                         _______ _______ _______ _____ _____    ______ ____
ROOT
ATOM      1  C   UNL     1       4.334   4.614  16.942  0.00  0.00    +0.000 A 
ATOM      2  C   UNL     1       3.753   3.346  17.117  0.00  0.00    +0.000 A 
ATOM      3  C   UNL     1       2.643   3.168  17.935  0.00  0.00    +0.000 A 
ATOM      4  C   UNL     1       2.113   4.252  18.628  0.00  0.00    +0.000 A 
ATOM      5  C   UNL     1       2.677   5.523  18.506  0.00  0.00    +0.000 A 
ATOM      6  C   UNL     1       3.744   5.705  17.615  0.00  0.00    +0.000 A 
ENDROOT
BRANCH   5   7
ATOM      7  N   UNL     1       2.253   6.631  19.282  0.00  0.00    +0.000 N 
ATOM      8  C   UNL     1       1.903   7.866  18.757  0.00  0.00    +0.000 C 
ATOM      9  O   UNL     1       1.906   8.171  17.565  0.00  0.00    +0.000 OA
ATOM     10  H   UNL     1       1.998   6.437  20.242  0.00  0.00    +0.000 HD
BRANCH   8  11
ATOM     11  C   UNL     1       1.429   8.902  19.704  0.00  0.00    +0.000 A 
ATOM     12  C   UNL     1       1.116   8.625  21.028  0.00  0.00    +0.000 A 
ATOM     13  C   UNL     1       0.797   9.692  21.847  0.00  0.00    +0.000 A 
ATOM     14  N   UNL     1       0.740  10.964  21.415  0.00  0.00    +0.000 NA
ATOM     15  C   UNL     1       1.031  11.240  20.118  0.00  0.00    +0.000 A 
ATOM     16  C   UNL     1       1.389  10.222  19.248  0.00  0.00    +0.000 A 
BRANCH  13  17
ATOM     17  N   UNL     1       0.488   9.483  23.189  0.00  0.00    +0.000 N 
ATOM     18  H   UNL     1       0.232  10.343  23.660  0.00  0.00    +0.000 HD
ATOM     19  H   UNL     1      -0.272   8.805  23.209  0.00  0.00    +0.000 HD
ENDBRANCH  13  17
BRANCH  15  20
ATOM     20  C   UNL     1       0.999  12.681  19.666  0.00  0.00    +0.000 C 
ATOM     21  C   UNL     1       1.820  13.088  18.464  0.00  0.00    +0.000 C 
ATOM     22  C   UNL     1       2.199  13.588  19.825  0.00  0.00    +0.000 C 
ENDBRANCH  15  20
ENDBRANCH   8  11
ENDBRANCH   5   7
BRANCH   1  23
ATOM     23  C   UNL     1       5.607   4.767  16.134  0.00  0.00    +0.000 C 
ATOM     24  C   UNL     1       5.565   4.485  14.640  0.00  0.00    +0.000 C 
ATOM     25  O   UNL     1       5.587   5.822  15.142  0.00  0.00    +0.000 OA
BRANCH  23  26
ATOM     26  C   UNL     1       6.928   4.732  16.873  0.00  0.00    +0.000 C 
BRANCH  26  32
ATOM     27  C   UNL     1       7.835   5.527  19.762  0.00  0.00    +0.000 C 
ATOM     28  N   UNL     1       7.806   6.380  18.604  0.00  0.00    +0.000 N 
ATOM     29  C   UNL     1       8.122   7.704  18.586  0.00  0.00    +0.000 A 
ATOM     30  N   UNL     1       8.005   8.165  17.364  0.00  0.00    +0.000 NA
ATOM     31  N   UNL     1       7.583   7.130  16.567  0.00  0.00    +0.000 NA
ATOM     32  C   UNL     1       7.448   6.055  17.320  0.00  0.00    +0.000 A 
ENDBRANCH  26  32
ENDBRANCH  23  26
ENDBRANCH   1  23
TORSDOF 7
ENDMDL
MODEL 7
REMARK VINA RESULT:      -8.0      2.540      8.484
REMARK  Name = 
REMARK  8 active torsions:
REMARK  status: ('A' for Active; 'I' for Inactive)
REMARK    1  A    between atoms: C_1  and  N_2
REMARK    2  A    between atoms: C_6  and  C_7
REMARK    3  A    between atoms: C_7  and  C_8
REMARK    4  A    between atoms: C_8  and  C_9
REMARK    5  A    between atoms: C_13  and  N_14
REMARK    6  A    between atoms: C_15  and  C_17
REMARK    7  A    between atoms: C_19  and  N_20
REMARK    8  A    between atoms: C_22  and  C_23
REMARK                            x       y       z     vdW  Elec       q    Type
REMARK                         _______ _______ _______ _____ _____    ______ ____
ROOT
ATOM      1  C   UNL     1      -0.069  10.281  19.923  0.00  0.00    +0.000 A 
ATOM      2  C   UNL     1      -0.425  10.305  21.283  0.00  0.00    +0.000 A 
ATOM      3  C   UNL     1       0.190   9.463  22.204  0.00  0.00    +0.000 A 
ATOM      4  C   UNL     1       1.149   8.551  21.774  0.00  0.00    +0.000 A 
ATOM      5  C   UNL     1       1.511   8.474  20.429  0.00  0.00    +0.000 A 
ATOM      6  C   UNL     1       0.945   9.383  19.525  0.00  0.00    +0.000 A 
ENDROOT
BRANCH   5   7
ATOM      7  N   UNL     1       2.389   7.482  19.923  0.00  0.00    +0.000 N 
ATOM      8  C   UNL     1       2.196   6.117  20.071  0.00  0.00    +0.000 C 
ATOM      9  O   UNL     1       1.252   5.579  20.647  0.00  0.00    +0.000 OA
ATOM     10  H   UNL     1       3.074   7.792  19.246  0.00  0.00    +0.000 HD
BRANCH   8  11
ATOM     11  C   UNL     1       3.184   5.215  19.432  0.00  0.00    +0.000 A 
ATOM     12  C   UNL     1       3.577   4.009  19.997  0.00  0.00    +0.000 A 
ATOM     13  C   UNL     1       4.414   3.198  19.254  0.00  0.00    +0.000 A 
ATOM     14  N   UNL     1       4.889   3.537  18.043  0.00  0.00    +0.000 NA
ATOM     15  C   UNL     1       4.520   4.721  17.491  0.00  0.00    +0.000 A 
ATOM     16  C   UNL     1       3.658   5.572  18.167  0.00  0.00    +0.000 A 
BRANCH  13  17
ATOM     17  N   UNL     1       4.833   1.969  19.757  0.00  0.00    +0.000 N 
ATOM     18  H   UNL     1       4.845   1.249  19.044  0.00  0.00    +0.000 HD
ATOM     19  H   UNL     1       5.759   2.117  20.153  0.00  0.00    +0.000 HD
ENDBRANCH  13  17
BRANCH  15  20
ATOM     20  C   UNL     1       5.035   5.064  16.113  0.00  0.00    +0.000 C 
ATOM     21  C   UNL     1       5.896   4.058  15.384  0.00  0.00    +0.000 C 
ATOM     22  C   UNL     1       6.501   5.342  15.862  0.00  0.00    +0.000 C 
ENDBRANCH  15  20
ENDBRANCH   8  11
ENDBRANCH   5   7
BRANCH   1  23
ATOM     23  C   UNL     1      -0.825  11.128  18.920  0.00  0.00    +0.000 C 
ATOM     24  C   UNL     1      -1.451  10.450  17.712  0.00  0.00    +0.000 C 
ATOM     25  O   UNL     1      -2.244  10.858  18.827  0.00  0.00    +0.000 OA
BRANCH  23  26
ATOM     26  C   UNL     1      -0.546  12.616  18.891  0.00  0.00    +0.000 C 
BRANCH  26  32
ATOM     27  C   UNL     1       0.776  13.879  21.432  0.00  0.00    +0.000 C 
ATOM     28  N   UNL     1       1.423  13.587  20.180  0.00  0.00    +0.000 N 
ATOM     29  C   UNL     1       2.720  13.864  19.874  0.00  0.00    +0.000 A 
ATOM     30  N   UNL     1       2.981  13.447  18.659  0.00  0.00    +0.000 NA
ATOM     31  N   UNL     1       1.828  12.905  18.147  0.00  0.00    +0.000 NA
ATOM     32  C   UNL     1       0.882  13.004  19.062  0.00  0.00    +0.000 A 
ENDBRANCH  26  32
ENDBRANCH  23  26
ENDBRANCH   1  23
TORSDOF 7
ENDMDL
MODEL 8
REMARK VINA RESULT:      -7.9      1.256      2.188
REMARK  Name = 
REMARK  8 active torsions:
REMARK  status: ('A' for Active; 'I' for Inactive)
REMARK    1  A    between atoms: C_1  and  N_2
REMARK    2  A    between atoms: C_6  and  C_7
REMARK    3  A    between atoms: C_7  and  C_8
REMARK    4  A    between atoms: C_8  and  C_9
REMARK    5  A    between atoms: C_13  and  N_14
REMARK    6  A    between atoms: C_15  and  C_17
REMARK    7  A    between atoms: C_19  and  N_20
REMARK    8  A    between atoms: C_22  and  C_23
REMARK                            x       y       z     vdW  Elec       q    Type
REMARK                         _______ _______ _______ _____ _____    ______ ____
ROOT
ATOM      1  C   UNL     1       4.570   4.826  16.850  0.00  0.00    +0.000 A 
ATOM      2  C   UNL     1       4.338   3.500  17.253  0.00  0.00    +0.000 A 
ATOM      3  C   UNL     1       3.460   3.204  18.290  0.00  0.00    +0.000 A 
ATOM      4  C   UNL     1       2.822   4.236  18.972  0.00  0.00    +0.000 A 
ATOM      5  C   UNL     1       3.046   5.568  18.624  0.00  0.00    +0.000 A 
ATOM      6  C   UNL     1       3.869   5.850  17.524  0.00  0.00    +0.000 A 
ENDROOT
BRANCH   5   7
ATOM      7  N   UNL     1       2.519   6.657  19.364  0.00  0.00    +0.000 N 
ATOM      8  C   UNL     1       2.071   7.842  18.800  0.00  0.00    +0.000 C 
ATOM      9  O   UNL     1       2.063   8.114  17.601  0.00  0.00    +0.000 OA
ATOM     10  H   UNL     1       2.269   6.468  20.326  0.00  0.00    +0.000 HD
BRANCH   8  11
ATOM     11  C   UNL     1       1.498   8.859  19.714  0.00  0.00    +0.000 A 
ATOM     12  C   UNL     1       1.179   8.588  21.037  0.00  0.00    +0.000 A 
ATOM     13  C   UNL     1       0.761   9.645  21.824  0.00  0.00    +0.000 A 
ATOM     14  N   UNL     1       0.616  10.899  21.361  0.00  0.00    +0.000 NA
ATOM     15  C   UNL     1       0.913  11.168  20.064  0.00  0.00    +0.000 A 
ATOM     16  C   UNL     1       1.367  10.162  19.225  0.00  0.00    +0.000 A 
BRANCH  13  17
ATOM     17  N   UNL     1       0.440   9.442  23.164  0.00  0.00    +0.000 N 
ATOM     18  H   UNL     1       1.090   8.813  23.621  0.00  0.00    +0.000 HD
ATOM     19  H   UNL     1       0.438  10.360  23.604  0.00  0.00    +0.000 HD
ENDBRANCH  13  17
BRANCH  15  20
ATOM     20  C   UNL     1       0.779  12.591  19.577  0.00  0.00    +0.000 C 
ATOM     21  C   UNL     1      -0.217  13.505  20.252  0.00  0.00    +0.000 C 
ATOM     22  C   UNL     1      -0.455  13.064  18.840  0.00  0.00    +0.000 C 
ENDBRANCH  15  20
ENDBRANCH   8  11
ENDBRANCH   5   7
BRANCH   1  23
ATOM     23  C   UNL     1       5.611   5.134  15.793  0.00  0.00    +0.000 C 
ATOM     24  C   UNL     1       5.189   5.151  14.332  0.00  0.00    +0.000 C 
ATOM     25  O   UNL     1       5.402   6.362  15.057  0.00  0.00    +0.000 OA
BRANCH  23  26
ATOM     26  C   UNL     1       7.070   4.951  16.156  0.00  0.00    +0.000 C 
BRANCH  26  32
ATOM     27  C   UNL     1       7.490   7.822  17.332  0.00  0.00    +0.000 C 
ATOM     28  N   UNL     1       7.639   6.574  18.033  0.00  0.00    +0.000 N 
ATOM     29  C   UNL     1       8.044   6.434  19.324  0.00  0.00    +0.000 A 
ATOM     30  N   UNL     1       8.051   5.163  19.646  0.00  0.00    +0.000 NA
ATOM     31  N   UNL     1       7.664   4.451  18.537  0.00  0.00    +0.000 NA
ATOM     32  C   UNL     1       7.430   5.305  17.558  0.00  0.00    +0.000 A 
ENDBRANCH  26  32
ENDBRANCH  23  26
ENDBRANCH   1  23
TORSDOF 7
ENDMDL
MODEL 9
REMARK VINA RESULT:      -7.9      3.070      9.361
REMARK  Name = 
REMARK  8 active torsions:
REMARK  status: ('A' for Active; 'I' for Inactive)
REMARK    1  A    between atoms: C_1  and  N_2
REMARK    2  A    between atoms: C_6  and  C_7
REMARK    3  A    between atoms: C_7  and  C_8
REMARK    4  A    between atoms: C_8  and  C_9
REMARK    5  A    between atoms: C_13  and  N_14
REMARK    6  A    between atoms: C_15  and  C_17
REMARK    7  A    between atoms: C_19  and  N_20
REMARK    8  A    between atoms: C_22  and  C_23
REMARK                            x       y       z     vdW  Elec       q    Type
REMARK                         _______ _______ _______ _____ _____    ______ ____
ROOT
ATOM      1  C   UNL     1      -0.271  11.177  18.611  0.00  0.00    +0.000 A 
ATOM      2  C   UNL     1       0.560  12.299  18.769  0.00  0.00    +0.000 A 
ATOM      3  C   UNL     1       1.921  12.233  18.490  0.00  0.00    +0.000 A 
ATOM      4  C   UNL     1       2.486  11.029  18.081  0.00  0.00    +0.000 A 
ATOM      5  C   UNL     1       1.703   9.883  17.939  0.00  0.00    +0.000 A 
ATOM      6  C   UNL     1       0.319   9.982  18.144  0.00  0.00    +0.000 A 
ENDROOT
BRANCH   5   7
ATOM      7  N   UNL     1       2.249   8.608  17.646  0.00  0.00    +0.000 N 
ATOM      8  C   UNL     1       2.401   7.590  18.575  0.00  0.00    +0.000 C 
ATOM      9  O   UNL     1       2.086   7.643  19.763  0.00  0.00    +0.000 OA
ATOM     10  H   UNL     1       2.335   8.370  16.666  0.00  0.00    +0.000 HD
BRANCH   8  11
ATOM     11  C   UNL     1       2.939   6.297  18.089  0.00  0.00    +0.000 A 
ATOM     12  C   UNL     1       2.299   5.085  18.307  0.00  0.00    +0.000 A 
ATOM     13  C   UNL     1       2.835   3.961  17.707  0.00  0.00    +0.000 A 
ATOM     14  N   UNL     1       3.955   3.983  16.963  0.00  0.00    +0.000 NA
ATOM     15  C   UNL     1       4.594   5.163  16.758  0.00  0.00    +0.000 A 
ATOM     16  C   UNL     1       4.095   6.336  17.305  0.00  0.00    +0.000 A 
BRANCH  13  17
ATOM     17  N   UNL     1       2.231   2.718  17.874  0.00  0.00    +0.000 N 
ATOM     18  H   UNL     1       1.818   2.615  18.793  0.00  0.00    +0.000 HD
ATOM     19  H   UNL     1       1.532   2.634  17.139  0.00  0.00    +0.000 HD
ENDBRANCH  13  17
BRANCH  15  20
ATOM     20  C   UNL     1       5.828   5.170  15.887  0.00  0.00    +0.000 C 
ATOM     21  C   UNL     1       6.352   3.857  15.351  0.00  0.00    +0.000 C 
ATOM     22  C   UNL     1       7.146   4.609  16.376  0.00  0.00    +0.000 C 
ENDBRANCH  15  20
ENDBRANCH   8  11
ENDBRANCH   5   7
BRANCH   1  23
ATOM     23  C   UNL     1      -1.727  11.240  19.024  0.00  0.00    +0.000 C 
ATOM     24  C   UNL     1      -2.092  11.943  20.322  0.00  0.00    +0.000 C 
ATOM     25  O   UNL     1      -2.305  12.567  19.055  0.00  0.00    +0.000 OA
BRANCH  23  26
ATOM     26  C   UNL     1      -2.685  10.237  18.413  0.00  0.00    +0.000 C 
BRANCH  26  32
ATOM     27  C   UNL     1      -5.027  11.861  17.119  0.00  0.00    +0.000 C 
ATOM     28  N   UNL     1      -4.016  11.109  16.425  0.00  0.00    +0.000 N 
ATOM     29  C   UNL     1      -3.941  10.934  15.078  0.00  0.00    +0.000 A 
ATOM     30  N   UNL     1      -2.886  10.212  14.787  0.00  0.00    +0.000 NA
ATOM     31  N   UNL     1      -2.266   9.887  15.969  0.00  0.00    +0.000 NA
ATOM     32  C   UNL     1      -2.959  10.417  16.959  0.00  0.00    +0.000 A 
ENDBRANCH  26  32
ENDBRANCH  23  26
ENDBRANCH   1  23
TORSDOF 7
ENDMDL
