MODEL 1
REMARK VINA RESULT:      -9.0      0.000      0.000
REMARK  Name = 
REMARK  6 active torsions:
REMARK  status: ('A' for Active; 'I' for Inactive)
REMARK    1  A    between atoms: C_1  and  C_2
REMARK    2  A    between atoms: C_5  and  S_6
REMARK    3  A    between atoms: S_6  and  N_9
REMARK    4  A    between atoms: C_14  and  C_15
REMARK    5  A    between atoms: N_17  and  C_18
REMARK    6  A    between atoms: C_21  and  N_22
REMARK                            x       y       z     vdW  Elec       q    Type
REMARK                         _______ _______ _______ _____ _____    ______ ____
ROOT
ATOM      1  N   UNL     1       3.987   3.974  18.262  0.00  0.00    +0.000 NA
ATOM      2  C   UNL     1       4.165   2.908  19.277  0.00  0.00    +0.000 C 
ATOM      3  C   UNL     1       3.115   1.816  19.136  0.00  0.00    +0.000 C 
ATOM      4  C   UNL     1       1.722   2.411  19.241  0.00  0.00    +0.000 C 
ATOM      5  C   UNL     1       1.534   3.466  18.157  0.00  0.00    +0.000 C 
ATOM      6  C   UNL     1       2.619   4.566  18.147  0.00  0.00    +0.000 C 
ENDROOT
BRANCH   6   7
ATOM      7  C   UNL     1       2.310   5.633  19.205  0.00  0.00    +0.000 C 
ATOM      8  O   UNL     1       2.304   5.323  20.395  0.00  0.00    +0.000 OA
ATOM      9  N   UNL     1       2.053   6.907  18.696  0.00  0.00    +0.000 N 
ATOM     10  H   UNL     1       2.144   7.040  17.693  0.00  0.00    +0.000 HD
BRANCH   9  11
ATOM     11  C   UNL     1       1.678   8.051  19.449  0.00  0.00    +0.000 A 
ATOM     12  C   UNL     1       1.513   8.023  20.835  0.00  0.00    +0.000 A 
ATOM     13  C   UNL     1       1.062   9.141  21.542  0.00  0.00    +0.000 A 
ATOM     14  C   UNL     1       0.760  10.324  20.870  0.00  0.00    +0.000 A 
ATOM     15  C   UNL     1       0.985  10.397  19.488  0.00  0.00    +0.000 A 
ATOM     16  C   UNL     1       1.446   9.265  18.784  0.00  0.00    +0.000 A 
BRANCH  14  17
ATOM     17  N   UNL     1       0.201  11.415  21.576  0.00  0.00    +0.000 N 
ATOM     18  C   UNL     1       0.197  12.750  21.256  0.00  0.00    +0.000 A 
ATOM     19  N   UNL     1      -0.360  13.438  22.223  0.00  0.00    +0.000 NA
ATOM     20  N   UNL     1      -0.725  12.514  23.165  0.00  0.00    +0.000 NA
ATOM     21  N   UNL     1      -0.402  11.285  22.784  0.00  0.00    +0.000 NA
ENDBRANCH  14  17
ENDBRANCH   9  11
ENDBRANCH   6   7
BRANCH   1  22
ATOM     22  S   UNL     1       5.313   5.028  18.019  0.00  0.00    +0.000 S 
ATOM     23  O   UNL     1       6.343   4.602  18.950  0.00  0.00    +0.000 OA
ATOM     24  O   UNL     1       4.813   6.385  18.026  0.00  0.00    +0.000 OA
BRANCH  22  29
ATOM     25  C   UNL     1       7.091   4.346  12.257  0.00  0.00    +0.000 C 
ATOM     26  C   UNL     1       6.740   4.404  13.715  0.00  0.00    +0.000 A 
ATOM     27  C   UNL     1       7.536   5.116  14.620  0.00  0.00    +0.000 A 
ATOM     28  C   UNL     1       7.138   5.257  15.953  0.00  0.00    +0.000 A 
ATOM     29  C   UNL     1       5.922   4.715  16.373  0.00  0.00    +0.000 A 
ATOM     30  C   UNL     1       5.192   3.891  15.512  0.00  0.00    +0.000 A 
ATOM     31  C   UNL     1       5.602   3.738  14.187  0.00  0.00    +0.000 A 
ENDBRANCH  22  29
ENDBRANCH   1  22
TORSDOF 5
ENDMDL
MODEL 2
REMARK VINA RESULT:      -8.6      0.621      1.417
REMARK  Name = 
REMARK  6 active torsions:
REMARK  status: ('A' for Active; 'I' for Inactive)
REMARK    1  A    between atoms: C_1  and  C_2
REMARK    2  A    between atoms: C_5  and  S_6
REMARK    3  A    between atoms: S_6  and  N_9
REMARK    4  A    between atoms: C_14  and  C_15
REMARK    5  A    between atoms: N_17  and  C_18
REMARK    6  A    between atoms: C_21  and  N_22
REMARK                            x       y       z     vdW  Elec       q    Type
REMARK                         _______ _______ _______ _____ _____    ______ ____
ROOT
ATOM      1  N   UNL     1       4.109   3.928  18.240  0.00  0.00    +0.000 NA
ATOM      2  C   UNL     1       4.250   2.979  19.370  0.00  0.00    +0.000 C 
ATOM      3  C   UNL     1       3.188   1.891  19.327  0.00  0.00    +0.000 C 
ATOM      4  C   UNL     1       1.802   2.509  19.333  0.00  0.00    +0.000 C 
ATOM      5  C   UNL     1       1.653   3.439  18.134  0.00  0.00    +0.000 C 
ATOM      6  C   UNL     1       2.753   4.518  18.027  0.00  0.00    +0.000 C 
ENDROOT
BRANCH   6   7
ATOM      7  C   UNL     1       2.435   5.701  18.953  0.00  0.00    +0.000 C 
ATOM      8  O   UNL     1       2.452   5.537  20.172  0.00  0.00    +0.000 OA
ATOM      9  N   UNL     1       2.145   6.897  18.297  0.00  0.00    +0.000 N 
ATOM     10  H   UNL     1       2.220   6.910  17.284  0.00  0.00    +0.000 HD
BRANCH   9  11
ATOM     11  C   UNL     1       1.757   8.118  18.912  0.00  0.00    +0.000 A 
ATOM     12  C   UNL     1       1.665   9.321  18.210  0.00  0.00    +0.000 A 
ATOM     13  C   UNL     1       1.362  10.524  18.854  0.00  0.00    +0.000 A 
ATOM     14  C   UNL     1       1.145  10.549  20.231  0.00  0.00    +0.000 A 
ATOM     15  C   UNL     1       1.164   9.342  20.944  0.00  0.00    +0.000 A 
ATOM     16  C   UNL     1       1.465   8.133  20.284  0.00  0.00    +0.000 A 
BRANCH  14  17
ATOM     17  N   UNL     1       0.949  11.784  20.893  0.00  0.00    +0.000 N 
ATOM     18  C   UNL     1       1.594  12.982  20.710  0.00  0.00    +0.000 A 
ATOM     19  N   UNL     1       1.163  13.857  21.586  0.00  0.00    +0.000 NA
ATOM     20  N   UNL     1       0.218  13.198  22.326  0.00  0.00    +0.000 NA
ATOM     21  N   UNL     1       0.070  11.946  21.912  0.00  0.00    +0.000 NA
ENDBRANCH  14  17
ENDBRANCH   9  11
ENDBRANCH   6   7
BRANCH   1  22
ATOM     22  S   UNL     1       5.456   4.933  17.912  0.00  0.00    +0.000 S 
ATOM     23  O   UNL     1       6.564   4.381  18.671  0.00  0.00    +0.000 OA
ATOM     24  O   UNL     1       5.040   6.307  18.085  0.00  0.00    +0.000 OA
BRANCH  22  29
ATOM     25  C   UNL     1       6.998   3.804  12.153  0.00  0.00    +0.000 C 
ATOM     26  C   UNL     1       6.552   4.204  13.528  0.00  0.00    +0.000 A 
ATOM     27  C   UNL     1       5.270   3.885  13.992  0.00  0.00    +0.000 A 
ATOM     28  C   UNL     1       4.906   4.163  15.313  0.00  0.00    +0.000 A 
ATOM     29  C   UNL     1       5.840   4.728  16.183  0.00  0.00    +0.000 A 
ATOM     30  C   UNL     1       7.069   5.173  15.692  0.00  0.00    +0.000 A 
ATOM     31  C   UNL     1       7.423   4.910  14.368  0.00  0.00    +0.000 A 
ENDBRANCH  22  29
ENDBRANCH   1  22
TORSDOF 5
ENDMDL
MODEL 3
REMARK VINA RESULT:      -8.6      0.732      1.288
REMARK  Name = 
REMARK  6 active torsions:
REMARK  status: ('A' for Active; 'I' for Inactive)
REMARK    1  A    between atoms: C_1  and  C_2
REMARK    2  A    between atoms: C_5  and  S_6
REMARK    3  A    between atoms: S_6  and  N_9
REMARK    4  A    between atoms: C_14  and  C_15
REMARK    5  A    between atoms: N_17  and  C_18
REMARK    6  A    between atoms: C_21  and  N_22
REMARK                            x       y       z     vdW  Elec       q    Type
REMARK                         _______ _______ _______ _____ _____    ______ ____
ROOT
ATOM      1  N   UNL     1       3.930   4.094  18.204  0.00  0.00    +0.000 NA
ATOM      2  C   UNL     1       3.925   3.100  19.304  0.00  0.00    +0.000 C 
ATOM      3  C   UNL     1       2.786   2.102  19.155  0.00  0.00    +0.000 C 
ATOM      4  C   UNL     1       1.455   2.830  19.101  0.00  0.00    +0.000 C 
ATOM      5  C   UNL     1       1.455   3.808  17.932  0.00  0.00    +0.000 C 
ATOM      6  C   UNL     1       2.640   4.798  17.933  0.00  0.00    +0.000 C 
ENDROOT
BRANCH   6   7
ATOM      7  C   UNL     1       2.359   5.971  18.883  0.00  0.00    +0.000 C 
ATOM      8  O   UNL     1       2.425   5.795  20.098  0.00  0.00    +0.000 OA
ATOM      9  N   UNL     1       2.041   7.173  18.251  0.00  0.00    +0.000 N 
ATOM     10  H   UNL     1       2.075   7.196  17.236  0.00  0.00    +0.000 HD
BRANCH   9  11
ATOM     11  C   UNL     1       1.675   8.387  18.893  0.00  0.00    +0.000 A 
ATOM     12  C   UNL     1       1.599   9.606  18.218  0.00  0.00    +0.000 A 
ATOM     13  C   UNL     1       1.319  10.800  18.888  0.00  0.00    +0.000 A 
ATOM     14  C   UNL     1       1.110  10.800  20.266  0.00  0.00    +0.000 A 
ATOM     15  C   UNL     1       1.113   9.578  20.954  0.00  0.00    +0.000 A 
ATOM     16  C   UNL     1       1.391   8.378  20.267  0.00  0.00    +0.000 A 
BRANCH  14  17
ATOM     17  N   UNL     1       0.937  12.024  20.955  0.00  0.00    +0.000 N 
ATOM     18  C   UNL     1      -0.183  12.525  21.570  0.00  0.00    +0.000 A 
ATOM     19  N   UNL     1       0.061  13.732  22.021  0.00  0.00    +0.000 NA
ATOM     20  N   UNL     1       1.365  13.988  21.692  0.00  0.00    +0.000 NA
ATOM     21  N   UNL     1       1.912  12.960  21.056  0.00  0.00    +0.000 NA
ENDBRANCH  14  17
ENDBRANCH   9  11
ENDBRANCH   6   7
BRANCH   1  22
ATOM     22  S   UNL     1       5.369   4.998  17.997  0.00  0.00    +0.000 S 
ATOM     23  O   UNL     1       6.340   4.424  18.912  0.00  0.00    +0.000 OA
ATOM     24  O   UNL     1       5.027   6.402  18.052  0.00  0.00    +0.000 OA
BRANCH  22  29
ATOM     25  C   UNL     1       7.016   4.273  12.201  0.00  0.00    +0.000 C 
ATOM     26  C   UNL     1       6.701   4.345  13.667  0.00  0.00    +0.000 A 
ATOM     27  C   UNL     1       7.499   5.094  14.540  0.00  0.00    +0.000 A 
ATOM     28  C   UNL     1       7.132   5.246  15.880  0.00  0.00    +0.000 A 
ATOM     29  C   UNL     1       5.944   4.676  16.340  0.00  0.00    +0.000 A 
ATOM     30  C   UNL     1       5.217   3.817  15.513  0.00  0.00    +0.000 A 
ATOM     31  C   UNL     1       5.596   3.653  14.179  0.00  0.00    +0.000 A 
ENDBRANCH  22  29
ENDBRANCH   1  22
TORSDOF 5
ENDMDL
MODEL 4
REMARK VINA RESULT:      -8.5      0.809      1.379
REMARK  Name = 
REMARK  6 active torsions:
REMARK  status: ('A' for Active; 'I' for Inactive)
REMARK    1  A    between atoms: C_1  and  C_2
REMARK    2  A    between atoms: C_5  and  S_6
REMARK    3  A    between atoms: S_6  and  N_9
REMARK    4  A    between atoms: C_14  and  C_15
REMARK    5  A    between atoms: N_17  and  C_18
REMARK    6  A    between atoms: C_21  and  N_22
REMARK                            x       y       z     vdW  Elec       q    Type
REMARK                         _______ _______ _______ _____ _____    ______ ____
ROOT
ATOM      1  N   UNL     1       4.222   4.015  18.146  0.00  0.00    +0.000 NA
ATOM      2  C   UNL     1       4.357   3.082  19.291  0.00  0.00    +0.000 C 
ATOM      3  C   UNL     1       3.281   2.007  19.270  0.00  0.00    +0.000 C 
ATOM      4  C   UNL     1       1.903   2.644  19.275  0.00  0.00    +0.000 C 
ATOM      5  C   UNL     1       1.758   3.557  18.063  0.00  0.00    +0.000 C 
ATOM      6  C   UNL     1       2.872   4.620  17.933  0.00  0.00    +0.000 C 
ENDROOT
BRANCH   6   7
ATOM      7  C   UNL     1       2.575   5.820  18.842  0.00  0.00    +0.000 C 
ATOM      8  O   UNL     1       2.633   5.684  20.063  0.00  0.00    +0.000 OA
ATOM      9  N   UNL     1       2.255   7.000  18.170  0.00  0.00    +0.000 N 
ATOM     10  H   UNL     1       2.296   6.990  17.154  0.00  0.00    +0.000 HD
BRANCH   9  11
ATOM     11  C   UNL     1       1.877   8.231  18.769  0.00  0.00    +0.000 A 
ATOM     12  C   UNL     1       1.477   8.331  20.103  0.00  0.00    +0.000 A 
ATOM     13  C   UNL     1       1.030   9.538  20.646  0.00  0.00    +0.000 A 
ATOM     14  C   UNL     1       0.969  10.685  19.856  0.00  0.00    +0.000 A 
ATOM     15  C   UNL     1       1.430  10.624  18.534  0.00  0.00    +0.000 A 
ATOM     16  C   UNL     1       1.885   9.402  17.997  0.00  0.00    +0.000 A 
BRANCH  14  17
ATOM     17  N   UNL     1       0.412  11.875  20.381  0.00  0.00    +0.000 N 
ATOM     18  C   UNL     1      -0.147  12.105  21.613  0.00  0.00    +0.000 A 
ATOM     19  N   UNL     1      -0.617  13.328  21.667  0.00  0.00    +0.000 NA
ATOM     20  N   UNL     1      -0.335  13.881  20.446  0.00  0.00    +0.000 NA
ATOM     21  N   UNL     1       0.297  13.018  19.662  0.00  0.00    +0.000 NA
ENDBRANCH  14  17
ENDBRANCH   9  11
ENDBRANCH   6   7
BRANCH   1  22
ATOM     22  S   UNL     1       5.579   4.997  17.795  0.00  0.00    +0.000 S 
ATOM     23  O   UNL     1       6.689   4.431  18.542  0.00  0.00    +0.000 OA
ATOM     24  O   UNL     1       5.187   6.378  17.967  0.00  0.00    +0.000 OA
BRANCH  22  29
ATOM     25  C   UNL     1       7.050   3.832  12.024  0.00  0.00    +0.000 C 
ATOM     26  C   UNL     1       6.615   4.237  13.402  0.00  0.00    +0.000 A 
ATOM     27  C   UNL     1       5.359   3.871  13.899  0.00  0.00    +0.000 A 
ATOM     28  C   UNL     1       5.010   4.157  15.222  0.00  0.00    +0.000 A 
ATOM     29  C   UNL     1       5.936   4.778  16.062  0.00  0.00    +0.000 A 
ATOM     30  C   UNL     1       7.134   5.267  15.537  0.00  0.00    +0.000 A 
ATOM     31  C   UNL     1       7.472   4.996  14.210  0.00  0.00    +0.000 A 
ENDBRANCH  22  29
ENDBRANCH   1  22
TORSDOF 5
ENDMDL
MODEL 5
REMARK VINA RESULT:      -8.3      1.105      1.181
REMARK  Name = 
REMARK  6 active torsions:
REMARK  status: ('A' for Active; 'I' for Inactive)
REMARK    1  A    between atoms: C_1  and  C_2
REMARK    2  A    between atoms: C_5  and  S_6
REMARK    3  A    between atoms: S_6  and  N_9
REMARK    4  A    between atoms: C_14  and  C_15
REMARK    5  A    between atoms: N_17  and  C_18
REMARK    6  A    between atoms: C_21  and  N_22
REMARK                            x       y       z     vdW  Elec       q    Type
REMARK                         _______ _______ _______ _____ _____    ______ ____
ROOT
ATOM      1  N   UNL     1       3.834   4.231  18.484  0.00  0.00    +0.000 NA
ATOM      2  C   UNL     1       3.752   3.337  19.665  0.00  0.00    +0.000 C 
ATOM      3  C   UNL     1       2.579   2.375  19.561  0.00  0.00    +0.000 C 
ATOM      4  C   UNL     1       1.281   3.146  19.398  0.00  0.00    +0.000 C 
ATOM      5  C   UNL     1       1.359   4.018  18.149  0.00  0.00    +0.000 C 
ATOM      6  C   UNL     1       2.584   4.958  18.108  0.00  0.00    +0.000 C 
ENDROOT
BRANCH   6   7
ATOM      7  C   UNL     1       2.321   6.219  18.942  0.00  0.00    +0.000 C 
ATOM      8  O   UNL     1       2.309   6.141  20.169  0.00  0.00    +0.000 OA
ATOM      9  N   UNL     1       2.110   7.380  18.199  0.00  0.00    +0.000 N 
ATOM     10  H   UNL     1       2.201   7.316  17.188  0.00  0.00    +0.000 HD
BRANCH   9  11
ATOM     11  C   UNL     1       1.782   8.661  18.719  0.00  0.00    +0.000 A 
ATOM     12  C   UNL     1       1.245   8.844  19.994  0.00  0.00    +0.000 A 
ATOM     13  C   UNL     1       0.853  10.105  20.450  0.00  0.00    +0.000 A 
ATOM     14  C   UNL     1       0.988  11.224  19.630  0.00  0.00    +0.000 A 
ATOM     15  C   UNL     1       1.589  11.074  18.371  0.00  0.00    +0.000 A 
ATOM     16  C   UNL     1       1.987   9.798  17.922  0.00  0.00    +0.000 A 
BRANCH  14  17
ATOM     17  N   UNL     1       0.489  12.477  20.055  0.00  0.00    +0.000 N 
ATOM     18  C   UNL     1       1.174  13.616  20.397  0.00  0.00    +0.000 A 
ATOM     19  N   UNL     1       0.333  14.533  20.814  0.00  0.00    +0.000 NA
ATOM     20  N   UNL     1      -0.907  13.960  20.718  0.00  0.00    +0.000 NA
ATOM     21  N   UNL     1      -0.830  12.720  20.252  0.00  0.00    +0.000 NA
ENDBRANCH  14  17
ENDBRANCH   9  11
ENDBRANCH   6   7
BRANCH   1  22
ATOM     22  S   UNL     1       5.315   5.057  18.251  0.00  0.00    +0.000 S 
ATOM     23  O   UNL     1       6.267   4.442  19.160  0.00  0.00    +0.000 OA
ATOM     24  O   UNL     1       5.046   6.477  18.298  0.00  0.00    +0.000 OA
BRANCH  22  29
ATOM     25  C   UNL     1       6.886   4.224  12.449  0.00  0.00    +0.000 C 
ATOM     26  C   UNL     1       6.574   4.311  13.915  0.00  0.00    +0.000 A 
ATOM     27  C   UNL     1       7.461   4.929  14.805  0.00  0.00    +0.000 A 
ATOM     28  C   UNL     1       7.109   5.104  16.146  0.00  0.00    +0.000 A 
ATOM     29  C   UNL     1       5.851   4.691  16.591  0.00  0.00    +0.000 A 
ATOM     30  C   UNL     1       5.021   3.953  15.744  0.00  0.00    +0.000 A 
ATOM     31  C   UNL     1       5.383   3.765  14.409  0.00  0.00    +0.000 A 
ENDBRANCH  22  29
ENDBRANCH   1  22
TORSDOF 5
ENDMDL
MODEL 6
REMARK VINA RESULT:      -8.2      1.054      1.451
REMARK  Name = 
REMARK  6 active torsions:
REMARK  status: ('A' for Active; 'I' for Inactive)
REMARK    1  A    between atoms: C_1  and  C_2
REMARK    2  A    between atoms: C_5  and  S_6
REMARK    3  A    between atoms: S_6  and  N_9
REMARK    4  A    between atoms: C_14  and  C_15
REMARK    5  A    between atoms: N_17  and  C_18
REMARK    6  A    between atoms: C_21  and  N_22
REMARK                            x       y       z     vdW  Elec       q    Type
REMARK                         _______ _______ _______ _____ _____    ______ ____
ROOT
ATOM      1  N   UNL     1       3.553   3.768  18.767  0.00  0.00    +0.000 NA
ATOM      2  C   UNL     1       3.190   2.816  19.843  0.00  0.00    +0.000 C 
ATOM      3  C   UNL     1       2.011   1.940  19.445  0.00  0.00    +0.000 C 
ATOM      4  C   UNL     1       0.815   2.802  19.084  0.00  0.00    +0.000 C 
ATOM      5  C   UNL     1       1.187   3.737  17.939  0.00  0.00    +0.000 C 
ATOM      6  C   UNL     1       2.443   4.596  18.203  0.00  0.00    +0.000 C 
ENDROOT
BRANCH   6   7
ATOM      7  C   UNL     1       2.085   5.821  19.056  0.00  0.00    +0.000 C 
ATOM      8  O   UNL     1       1.768   5.668  20.234  0.00  0.00    +0.000 OA
ATOM      9  N   UNL     1       2.155   7.042  18.385  0.00  0.00    +0.000 N 
ATOM     10  H   UNL     1       2.484   7.034  17.423  0.00  0.00    +0.000 HD
BRANCH   9  11
ATOM     11  C   UNL     1       1.813   8.314  18.919  0.00  0.00    +0.000 A 
ATOM     12  C   UNL     1       1.393   8.491  20.238  0.00  0.00    +0.000 A 
ATOM     13  C   UNL     1       0.981   9.738  20.715  0.00  0.00    +0.000 A 
ATOM     14  C   UNL     1       0.979  10.848  19.872  0.00  0.00    +0.000 A 
ATOM     15  C   UNL     1       1.462  10.708  18.563  0.00  0.00    +0.000 A 
ATOM     16  C   UNL     1       1.880   9.446  18.093  0.00  0.00    +0.000 A 
BRANCH  14  17
ATOM     17  N   UNL     1       0.458  12.081  20.329  0.00  0.00    +0.000 N 
ATOM     18  C   UNL     1      -0.342  12.985  19.675  0.00  0.00    +0.000 A 
ATOM     19  N   UNL     1      -0.532  14.040  20.430  0.00  0.00    +0.000 NA
ATOM     20  N   UNL     1       0.154  13.787  21.588  0.00  0.00    +0.000 NA
ATOM     21  N   UNL     1       0.750  12.602  21.546  0.00  0.00    +0.000 NA
ENDBRANCH  14  17
ENDBRANCH   9  11
ENDBRANCH   6   7
BRANCH   1  22
ATOM     22  S   UNL     1       5.092   4.508  18.887  0.00  0.00    +0.000 S 
ATOM     23  O   UNL     1       5.953   3.541  19.545  0.00  0.00    +0.000 OA
ATOM     24  O   UNL     1       4.908   5.837  19.427  0.00  0.00    +0.000 OA
BRANCH  22  29
ATOM     25  C   UNL     1       7.552   4.929  13.356  0.00  0.00    +0.000 C 
ATOM     26  C   UNL     1       6.832   4.902  14.672  0.00  0.00    +0.000 A 
ATOM     27  C   UNL     1       5.850   3.940  14.937  0.00  0.00    +0.000 A 
ATOM     28  C   UNL     1       5.268   3.855  16.205  0.00  0.00    +0.000 A 
ATOM     29  C   UNL     1       5.695   4.711  17.221  0.00  0.00    +0.000 A 
ATOM     30  C   UNL     1       6.571   5.759  16.927  0.00  0.00    +0.000 A 
ATOM     31  C   UNL     1       7.138   5.852  15.655  0.00  0.00    +0.000 A 
ENDBRANCH  22  29
ENDBRANCH   1  22
TORSDOF 5
ENDMDL
MODEL 7
REMARK VINA RESULT:      -8.0      2.222      3.087
REMARK  Name = 
REMARK  6 active torsions:
REMARK  status: ('A' for Active; 'I' for Inactive)
REMARK    1  A    between atoms: C_1  and  C_2
REMARK    2  A    between atoms: C_5  and  S_6
REMARK    3  A    between atoms: S_6  and  N_9
REMARK    4  A    between atoms: C_14  and  C_15
REMARK    5  A    between atoms: N_17  and  C_18
REMARK    6  A    between atoms: C_21  and  N_22
REMARK                            x       y       z     vdW  Elec       q    Type
REMARK                         _______ _______ _______ _____ _____    ______ ____
ROOT
ATOM      1  N   UNL     1       4.322   3.232  17.853  0.00  0.00    +0.000 NA
ATOM      2  C   UNL     1       4.979   3.415  19.169  0.00  0.00    +0.000 C 
ATOM      3  C   UNL     1       4.550   2.350  20.166  0.00  0.00    +0.000 C 
ATOM      4  C   UNL     1       3.041   2.362  20.329  0.00  0.00    +0.000 C 
ATOM      5  C   UNL     1       2.379   2.116  18.978  0.00  0.00    +0.000 C 
ATOM      6  C   UNL     1       2.835   3.084  17.864  0.00  0.00    +0.000 C 
ENDROOT
BRANCH   6   7
ATOM      7  C   UNL     1       2.076   4.414  17.966  0.00  0.00    +0.000 C 
ATOM      8  O   UNL     1       1.052   4.580  17.305  0.00  0.00    +0.000 OA
ATOM      9  N   UNL     1       2.645   5.348  18.832  0.00  0.00    +0.000 N 
ATOM     10  H   UNL     1       3.465   5.063  19.361  0.00  0.00    +0.000 HD
BRANCH   9  11
ATOM     11  C   UNL     1       2.183   6.673  19.059  0.00  0.00    +0.000 A 
ATOM     12  C   UNL     1       2.229   7.666  18.080  0.00  0.00    +0.000 A 
ATOM     13  C   UNL     1       1.848   8.983  18.353  0.00  0.00    +0.000 A 
ATOM     14  C   UNL     1       1.409   9.338  19.627  0.00  0.00    +0.000 A 
ATOM     15  C   UNL     1       1.288   8.341  20.607  0.00  0.00    +0.000 A 
ATOM     16  C   UNL     1       1.671   7.015  20.319  0.00  0.00    +0.000 A 
BRANCH  14  17
ATOM     17  N   UNL     1       1.129  10.692  19.926  0.00  0.00    +0.000 N 
ATOM     18  C   UNL     1       0.762  11.712  19.083  0.00  0.00    +0.000 A 
ATOM     19  N   UNL     1       0.677  12.835  19.755  0.00  0.00    +0.000 NA
ATOM     20  N   UNL     1       0.985  12.510  21.049  0.00  0.00    +0.000 NA
ATOM     21  N   UNL     1       1.250  11.216  21.170  0.00  0.00    +0.000 NA
ENDBRANCH  14  17
ENDBRANCH   9  11
ENDBRANCH   6   7
BRANCH   1  22
ATOM     22  S   UNL     1       5.011   4.070  16.530  0.00  0.00    +0.000 S 
ATOM     23  O   UNL     1       3.900   4.661  15.804  0.00  0.00    +0.000 OA
ATOM     24  O   UNL     1       5.945   3.181  15.875  0.00  0.00    +0.000 OA
BRANCH  22  29
ATOM     25  C   UNL     1       8.586   8.579  18.457  0.00  0.00    +0.000 C 
ATOM     26  C   UNL     1       7.622   7.487  18.099  0.00  0.00    +0.000 A 
ATOM     27  C   UNL     1       6.432   7.770  17.417  0.00  0.00    +0.000 A 
ATOM     28  C   UNL     1       5.597   6.734  16.990  0.00  0.00    +0.000 A 
ATOM     29  C   UNL     1       5.971   5.408  17.214  0.00  0.00    +0.000 A 
ATOM     30  C   UNL     1       7.083   5.122  18.010  0.00  0.00    +0.000 A 
ATOM     31  C   UNL     1       7.905   6.161  18.450  0.00  0.00    +0.000 A 
ENDBRANCH  22  29
ENDBRANCH   1  22
TORSDOF 5
ENDMDL
MODEL 8
REMARK VINA RESULT:      -8.0      1.198      1.914
REMARK  Name = 
REMARK  6 active torsions:
REMARK  status: ('A' for Active; 'I' for Inactive)
REMARK    1  A    between atoms: C_1  and  C_2
REMARK    2  A    between atoms: C_5  and  S_6
REMARK    3  A    between atoms: S_6  and  N_9
REMARK    4  A    between atoms: C_14  and  C_15
REMARK    5  A    between atoms: N_17  and  C_18
REMARK    6  A    between atoms: C_21  and  N_22
REMARK                            x       y       z     vdW  Elec       q    Type
REMARK                         _______ _______ _______ _____ _____    ______ ____
ROOT
ATOM      1  N   UNL     1       4.049   4.438  18.283  0.00  0.00    +0.000 NA
ATOM      2  C   UNL     1       4.059   3.621  19.520  0.00  0.00    +0.000 C 
ATOM      3  C   UNL     1       2.892   2.646  19.559  0.00  0.00    +0.000 C 
ATOM      4  C   UNL     1       1.577   3.395  19.438  0.00  0.00    +0.000 C 
ATOM      5  C   UNL     1       1.559   4.186  18.135  0.00  0.00    +0.000 C 
ATOM      6  C   UNL     1       2.767   5.131  17.949  0.00  0.00    +0.000 C 
ENDROOT
BRANCH   6   7
ATOM      7  C   UNL     1       2.547   6.440  18.719  0.00  0.00    +0.000 C 
ATOM      8  O   UNL     1       2.755   6.473  19.931  0.00  0.00    +0.000 OA
ATOM      9  N   UNL     1       2.113   7.513  17.940  0.00  0.00    +0.000 N 
ATOM     10  H   UNL     1       2.032   7.365  16.937  0.00  0.00    +0.000 HD
BRANCH   9  11
ATOM     11  C   UNL     1       1.773   8.809  18.411  0.00  0.00    +0.000 A 
ATOM     12  C   UNL     1       2.236   9.979  17.805  0.00  0.00    +0.000 A 
ATOM     13  C   UNL     1       1.957  11.240  18.338  0.00  0.00    +0.000 A 
ATOM     14  C   UNL     1       1.203  11.360  19.504  0.00  0.00    +0.000 A 
ATOM     15  C   UNL     1       0.669  10.203  20.091  0.00  0.00    +0.000 A 
ATOM     16  C   UNL     1       0.952   8.935  19.542  0.00  0.00    +0.000 A 
BRANCH  14  17
ATOM     17  N   UNL     1       1.017  12.631  20.098  0.00  0.00    +0.000 N 
ATOM     18  C   UNL     1       0.577  12.946  21.359  0.00  0.00    +0.000 A 
ATOM     19  N   UNL     1       0.471  14.247  21.481  0.00  0.00    +0.000 NA
ATOM     20  N   UNL     1       0.866  14.760  20.274  0.00  0.00    +0.000 NA
ATOM     21  N   UNL     1       1.209  13.795  19.431  0.00  0.00    +0.000 NA
ENDBRANCH  14  17
ENDBRANCH   9  11
ENDBRANCH   6   7
BRANCH   1  22
ATOM     22  S   UNL     1       5.501   5.259  17.897  0.00  0.00    +0.000 S 
ATOM     23  O   UNL     1       6.545   4.620  18.679  0.00  0.00    +0.000 OA
ATOM     24  O   UNL     1       5.251   6.680  18.000  0.00  0.00    +0.000 OA
BRANCH  22  29
ATOM     25  C   UNL     1       6.888   3.686  12.203  0.00  0.00    +0.000 C 
ATOM     26  C   UNL     1       6.480   4.192  13.555  0.00  0.00    +0.000 A 
ATOM     27  C   UNL     1       5.208   3.921  14.073  0.00  0.00    +0.000 A 
ATOM     28  C   UNL     1       4.880   4.301  15.377  0.00  0.00    +0.000 A 
ATOM     29  C   UNL     1       5.839   4.922  16.179  0.00  0.00    +0.000 A 
ATOM     30  C   UNL     1       7.059   5.317  15.626  0.00  0.00    +0.000 A 
ATOM     31  C   UNL     1       7.378   4.951  14.317  0.00  0.00    +0.000 A 
ENDBRANCH  22  29
ENDBRANCH   1  22
TORSDOF 5
ENDMDL
MODEL 9
REMARK VINA RESULT:      -8.0      2.060      4.908
REMARK  Name = 
REMARK  6 active torsions:
REMARK  status: ('A' for Active; 'I' for Inactive)
REMARK    1  A    between atoms: C_1  and  C_2
REMARK    2  A    between atoms: C_5  and  S_6
REMARK    3  A    between atoms: S_6  and  N_9
REMARK    4  A    between atoms: C_14  and  C_15
REMARK    5  A    between atoms: N_17  and  C_18
REMARK    6  A    between atoms: C_21  and  N_22
REMARK                            x       y       z     vdW  Elec       q    Type
REMARK                         _______ _______ _______ _____ _____    ______ ____
ROOT
ATOM      1  N   UNL     1       5.193   3.999  17.852  0.00  0.00    +0.000 NA
ATOM      2  C   UNL     1       6.046   4.241  16.663  0.00  0.00    +0.000 C 
ATOM      3  C   UNL     1       7.462   4.633  17.058  0.00  0.00    +0.000 C 
ATOM      4  C   UNL     1       7.437   5.867  17.943  0.00  0.00    +0.000 C 
ATOM      5  C   UNL     1       6.602   5.585  19.187  0.00  0.00    +0.000 C 
ATOM      6  C   UNL     1       5.175   5.073  18.891  0.00  0.00    +0.000 C 
ENDROOT
BRANCH   6   7
ATOM      7  C   UNL     1       4.242   6.246  18.560  0.00  0.00    +0.000 C 
ATOM      8  O   UNL     1       4.409   6.876  17.517  0.00  0.00    +0.000 OA
ATOM      9  N   UNL     1       3.255   6.497  19.513  0.00  0.00    +0.000 N 
ATOM     10  H   UNL     1       3.194   5.865  20.306  0.00  0.00    +0.000 HD
BRANCH   9  11
ATOM     11  C   UNL     1       2.310   7.558  19.483  0.00  0.00    +0.000 A 
ATOM     12  C   UNL     1       2.065   8.319  18.339  0.00  0.00    +0.000 A 
ATOM     13  C   UNL     1       1.193   9.411  18.358  0.00  0.00    +0.000 A 
ATOM     14  C   UNL     1       0.542   9.771  19.537  0.00  0.00    +0.000 A 
ATOM     15  C   UNL     1       0.720   8.979  20.681  0.00  0.00    +0.000 A 
ATOM     16  C   UNL     1       1.598   7.876  20.650  0.00  0.00    +0.000 A 
BRANCH  14  17
ATOM     17  N   UNL     1      -0.252  10.941  19.577  0.00  0.00    +0.000 N 
ATOM     18  C   UNL     1      -0.720  11.711  18.541  0.00  0.00    +0.000 A 
ATOM     19  N   UNL     1      -1.353  12.757  19.015  0.00  0.00    +0.000 NA
ATOM     20  N   UNL     1      -1.293  12.633  20.377  0.00  0.00    +0.000 NA
ATOM     21  N   UNL     1      -0.639  11.534  20.732  0.00  0.00    +0.000 NA
ENDBRANCH  14  17
ENDBRANCH   9  11
ENDBRANCH   6   7
BRANCH   1  22
ATOM     22  S   UNL     1       3.730   3.151  17.584  0.00  0.00    +0.000 S 
ATOM     23  O   UNL     1       4.111   1.808  17.185  0.00  0.00    +0.000 OA
ATOM     24  O   UNL     1       2.886   3.971  16.744  0.00  0.00    +0.000 OA
BRANCH  22  29
ATOM     25  C   UNL     1       0.774   2.273  22.810  0.00  0.00    +0.000 C 
ATOM     26  C   UNL     1       1.549   2.617  21.572  0.00  0.00    +0.000 A 
ATOM     27  C   UNL     1       2.920   2.344  21.481  0.00  0.00    +0.000 A 
ATOM     28  C   UNL     1       3.606   2.564  20.284  0.00  0.00    +0.000 A 
ATOM     29  C   UNL     1       2.913   3.026  19.164  0.00  0.00    +0.000 A 
ATOM     30  C   UNL     1       1.582   3.429  19.286  0.00  0.00    +0.000 A 
ATOM     31  C   UNL     1       0.903   3.224  20.488  0.00  0.00    +0.000 A 
ENDBRANCH  22  29
ENDBRANCH   1  22
TORSDOF 5
ENDMDL
