MODEL 1
REMARK VINA RESULT:      -9.1      0.000      0.000
REMARK  Name = 
REMARK  6 active torsions:
REMARK  status: ('A' for Active; 'I' for Inactive)
REMARK    1  A    between atoms: C_1  and  C_2
REMARK    2  A    between atoms: C_8  and  C_9
REMARK    3  A    between atoms: C_15  and  C_16
REMARK    4  A    between atoms: C_17  and  C_18
REMARK    5  A    between atoms: C_18  and  C_19
REMARK    6  A    between atoms: N_21  and  C_22
REMARK                            x       y       z     vdW  Elec       q    Type
REMARK                         _______ _______ _______ _____ _____    ______ ____
ROOT
ATOM      1  C   UNL     1      -0.136  10.075  22.592  0.00  0.00    +0.000 C 
ATOM      2  C   UNL     1       0.561   9.647  21.353  0.00  0.00    +0.000 A 
ATOM      3  N   UNL     1       0.912   8.369  21.236  0.00  0.00    +0.000 NA
ATOM      4  N   UNL     1       1.514   8.245  20.022  0.00  0.00    +0.000 N 
ATOM      5  C   UNL     1       2.044   6.954  19.646  0.00  0.00    +0.000 A 
ATOM      6  C   UNL     1       1.731   5.856  20.458  0.00  0.00    +0.000 A 
ATOM      7  C   UNL     1       2.275   4.606  20.174  0.00  0.00    +0.000 A 
ATOM      8  C   UNL     1       3.134   4.456  19.087  0.00  0.00    +0.000 A 
ATOM      9  C   UNL     1       3.375   5.582  18.312  0.00  0.00    +0.000 A 
ATOM     10  N   UNL     1       2.871   6.818  18.555  0.00  0.00    +0.000 NA
ATOM     11  C   UNL     1       1.514   9.471  19.352  0.00  0.00    +0.000 A 
ATOM     12  C   UNL     1       2.000   9.682  17.958  0.00  0.00    +0.000 C 
ATOM     13  C   UNL     1       0.904  10.399  20.203  0.00  0.00    +0.000 A 
ENDROOT
BRANCH   8  14
ATOM     14  C   UNL     1       3.784   3.154  18.740  0.00  0.00    +0.000 C 
ATOM     15  F   UNL     1       4.982   2.966  19.361  0.00  0.00    +0.000 F 
ATOM     16  F   UNL     1       3.020   2.077  19.074  0.00  0.00    +0.000 F 
ATOM     17  F   UNL     1       4.032   3.035  17.406  0.00  0.00    +0.000 F 
ENDBRANCH   8  14
BRANCH  13  18
ATOM     18  C   UNL     1       0.550  11.831  19.900  0.00  0.00    +0.000 C 
BRANCH  18  19
ATOM     19  C   UNL     1      -0.679  12.123  19.037  0.00  0.00    +0.000 C 
ATOM     20  O   UNL     1      -0.640  13.074  18.259  0.00  0.00    +0.000 OA
ATOM     21  N   UNL     1      -1.784  11.326  19.263  0.00  0.00    +0.000 N 
ATOM     22  H   UNL     1      -1.645  10.486  19.808  0.00  0.00    +0.000 HD
BRANCH  21  23
ATOM     23  C   UNL     1      -3.031  11.400  18.584  0.00  0.00    +0.000 A 
ATOM     24  C   UNL     1      -4.205  11.924  19.151  0.00  0.00    +0.000 A 
ATOM     25  C   UNL     1      -5.319  12.220  18.364  0.00  0.00    +0.000 A 
ATOM     26  C   UNL     1      -5.295  12.015  16.985  0.00  0.00    +0.000 A 
ATOM     27  C   UNL     1      -4.265  11.208  16.507  0.00  0.00    +0.000 A 
ATOM     28  N   UNL     1      -4.171  10.533  15.309  0.00  0.00    +0.000 N 
ATOM     29  C   UNL     1      -3.010   9.804  15.281  0.00  0.00    +0.000 A 
ATOM     30  C   UNL     1      -2.307  10.083  16.429  0.00  0.00    +0.000 A 
ATOM     31  C   UNL     1      -3.136  10.895  17.264  0.00  0.00    +0.000 A 
ATOM     32  H   UNL     1      -4.907  10.495  14.616  0.00  0.00    +0.000 HD
ENDBRANCH  21  23
ENDBRANCH  18  19
ENDBRANCH  13  18
TORSDOF 4
ENDMDL
MODEL 2
REMARK VINA RESULT:      -8.9      0.698      1.072
REMARK  Name = 
REMARK  6 active torsions:
REMARK  status: ('A' for Active; 'I' for Inactive)
REMARK    1  A    between atoms: C_1  and  C_2
REMARK    2  A    between atoms: C_8  and  C_9
REMARK    3  A    between atoms: C_15  and  C_16
REMARK    4  A    between atoms: C_17  and  C_18
REMARK    5  A    between atoms: C_18  and  C_19
REMARK    6  A    between atoms: N_21  and  C_22
REMARK                            x       y       z     vdW  Elec       q    Type
REMARK                         _______ _______ _______ _____ _____    ______ ____
ROOT
ATOM      1  C   UNL     1      -0.029   9.555  22.656  0.00  0.00    +0.000 C 
ATOM      2  C   UNL     1       0.642   9.425  21.338  0.00  0.00    +0.000 A 
ATOM      3  N   UNL     1       1.140   8.239  20.998  0.00  0.00    +0.000 NA
ATOM      4  N   UNL     1       1.681   8.390  19.758  0.00  0.00    +0.000 N 
ATOM      5  C   UNL     1       2.342   7.256  19.154  0.00  0.00    +0.000 A 
ATOM      6  C   UNL     1       2.213   6.011  19.783  0.00  0.00    +0.000 A 
ATOM      7  C   UNL     1       2.890   4.905  19.276  0.00  0.00    +0.000 A 
ATOM      8  C   UNL     1       3.695   5.044  18.148  0.00  0.00    +0.000 A 
ATOM      9  C   UNL     1       3.751   6.301  17.562  0.00  0.00    +0.000 A 
ATOM     10  N   UNL     1       3.114   7.406  18.025  0.00  0.00    +0.000 NA
ATOM     11  C   UNL     1       1.491   9.697  19.301  0.00  0.00    +0.000 A 
ATOM     12  C   UNL     1       1.865  10.190  17.945  0.00  0.00    +0.000 C 
ATOM     13  C   UNL     1       0.822  10.390  20.317  0.00  0.00    +0.000 A 
ENDROOT
BRANCH   8  14
ATOM     14  C   UNL     1       4.479   3.910  17.565  0.00  0.00    +0.000 C 
ATOM     15  F   UNL     1       4.380   3.826  16.209  0.00  0.00    +0.000 F 
ATOM     16  F   UNL     1       5.811   3.996  17.836  0.00  0.00    +0.000 F 
ATOM     17  F   UNL     1       4.079   2.700  18.044  0.00  0.00    +0.000 F 
ENDBRANCH   8  14
BRANCH  13  18
ATOM     18  C   UNL     1       0.278  11.793  20.270  0.00  0.00    +0.000 C 
BRANCH  18  19
ATOM     19  C   UNL     1      -0.867  12.111  19.307  0.00  0.00    +0.000 C 
ATOM     20  O   UNL     1      -0.739  13.054  18.529  0.00  0.00    +0.000 OA
ATOM     21  N   UNL     1      -2.008  11.345  19.446  0.00  0.00    +0.000 N 
ATOM     22  H   UNL     1      -1.937  10.506  20.005  0.00  0.00    +0.000 HD
BRANCH  21  23
ATOM     23  C   UNL     1      -3.193  11.447  18.666  0.00  0.00    +0.000 A 
ATOM     24  C   UNL     1      -4.388  12.026  19.126  0.00  0.00    +0.000 A 
ATOM     25  C   UNL     1      -5.424  12.342  18.244  0.00  0.00    +0.000 A 
ATOM     26  C   UNL     1      -5.297  12.103  16.877  0.00  0.00    +0.000 A 
ATOM     27  C   UNL     1      -4.262  11.248  16.501  0.00  0.00    +0.000 A 
ATOM     28  N   UNL     1      -4.098  10.541  15.329  0.00  0.00    +0.000 N 
ATOM     29  C   UNL     1      -2.967   9.771  15.411  0.00  0.00    +0.000 A 
ATOM     30  C   UNL     1      -2.348  10.053  16.606  0.00  0.00    +0.000 A 
ATOM     31  C   UNL     1      -3.211  10.913  17.354  0.00  0.00    +0.000 A 
ATOM     32  H   UNL     1      -4.777  10.513  14.580  0.00  0.00    +0.000 HD
ENDBRANCH  21  23
ENDBRANCH  18  19
ENDBRANCH  13  18
TORSDOF 4
ENDMDL
MODEL 3
REMARK VINA RESULT:      -8.7      0.978      1.035
REMARK  Name = 
REMARK  6 active torsions:
REMARK  status: ('A' for Active; 'I' for Inactive)
REMARK    1  A    between atoms: C_1  and  C_2
REMARK    2  A    between atoms: C_8  and  C_9
REMARK    3  A    between atoms: C_15  and  C_16
REMARK    4  A    between atoms: C_17  and  C_18
REMARK    5  A    between atoms: C_18  and  C_19
REMARK    6  A    between atoms: N_21  and  C_22
REMARK                            x       y       z     vdW  Elec       q    Type
REMARK                         _______ _______ _______ _____ _____    ______ ____
ROOT
ATOM      1  C   UNL     1      -0.031   9.385  23.155  0.00  0.00    +0.000 C 
ATOM      2  C   UNL     1       0.560   9.298  21.797  0.00  0.00    +0.000 A 
ATOM      3  N   UNL     1       1.088   8.140  21.410  0.00  0.00    +0.000 NA
ATOM      4  N   UNL     1       1.542   8.327  20.141  0.00  0.00    +0.000 N 
ATOM      5  C   UNL     1       2.214   7.230  19.483  0.00  0.00    +0.000 A 
ATOM      6  C   UNL     1       2.182   5.974  20.104  0.00  0.00    +0.000 A 
ATOM      7  C   UNL     1       2.873   4.905  19.541  0.00  0.00    +0.000 A 
ATOM      8  C   UNL     1       3.599   5.091  18.366  0.00  0.00    +0.000 A 
ATOM      9  C   UNL     1       3.561   6.355  17.794  0.00  0.00    +0.000 A 
ATOM     10  N   UNL     1       2.906   7.425  18.309  0.00  0.00    +0.000 NA
ATOM     11  C   UNL     1       1.266   9.628  19.714  0.00  0.00    +0.000 A 
ATOM     12  C   UNL     1       1.531  10.151  18.343  0.00  0.00    +0.000 C 
ATOM     13  C   UNL     1       0.633  10.280  20.778  0.00  0.00    +0.000 A 
ENDROOT
BRANCH   8  14
ATOM     14  C   UNL     1       4.394   3.999  17.721  0.00  0.00    +0.000 C 
ATOM     15  F   UNL     1       5.657   3.886  18.218  0.00  0.00    +0.000 F 
ATOM     16  F   UNL     1       3.824   2.772  17.872  0.00  0.00    +0.000 F 
ATOM     17  F   UNL     1       4.536   4.181  16.380  0.00  0.00    +0.000 F 
ENDBRANCH   8  14
BRANCH  13  18
ATOM     18  C   UNL     1       0.024  11.657  20.782  0.00  0.00    +0.000 C 
BRANCH  18  19
ATOM     19  C   UNL     1      -1.440  11.821  20.373  0.00  0.00    +0.000 C 
ATOM     20  O   UNL     1      -2.248  12.207  21.215  0.00  0.00    +0.000 OA
ATOM     21  N   UNL     1      -1.757  11.438  19.084  0.00  0.00    +0.000 N 
ATOM     22  H   UNL     1      -0.990  11.288  18.444  0.00  0.00    +0.000 HD
BRANCH  21  23
ATOM     23  C   UNL     1      -3.041  11.504  18.476  0.00  0.00    +0.000 A 
ATOM     24  C   UNL     1      -4.189  12.001  19.116  0.00  0.00    +0.000 A 
ATOM     25  C   UNL     1      -5.349  12.292  18.396  0.00  0.00    +0.000 A 
ATOM     26  C   UNL     1      -5.399  12.109  17.015  0.00  0.00    +0.000 A 
ATOM     27  C   UNL     1      -4.385  11.324  16.467  0.00  0.00    +0.000 A 
ATOM     28  N   UNL     1      -4.348  10.670  15.255  0.00  0.00    +0.000 N 
ATOM     29  C   UNL     1      -3.181   9.959  15.152  0.00  0.00    +0.000 A 
ATOM     30  C   UNL     1      -2.418  10.231  16.263  0.00  0.00    +0.000 A 
ATOM     31  C   UNL     1      -3.212  11.017  17.156  0.00  0.00    +0.000 A 
ATOM     32  H   UNL     1      -5.121  10.631  14.603  0.00  0.00    +0.000 HD
ENDBRANCH  21  23
ENDBRANCH  18  19
ENDBRANCH  13  18
TORSDOF 4
ENDMDL
MODEL 4
REMARK VINA RESULT:      -8.6      0.836      1.765
REMARK  Name = 
REMARK  6 active torsions:
REMARK  status: ('A' for Active; 'I' for Inactive)
REMARK    1  A    between atoms: C_1  and  C_2
REMARK    2  A    between atoms: C_8  and  C_9
REMARK    3  A    between atoms: C_15  and  C_16
REMARK    4  A    between atoms: C_17  and  C_18
REMARK    5  A    between atoms: C_18  and  C_19
REMARK    6  A    between atoms: N_21  and  C_22
REMARK                            x       y       z     vdW  Elec       q    Type
REMARK                         _______ _______ _______ _____ _____    ______ ____
ROOT
ATOM      1  C   UNL     1      -0.080   9.619  23.083  0.00  0.00    +0.000 C 
ATOM      2  C   UNL     1       0.513   9.370  21.745  0.00  0.00    +0.000 A 
ATOM      3  N   UNL     1       1.030   8.170  21.496  0.00  0.00    +0.000 NA
ATOM      4  N   UNL     1       1.488   8.205  20.215  0.00  0.00    +0.000 N 
ATOM      5  C   UNL     1       2.150   7.033  19.689  0.00  0.00    +0.000 A 
ATOM      6  C   UNL     1       2.104   5.858  20.451  0.00  0.00    +0.000 A 
ATOM      7  C   UNL     1       2.786   4.724  20.017  0.00  0.00    +0.000 A 
ATOM      8  C   UNL     1       3.515   4.766  18.831  0.00  0.00    +0.000 A 
ATOM      9  C   UNL     1       3.491   5.956  18.117  0.00  0.00    +0.000 A 
ATOM     10  N   UNL     1       2.846   7.085  18.503  0.00  0.00    +0.000 NA
ATOM     11  C   UNL     1       1.225   9.451  19.640  0.00  0.00    +0.000 A 
ATOM     12  C   UNL     1       1.499   9.809  18.218  0.00  0.00    +0.000 C 
ATOM     13  C   UNL     1       0.597  10.227  20.619  0.00  0.00    +0.000 A 
ENDROOT
BRANCH   8  14
ATOM     14  C   UNL     1       4.301   3.600  18.319  0.00  0.00    +0.000 C 
ATOM     15  F   UNL     1       5.612   3.630  18.684  0.00  0.00    +0.000 F 
ATOM     16  F   UNL     1       3.820   2.405  18.762  0.00  0.00    +0.000 F 
ATOM     17  F   UNL     1       4.292   3.523  16.960  0.00  0.00    +0.000 F 
ENDBRANCH   8  14
BRANCH  13  18
ATOM     18  C   UNL     1       0.003  11.602  20.463  0.00  0.00    +0.000 C 
BRANCH  18  19
ATOM     19  C   UNL     1      -0.771  11.933  19.186  0.00  0.00    +0.000 C 
ATOM     20  O   UNL     1      -0.551  13.004  18.624  0.00  0.00    +0.000 OA
ATOM     21  N   UNL     1      -1.731  11.017  18.802  0.00  0.00    +0.000 N 
ATOM     22  H   UNL     1      -1.711  10.111  19.248  0.00  0.00    +0.000 HD
BRANCH  21  23
ATOM     23  C   UNL     1      -2.566  11.102  17.654  0.00  0.00    +0.000 A 
ATOM     24  C   UNL     1      -2.131  10.835  16.344  0.00  0.00    +0.000 A 
ATOM     25  C   UNL     1      -3.042  10.670  15.299  0.00  0.00    +0.000 A 
ATOM     26  C   UNL     1      -4.414  10.753  15.527  0.00  0.00    +0.000 A 
ATOM     27  C   UNL     1      -4.798  11.330  16.737  0.00  0.00    +0.000 A 
ATOM     28  N   UNL     1      -6.010  11.877  17.096  0.00  0.00    +0.000 N 
ATOM     29  C   UNL     1      -5.926  12.391  18.364  0.00  0.00    +0.000 A 
ATOM     30  C   UNL     1      -4.679  12.092  18.861  0.00  0.00    +0.000 A 
ATOM     31  C   UNL     1      -3.916  11.507  17.803  0.00  0.00    +0.000 A 
ATOM     32  H   UNL     1      -6.797  11.982  16.469  0.00  0.00    +0.000 HD
ENDBRANCH  21  23
ENDBRANCH  18  19
ENDBRANCH  13  18
TORSDOF 4
ENDMDL
MODEL 5
REMARK VINA RESULT:      -8.4      2.411      3.637
REMARK  Name = 
REMARK  6 active torsions:
REMARK  status: ('A' for Active; 'I' for Inactive)
REMARK    1  A    between atoms: C_1  and  C_2
REMARK    2  A    between atoms: C_8  and  C_9
REMARK    3  A    between atoms: C_15  and  C_16
REMARK    4  A    between atoms: C_17  and  C_18
REMARK    5  A    between atoms: C_18  and  C_19
REMARK    6  A    between atoms: N_21  and  C_22
REMARK                            x       y       z     vdW  Elec       q    Type
REMARK                         _______ _______ _______ _____ _____    ______ ____
ROOT
ATOM      1  C   UNL     1      -0.039   9.698  22.921  0.00  0.00    +0.000 C 
ATOM      2  C   UNL     1       0.567   9.399  21.600  0.00  0.00    +0.000 A 
ATOM      3  N   UNL     1       1.058   8.180  21.392  0.00  0.00    +0.000 NA
ATOM      4  N   UNL     1       1.536   8.168  20.117  0.00  0.00    +0.000 N 
ATOM      5  C   UNL     1       2.175   6.967  19.634  0.00  0.00    +0.000 A 
ATOM      6  C   UNL     1       2.088   5.814  20.425  0.00  0.00    +0.000 A 
ATOM      7  C   UNL     1       2.748   4.652  20.033  0.00  0.00    +0.000 A 
ATOM      8  C   UNL     1       3.495   4.644  18.858  0.00  0.00    +0.000 A 
ATOM      9  C   UNL     1       3.512   5.814  18.112  0.00  0.00    +0.000 A 
ATOM     10  N   UNL     1       2.890   6.969  18.458  0.00  0.00    +0.000 NA
ATOM     11  C   UNL     1       1.313   9.405  19.505  0.00  0.00    +0.000 A 
ATOM     12  C   UNL     1       1.617   9.717  18.079  0.00  0.00    +0.000 C 
ATOM     13  C   UNL     1       0.690  10.223  20.454  0.00  0.00    +0.000 A 
ENDROOT
BRANCH   8  14
ATOM     14  C   UNL     1       4.259   3.445  18.389  0.00  0.00    +0.000 C 
ATOM     15  F   UNL     1       3.499   2.564  17.681  0.00  0.00    +0.000 F 
ATOM     16  F   UNL     1       5.304   3.769  17.578  0.00  0.00    +0.000 F 
ATOM     17  F   UNL     1       4.794   2.733  19.419  0.00  0.00    +0.000 F 
ENDBRANCH   8  14
BRANCH  13  18
ATOM     18  C   UNL     1       0.133  11.607  20.251  0.00  0.00    +0.000 C 
BRANCH  18  19
ATOM     19  C   UNL     1      -1.384  11.796  20.216  0.00  0.00    +0.000 C 
ATOM     20  O   UNL     1      -2.024  11.266  19.309  0.00  0.00    +0.000 OA
ATOM     21  N   UNL     1      -1.915  12.630  21.180  0.00  0.00    +0.000 N 
ATOM     22  H   UNL     1      -1.319  12.878  21.957  0.00  0.00    +0.000 HD
BRANCH  21  23
ATOM     23  C   UNL     1      -3.290  12.952  21.354  0.00  0.00    +0.000 A 
ATOM     24  C   UNL     1      -4.088  13.550  20.363  0.00  0.00    +0.000 A 
ATOM     25  C   UNL     1      -5.478  13.597  20.485  0.00  0.00    +0.000 A 
ATOM     26  C   UNL     1      -6.118  13.039  21.591  0.00  0.00    +0.000 A 
ATOM     27  C   UNL     1      -5.304  12.753  22.686  0.00  0.00    +0.000 A 
ATOM     28  N   UNL     1      -5.655  12.554  24.004  0.00  0.00    +0.000 N 
ATOM     29  C   UNL     1      -4.525  12.365  24.757  0.00  0.00    +0.000 A 
ATOM     30  C   UNL     1      -3.446  12.348  23.906  0.00  0.00    +0.000 A 
ATOM     31  C   UNL     1      -3.914  12.695  22.600  0.00  0.00    +0.000 A 
ATOM     32  H   UNL     1      -6.594  12.654  24.366  0.00  0.00    +0.000 HD
ENDBRANCH  21  23
ENDBRANCH  18  19
ENDBRANCH  13  18
TORSDOF 4
ENDMDL
MODEL 6
REMARK VINA RESULT:      -8.3      3.128      4.746
REMARK  Name = 
REMARK  6 active torsions:
REMARK  status: ('A' for Active; 'I' for Inactive)
REMARK    1  A    between atoms: C_1  and  C_2
REMARK    2  A    between atoms: C_8  and  C_9
REMARK    3  A    between atoms: C_15  and  C_16
REMARK    4  A    between atoms: C_17  and  C_18
REMARK    5  A    between atoms: C_18  and  C_19
REMARK    6  A    between atoms: N_21  and  C_22
REMARK                            x       y       z     vdW  Elec       q    Type
REMARK                         _______ _______ _______ _____ _____    ______ ____
ROOT
ATOM      1  C   UNL     1      -0.032   9.618  23.069  0.00  0.00    +0.000 C 
ATOM      2  C   UNL     1       0.550   9.335  21.733  0.00  0.00    +0.000 A 
ATOM      3  N   UNL     1       1.044   8.121  21.504  0.00  0.00    +0.000 NA
ATOM      4  N   UNL     1       1.497   8.125  20.220  0.00  0.00    +0.000 N 
ATOM      5  C   UNL     1       2.135   6.932  19.712  0.00  0.00    +0.000 A 
ATOM      6  C   UNL     1       2.071   5.772  20.495  0.00  0.00    +0.000 A 
ATOM      7  C   UNL     1       2.730   4.618  20.078  0.00  0.00    +0.000 A 
ATOM      8  C   UNL     1       3.455   4.626  18.889  0.00  0.00    +0.000 A 
ATOM      9  C   UNL     1       3.449   5.803  18.153  0.00  0.00    +0.000 A 
ATOM     10  N   UNL     1       2.826   6.950  18.523  0.00  0.00    +0.000 NA
ATOM     11  C   UNL     1       1.255   9.365  19.624  0.00  0.00    +0.000 A 
ATOM     12  C   UNL     1       1.528   9.693  18.195  0.00  0.00    +0.000 C 
ATOM     13  C   UNL     1       0.645  10.170  20.592  0.00  0.00    +0.000 A 
ENDROOT
BRANCH   8  14
ATOM     14  C   UNL     1       4.217   3.437  18.394  0.00  0.00    +0.000 C 
ATOM     15  F   UNL     1       4.810   2.723  19.390  0.00  0.00    +0.000 F 
ATOM     16  F   UNL     1       3.432   2.551  17.719  0.00  0.00    +0.000 F 
ATOM     17  F   UNL     1       5.215   3.779  17.533  0.00  0.00    +0.000 F 
ENDBRANCH   8  14
BRANCH  13  18
ATOM     18  C   UNL     1       0.075  11.552  20.414  0.00  0.00    +0.000 C 
BRANCH  18  19
ATOM     19  C   UNL     1       1.034  12.733  20.251  0.00  0.00    +0.000 C 
ATOM     20  O   UNL     1       1.739  13.057  21.204  0.00  0.00    +0.000 OA
ATOM     21  N   UNL     1       0.970  13.405  19.045  0.00  0.00    +0.000 N 
ATOM     22  H   UNL     1       0.471  12.955  18.291  0.00  0.00    +0.000 HD
BRANCH  21  23
ATOM     23  C   UNL     1       1.762  14.521  18.659  0.00  0.00    +0.000 A 
ATOM     24  C   UNL     1       3.076  14.420  18.170  0.00  0.00    +0.000 A 
ATOM     25  C   UNL     1       3.704  15.506  17.557  0.00  0.00    +0.000 A 
ATOM     26  C   UNL     1       3.040  16.722  17.401  0.00  0.00    +0.000 A 
ATOM     27  C   UNL     1       1.889  16.891  18.169  0.00  0.00    +0.000 A 
ATOM     28  N   UNL     1       1.238  18.053  18.518  0.00  0.00    +0.000 N 
ATOM     29  C   UNL     1       0.181  17.760  19.341  0.00  0.00    +0.000 A 
ATOM     30  C   UNL     1       0.095  16.392  19.448  0.00  0.00    +0.000 A 
ATOM     31  C   UNL     1       1.234  15.829  18.792  0.00  0.00    +0.000 A 
ATOM     32  H   UNL     1       1.568  18.983  18.293  0.00  0.00    +0.000 HD
ENDBRANCH  21  23
ENDBRANCH  18  19
ENDBRANCH  13  18
TORSDOF 4
ENDMDL
MODEL 7
REMARK VINA RESULT:      -8.1      2.999      4.509
REMARK  Name = 
REMARK  6 active torsions:
REMARK  status: ('A' for Active; 'I' for Inactive)
REMARK    1  A    between atoms: C_1  and  C_2
REMARK    2  A    between atoms: C_8  and  C_9
REMARK    3  A    between atoms: C_15  and  C_16
REMARK    4  A    between atoms: C_17  and  C_18
REMARK    5  A    between atoms: C_18  and  C_19
REMARK    6  A    between atoms: N_21  and  C_22
REMARK                            x       y       z     vdW  Elec       q    Type
REMARK                         _______ _______ _______ _____ _____    ______ ____
ROOT
ATOM      1  C   UNL     1       0.019   9.430  23.243  0.00  0.00    +0.000 C 
ATOM      2  C   UNL     1       0.492   9.315  21.841  0.00  0.00    +0.000 A 
ATOM      3  N   UNL     1       1.152   8.217  21.485  0.00  0.00    +0.000 NA
ATOM      4  N   UNL     1       1.456   8.360  20.166  0.00  0.00    +0.000 N 
ATOM      5  C   UNL     1       2.225   7.320  19.520  0.00  0.00    +0.000 A 
ATOM      6  C   UNL     1       2.439   6.130  20.228  0.00  0.00    +0.000 A 
ATOM      7  C   UNL     1       3.231   5.128  19.673  0.00  0.00    +0.000 A 
ATOM      8  C   UNL     1       3.811   5.317  18.421  0.00  0.00    +0.000 A 
ATOM      9  C   UNL     1       3.531   6.510  17.769  0.00  0.00    +0.000 A 
ATOM     10  N   UNL     1       2.770   7.514  18.272  0.00  0.00    +0.000 NA
ATOM     11  C   UNL     1       0.948   9.567  19.679  0.00  0.00    +0.000 A 
ATOM     12  C   UNL     1       1.007  10.006  18.255  0.00  0.00    +0.000 C 
ATOM     13  C   UNL     1       0.322  10.208  20.754  0.00  0.00    +0.000 A 
ENDROOT
BRANCH   8  14
ATOM     14  C   UNL     1       4.702   4.301  17.776  0.00  0.00    +0.000 C 
ATOM     15  F   UNL     1       4.679   4.350  16.416  0.00  0.00    +0.000 F 
ATOM     16  F   UNL     1       6.009   4.445  18.131  0.00  0.00    +0.000 F 
ATOM     17  F   UNL     1       4.364   3.026  18.111  0.00  0.00    +0.000 F 
ENDBRANCH   8  14
BRANCH  13  18
ATOM     18  C   UNL     1      -0.485  11.479  20.724  0.00  0.00    +0.000 C 
BRANCH  18  19
ATOM     19  C   UNL     1       0.241  12.813  20.544  0.00  0.00    +0.000 C 
ATOM     20  O   UNL     1       0.881  13.268  21.490  0.00  0.00    +0.000 OA
ATOM     21  N   UNL     1       0.049  13.451  19.334  0.00  0.00    +0.000 N 
ATOM     22  H   UNL     1      -0.364  12.911  18.587  0.00  0.00    +0.000 HD
BRANCH  21  23
ATOM     23  C   UNL     1       0.622  14.690  18.933  0.00  0.00    +0.000 A 
ATOM     24  C   UNL     1      -0.114  15.873  18.751  0.00  0.00    +0.000 A 
ATOM     25  C   UNL     1       0.524  17.108  18.622  0.00  0.00    +0.000 A 
ATOM     26  C   UNL     1       1.913  17.206  18.683  0.00  0.00    +0.000 A 
ATOM     27  C   UNL     1       2.615  16.010  18.538  0.00  0.00    +0.000 A 
ATOM     28  N   UNL     1       3.934  15.811  18.192  0.00  0.00    +0.000 N 
ATOM     29  C   UNL     1       4.187  14.466  18.101  0.00  0.00    +0.000 A 
ATOM     30  C   UNL     1       3.050  13.793  18.480  0.00  0.00    +0.000 A 
ATOM     31  C   UNL     1       2.011  14.759  18.663  0.00  0.00    +0.000 A 
ATOM     32  H   UNL     1       4.574  16.549  17.933  0.00  0.00    +0.000 HD
ENDBRANCH  21  23
ENDBRANCH  18  19
ENDBRANCH  13  18
TORSDOF 4
ENDMDL
MODEL 8
REMARK VINA RESULT:      -8.1      1.250      2.200
REMARK  Name = 
REMARK  6 active torsions:
REMARK  status: ('A' for Active; 'I' for Inactive)
REMARK    1  A    between atoms: C_1  and  C_2
REMARK    2  A    between atoms: C_8  and  C_9
REMARK    3  A    between atoms: C_15  and  C_16
REMARK    4  A    between atoms: C_17  and  C_18
REMARK    5  A    between atoms: C_18  and  C_19
REMARK    6  A    between atoms: N_21  and  C_22
REMARK                            x       y       z     vdW  Elec       q    Type
REMARK                         _______ _______ _______ _____ _____    ______ ____
ROOT
ATOM      1  C   UNL     1      -0.158   9.812  22.990  0.00  0.00    +0.000 C 
ATOM      2  C   UNL     1       0.486   9.565  21.675  0.00  0.00    +0.000 A 
ATOM      3  N   UNL     1       0.939   8.342  21.414  0.00  0.00    +0.000 NA
ATOM      4  N   UNL     1       1.462   8.384  20.158  0.00  0.00    +0.000 N 
ATOM      5  C   UNL     1       2.076   7.188  19.628  0.00  0.00    +0.000 A 
ATOM      6  C   UNL     1       1.918   5.997  20.349  0.00  0.00    +0.000 A 
ATOM      7  C   UNL     1       2.549   4.835  19.912  0.00  0.00    +0.000 A 
ATOM      8  C   UNL     1       3.338   4.865  18.765  0.00  0.00    +0.000 A 
ATOM      9  C   UNL     1       3.425   6.073  18.089  0.00  0.00    +0.000 A 
ATOM     10  N   UNL     1       2.832   7.230  18.480  0.00  0.00    +0.000 NA
ATOM     11  C   UNL     1       1.308   9.661  19.611  0.00  0.00    +0.000 A 
ATOM     12  C   UNL     1       1.674  10.042  18.217  0.00  0.00    +0.000 C 
ATOM     13  C   UNL     1       0.680  10.447  20.583  0.00  0.00    +0.000 A 
ENDROOT
BRANCH   8  14
ATOM     14  C   UNL     1       4.075   3.666  18.255  0.00  0.00    +0.000 C 
ATOM     15  F   UNL     1       5.429   3.805  18.298  0.00  0.00    +0.000 F 
ATOM     16  F   UNL     1       3.795   2.535  18.962  0.00  0.00    +0.000 F 
ATOM     17  F   UNL     1       3.769   3.379  16.959  0.00  0.00    +0.000 F 
ENDBRANCH   8  14
BRANCH  13  18
ATOM     18  C   UNL     1       0.181  11.861  20.442  0.00  0.00    +0.000 C 
BRANCH  18  19
ATOM     19  C   UNL     1      -0.906  12.162  19.409  0.00  0.00    +0.000 C 
ATOM     20  O   UNL     1      -0.627  12.883  18.453  0.00  0.00    +0.000 OA
ATOM     21  N   UNL     1      -2.161  11.655  19.682  0.00  0.00    +0.000 N 
ATOM     22  H   UNL     1      -2.230  10.954  20.406  0.00  0.00    +0.000 HD
BRANCH  21  23
ATOM     23  C   UNL     1      -3.322  11.795  18.872  0.00  0.00    +0.000 A 
ATOM     24  C   UNL     1      -3.394  11.397  17.526  0.00  0.00    +0.000 A 
ATOM     25  C   UNL     1      -4.620  11.308  16.864  0.00  0.00    +0.000 A 
ATOM     26  C   UNL     1      -5.813  11.598  17.524  0.00  0.00    +0.000 A 
ATOM     27  C   UNL     1      -5.690  12.289  18.728  0.00  0.00    +0.000 A 
ATOM     28  N   UNL     1      -6.635  13.023  19.411  0.00  0.00    +0.000 N 
ATOM     29  C   UNL     1      -6.064  13.589  20.522  0.00  0.00    +0.000 A 
ATOM     30  C   UNL     1      -4.766  13.142  20.606  0.00  0.00    +0.000 A 
ATOM     31  C   UNL     1      -4.483  12.396  19.418  0.00  0.00    +0.000 A 
ATOM     32  H   UNL     1      -7.571  13.206  19.073  0.00  0.00    +0.000 HD
ENDBRANCH  21  23
ENDBRANCH  18  19
ENDBRANCH  13  18
TORSDOF 4
ENDMDL
MODEL 9
REMARK VINA RESULT:      -8.1      1.177      2.144
REMARK  Name = 
REMARK  6 active torsions:
REMARK  status: ('A' for Active; 'I' for Inactive)
REMARK    1  A    between atoms: C_1  and  C_2
REMARK    2  A    between atoms: C_8  and  C_9
REMARK    3  A    between atoms: C_15  and  C_16
REMARK    4  A    between atoms: C_17  and  C_18
REMARK    5  A    between atoms: C_18  and  C_19
REMARK    6  A    between atoms: N_21  and  C_22
REMARK                            x       y       z     vdW  Elec       q    Type
REMARK                         _______ _______ _______ _____ _____    ______ ____
ROOT
ATOM      1  C   UNL     1      -0.061  10.788  21.925  0.00  0.00    +0.000 C 
ATOM      2  C   UNL     1       0.666  10.038  20.870  0.00  0.00    +0.000 A 
ATOM      3  N   UNL     1       0.879   8.737  21.054  0.00  0.00    +0.000 NA
ATOM      4  N   UNL     1       1.543   8.296  19.951  0.00  0.00    +0.000 N 
ATOM      5  C   UNL     1       1.949   6.910  19.902  0.00  0.00    +0.000 A 
ATOM      6  C   UNL     1       1.460   6.049  20.894  0.00  0.00    +0.000 A 
ATOM      7  C   UNL     1       1.879   4.721  20.927  0.00  0.00    +0.000 A 
ATOM      8  C   UNL     1       2.787   4.258  19.977  0.00  0.00    +0.000 A 
ATOM      9  C   UNL     1       3.204   5.161  19.010  0.00  0.00    +0.000 A 
ATOM     10  N   UNL     1       2.827   6.462  18.942  0.00  0.00    +0.000 NA
ATOM     11  C   UNL     1       1.726   9.342  19.043  0.00  0.00    +0.000 A 
ATOM     12  C   UNL     1       2.326   9.199  17.686  0.00  0.00    +0.000 C 
ATOM     13  C   UNL     1       1.168  10.487  19.624  0.00  0.00    +0.000 A 
ENDROOT
BRANCH   8  14
ATOM     14  C   UNL     1       3.309   2.855  19.969  0.00  0.00    +0.000 C 
ATOM     15  F   UNL     1       3.473   2.333  21.216  0.00  0.00    +0.000 F 
ATOM     16  F   UNL     1       2.488   1.991  19.310  0.00  0.00    +0.000 F 
ATOM     17  F   UNL     1       4.522   2.755  19.359  0.00  0.00    +0.000 F 
ENDBRANCH   8  14
BRANCH  13  18
ATOM     18  C   UNL     1       0.998  11.846  18.999  0.00  0.00    +0.000 C 
BRANCH  18  19
ATOM     19  C   UNL     1      -0.401  12.295  18.574  0.00  0.00    +0.000 C 
ATOM     20  O   UNL     1      -0.602  13.492  18.381  0.00  0.00    +0.000 OA
ATOM     21  N   UNL     1      -1.365  11.308  18.517  0.00  0.00    +0.000 N 
ATOM     22  H   UNL     1      -1.048  10.349  18.543  0.00  0.00    +0.000 HD
BRANCH  21  23
ATOM     23  C   UNL     1      -2.727  11.479  18.144  0.00  0.00    +0.000 A 
ATOM     24  C   UNL     1      -3.231  11.196  16.863  0.00  0.00    +0.000 A 
ATOM     25  C   UNL     1      -4.605  11.123  16.627  0.00  0.00    +0.000 A 
ATOM     26  C   UNL     1      -5.520  11.317  17.661  0.00  0.00    +0.000 A 
ATOM     27  C   UNL     1      -5.015  11.907  18.819  0.00  0.00    +0.000 A 
ATOM     28  N   UNL     1      -5.688  12.548  19.835  0.00  0.00    +0.000 N 
ATOM     29  C   UNL     1      -4.789  13.035  20.748  0.00  0.00    +0.000 A 
ATOM     30  C   UNL     1      -3.533  12.625  20.366  0.00  0.00    +0.000 A 
ATOM     31  C   UNL     1      -3.649  11.993  19.088  0.00  0.00    +0.000 A 
ATOM     32  H   UNL     1      -6.684  12.729  19.835  0.00  0.00    +0.000 HD
ENDBRANCH  21  23
ENDBRANCH  18  19
ENDBRANCH  13  18
TORSDOF 4
ENDMDL
