MODEL 1
REMARK VINA RESULT:      -8.9      0.000      0.000
REMARK  Name = 
REMARK  8 active torsions:
REMARK  status: ('A' for Active; 'I' for Inactive)
REMARK    1  A    between atoms: C_1  and  O_2
REMARK    2  A    between atoms: O_2  and  C_3
REMARK    3  A    between atoms: C_8  and  C_9
REMARK    4  A    between atoms: C_9  and  C_10
REMARK    5  A    between atoms: C_10  and  N_11
REMARK    6  A    between atoms: C_12  and  C_14
REMARK    7  A    between atoms: C_18  and  C_19
REMARK    8  A    between atoms: C_22  and  C_23
REMARK                            x       y       z     vdW  Elec       q    Type
REMARK                         _______ _______ _______ _____ _____    ______ ____
ROOT
ATOM      1  N   UNL     1       3.446   5.859  18.991  0.00  0.00    +0.000 N 
ATOM      2  C   UNL     1       2.428   6.345  19.791  0.00  0.00    +0.000 C 
ATOM      3  O   UNL     1       1.867   5.669  20.646  0.00  0.00    +0.000 OA
ATOM      4  H   UNL     1       3.705   6.345  18.145  0.00  0.00    +0.000 HD
ENDROOT
BRANCH   2   5
ATOM      5  C   UNL     1       1.986   7.748  19.592  0.00  0.00    +0.000 A 
ATOM      6  C   UNL     1       2.046   8.289  18.301  0.00  0.00    +0.000 A 
ATOM      7  C   UNL     1       1.549   9.567  18.048  0.00  0.00    +0.000 A 
ATOM      8  C   UNL     1       0.963  10.300  19.081  0.00  0.00    +0.000 A 
ATOM      9  C   UNL     1       0.873   9.760  20.375  0.00  0.00    +0.000 A 
ATOM     10  C   UNL     1       1.405   8.484  20.627  0.00  0.00    +0.000 A 
BRANCH   9  11
ATOM     11  C   UNL     1       0.203  10.482  21.451  0.00  0.00    +0.000 A 
ATOM     12  N   UNL     1       0.141  10.063  22.725  0.00  0.00    +0.000 NA
ATOM     13  O   UNL     1      -0.562  11.076  23.375  0.00  0.00    +0.000 OA
ATOM     14  C   UNL     1      -0.865  12.013  22.429  0.00  0.00    +0.000 A 
ATOM     15  N   UNL     1      -0.411  11.694  21.233  0.00  0.00    +0.000 NA
BRANCH  14  16
ATOM     16  C   UNL     1      -1.646  13.187  22.886  0.00  0.00    +0.000 C 
ATOM     17  F   UNL     1      -1.839  14.115  21.906  0.00  0.00    +0.000 F 
ATOM     18  F   UNL     1      -2.883  12.840  23.333  0.00  0.00    +0.000 F 
ATOM     19  F   UNL     1      -1.033  13.837  23.912  0.00  0.00    +0.000 F 
ENDBRANCH  14  16
ENDBRANCH   9  11
ENDBRANCH   2   5
BRANCH   1  20
ATOM     20  C   UNL     1       3.843   4.479  19.187  0.00  0.00    +0.000 C 
BRANCH  20  21
ATOM     21  C   UNL     1       3.909   3.588  17.955  0.00  0.00    +0.000 C 
ATOM     22  C   UNL     1       3.631   2.095  18.071  0.00  0.00    +0.000 C 
ATOM     23  C   UNL     1       2.640   2.975  17.370  0.00  0.00    +0.000 C 
BRANCH  21  29
ATOM     24  C   UNL     1       6.281   4.515  17.424  0.00  0.00    +0.000 A 
ATOM     25  C   UNL     1       7.217   5.011  16.505  0.00  0.00    +0.000 A 
ATOM     26  C   UNL     1       6.913   5.075  15.147  0.00  0.00    +0.000 A 
ATOM     27  C   UNL     1       5.677   4.631  14.694  0.00  0.00    +0.000 A 
ATOM     28  C   UNL     1       4.747   4.120  15.601  0.00  0.00    +0.000 A 
ATOM     29  C   UNL     1       5.018   4.047  16.984  0.00  0.00    +0.000 A 
BRANCH  24  31
ATOM     30  C   UNL     1       7.244   5.516  19.359  0.00  0.00    +0.000 C 
ATOM     31  O   UNL     1       6.510   4.445  18.777  0.00  0.00    +0.000 OA
ENDBRANCH  24  31
ENDBRANCH  21  29
ENDBRANCH  20  21
ENDBRANCH   1  20
TORSDOF 7
ENDMDL
MODEL 2
REMARK VINA RESULT:      -8.7      1.051      2.002
REMARK  Name = 
REMARK  8 active torsions:
REMARK  status: ('A' for Active; 'I' for Inactive)
REMARK    1  A    between atoms: C_1  and  O_2
REMARK    2  A    between atoms: O_2  and  C_3
REMARK    3  A    between atoms: C_8  and  C_9
REMARK    4  A    between atoms: C_9  and  C_10
REMARK    5  A    between atoms: C_10  and  N_11
REMARK    6  A    between atoms: C_12  and  C_14
REMARK    7  A    between atoms: C_18  and  C_19
REMARK    8  A    between atoms: C_22  and  C_23
REMARK                            x       y       z     vdW  Elec       q    Type
REMARK                         _______ _______ _______ _____ _____    ______ ____
ROOT
ATOM      1  N   UNL     1       2.690   5.714  17.874  0.00  0.00    +0.000 N 
ATOM      2  C   UNL     1       2.229   6.235  19.070  0.00  0.00    +0.000 C 
ATOM      3  O   UNL     1       1.997   5.545  20.056  0.00  0.00    +0.000 OA
ATOM      4  H   UNL     1       2.628   6.256  17.025  0.00  0.00    +0.000 HD
ENDROOT
BRANCH   2   5
ATOM      5  C   UNL     1       1.992   7.698  19.155  0.00  0.00    +0.000 A 
ATOM      6  C   UNL     1       2.285   8.486  18.034  0.00  0.00    +0.000 A 
ATOM      7  C   UNL     1       1.985   9.848  18.033  0.00  0.00    +0.000 A 
ATOM      8  C   UNL     1       1.364  10.422  19.143  0.00  0.00    +0.000 A 
ATOM      9  C   UNL     1       1.042   9.639  20.264  0.00  0.00    +0.000 A 
ATOM     10  C   UNL     1       1.376   8.274  20.268  0.00  0.00    +0.000 A 
BRANCH   9  11
ATOM     11  C   UNL     1       0.331  10.205  21.404  0.00  0.00    +0.000 A 
ATOM     12  N   UNL     1       0.466   9.784  22.671  0.00  0.00    +0.000 NA
ATOM     13  O   UNL     1      -0.374  10.628  23.395  0.00  0.00    +0.000 OA
ATOM     14  C   UNL     1      -0.945  11.481  22.495  0.00  0.00    +0.000 A 
ATOM     15  N   UNL     1      -0.538  11.263  21.259  0.00  0.00    +0.000 NA
BRANCH  14  16
ATOM     16  C   UNL     1      -1.910  12.467  23.036  0.00  0.00    +0.000 C 
ATOM     17  F   UNL     1      -1.324  13.410  23.828  0.00  0.00    +0.000 F 
ATOM     18  F   UNL     1      -2.559  13.146  22.051  0.00  0.00    +0.000 F 
ATOM     19  F   UNL     1      -2.871  11.874  23.794  0.00  0.00    +0.000 F 
ENDBRANCH  14  16
ENDBRANCH   9  11
ENDBRANCH   2   5
BRANCH   1  20
ATOM     20  C   UNL     1       2.890   4.280  17.808  0.00  0.00    +0.000 C 
BRANCH  20  21
ATOM     21  C   UNL     1       4.191   3.729  18.373  0.00  0.00    +0.000 C 
ATOM     22  C   UNL     1       4.181   2.888  19.643  0.00  0.00    +0.000 C 
ATOM     23  C   UNL     1       4.486   2.233  18.330  0.00  0.00    +0.000 C 
BRANCH  21  29
ATOM     24  C   UNL     1       5.821   5.100  16.880  0.00  0.00    +0.000 A 
ATOM     25  C   UNL     1       6.949   5.922  16.745  0.00  0.00    +0.000 A 
ATOM     26  C   UNL     1       7.652   6.353  17.868  0.00  0.00    +0.000 A 
ATOM     27  C   UNL     1       7.226   5.978  19.136  0.00  0.00    +0.000 A 
ATOM     28  C   UNL     1       6.094   5.174  19.279  0.00  0.00    +0.000 A 
ATOM     29  C   UNL     1       5.361   4.714  18.164  0.00  0.00    +0.000 A 
BRANCH  24  31
ATOM     30  C   UNL     1       5.828   3.973  14.783  0.00  0.00    +0.000 C 
ATOM     31  O   UNL     1       5.096   4.625  15.814  0.00  0.00    +0.000 OA
ENDBRANCH  24  31
ENDBRANCH  21  29
ENDBRANCH  20  21
ENDBRANCH   1  20
TORSDOF 7
ENDMDL
MODEL 3
REMARK VINA RESULT:      -8.5      0.959      1.355
REMARK  Name = 
REMARK  8 active torsions:
REMARK  status: ('A' for Active; 'I' for Inactive)
REMARK    1  A    between atoms: C_1  and  O_2
REMARK    2  A    between atoms: O_2  and  C_3
REMARK    3  A    between atoms: C_8  and  C_9
REMARK    4  A    between atoms: C_9  and  C_10
REMARK    5  A    between atoms: C_10  and  N_11
REMARK    6  A    between atoms: C_12  and  C_14
REMARK    7  A    between atoms: C_18  and  C_19
REMARK    8  A    between atoms: C_22  and  C_23
REMARK                            x       y       z     vdW  Elec       q    Type
REMARK                         _______ _______ _______ _____ _____    ______ ____
ROOT
ATOM      1  N   UNL     1       2.794   6.004  17.902  0.00  0.00    +0.000 N 
ATOM      2  C   UNL     1       2.251   6.493  19.077  0.00  0.00    +0.000 C 
ATOM      3  O   UNL     1       2.005   5.783  20.047  0.00  0.00    +0.000 OA
ATOM      4  H   UNL     1       2.747   6.550  17.054  0.00  0.00    +0.000 HD
ENDROOT
BRANCH   2   5
ATOM      5  C   UNL     1       1.941   7.941  19.159  0.00  0.00    +0.000 A 
ATOM      6  C   UNL     1       2.173   8.738  18.030  0.00  0.00    +0.000 A 
ATOM      7  C   UNL     1       1.803  10.083  18.028  0.00  0.00    +0.000 A 
ATOM      8  C   UNL     1       1.172  10.630  19.146  0.00  0.00    +0.000 A 
ATOM      9  C   UNL     1       0.910   9.836  20.276  0.00  0.00    +0.000 A 
ATOM     10  C   UNL     1       1.315   8.491  20.281  0.00  0.00    +0.000 A 
BRANCH   9  11
ATOM     11  C   UNL     1       0.190  10.372  21.425  0.00  0.00    +0.000 A 
ATOM     12  N   UNL     1       0.423  10.021  22.700  0.00  0.00    +0.000 NA
ATOM     13  O   UNL     1      -0.473  10.801  23.430  0.00  0.00    +0.000 OA
ATOM     14  C   UNL     1      -1.170  11.549  22.525  0.00  0.00    +0.000 A 
ATOM     15  N   UNL     1      -0.793  11.324  21.281  0.00  0.00    +0.000 NA
BRANCH  14  16
ATOM     16  C   UNL     1      -2.213  12.449  23.073  0.00  0.00    +0.000 C 
ATOM     17  F   UNL     1      -3.060  11.822  23.937  0.00  0.00    +0.000 F 
ATOM     18  F   UNL     1      -1.680  13.499  23.754  0.00  0.00    +0.000 F 
ATOM     19  F   UNL     1      -2.991  12.980  22.091  0.00  0.00    +0.000 F 
ENDBRANCH  14  16
ENDBRANCH   9  11
ENDBRANCH   2   5
BRANCH   1  20
ATOM     20  C   UNL     1       3.067   4.582  17.837  0.00  0.00    +0.000 C 
BRANCH  20  21
ATOM     21  C   UNL     1       4.478   4.125  18.171  0.00  0.00    +0.000 C 
ATOM     22  C   UNL     1       5.028   4.296  19.582  0.00  0.00    +0.000 C 
ATOM     23  C   UNL     1       4.711   2.920  19.079  0.00  0.00    +0.000 C 
BRANCH  21  29
ATOM     24  C   UNL     1       6.464   5.327  16.998  0.00  0.00    +0.000 A 
ATOM     25  C   UNL     1       7.249   5.553  15.858  0.00  0.00    +0.000 A 
ATOM     26  C   UNL     1       7.021   4.835  14.685  0.00  0.00    +0.000 A 
ATOM     27  C   UNL     1       6.017   3.876  14.647  0.00  0.00    +0.000 A 
ATOM     28  C   UNL     1       5.243   3.634  15.783  0.00  0.00    +0.000 A 
ATOM     29  C   UNL     1       5.441   4.347  16.985  0.00  0.00    +0.000 A 
BRANCH  24  31
ATOM     30  C   UNL     1       7.749   6.880  18.266  0.00  0.00    +0.000 C 
ATOM     31  O   UNL     1       6.624   6.015  18.177  0.00  0.00    +0.000 OA
ENDBRANCH  24  31
ENDBRANCH  21  29
ENDBRANCH  20  21
ENDBRANCH   1  20
TORSDOF 7
ENDMDL
MODEL 4
REMARK VINA RESULT:      -8.5      5.904     10.541
REMARK  Name = 
REMARK  8 active torsions:
REMARK  status: ('A' for Active; 'I' for Inactive)
REMARK    1  A    between atoms: C_1  and  O_2
REMARK    2  A    between atoms: O_2  and  C_3
REMARK    3  A    between atoms: C_8  and  C_9
REMARK    4  A    between atoms: C_9  and  C_10
REMARK    5  A    between atoms: C_10  and  N_11
REMARK    6  A    between atoms: C_12  and  C_14
REMARK    7  A    between atoms: C_18  and  C_19
REMARK    8  A    between atoms: C_22  and  C_23
REMARK                            x       y       z     vdW  Elec       q    Type
REMARK                         _______ _______ _______ _____ _____    ______ ____
ROOT
ATOM      1  N   UNL     1       1.988   8.210  19.367  0.00  0.00    +0.000 N 
ATOM      2  C   UNL     1       2.659   7.983  18.178  0.00  0.00    +0.000 C 
ATOM      3  O   UNL     1       2.532   8.699  17.190  0.00  0.00    +0.000 OA
ATOM      4  H   UNL     1       1.916   7.478  20.058  0.00  0.00    +0.000 HD
ENDROOT
BRANCH   2   5
ATOM      5  C   UNL     1       3.562   6.808  18.094  0.00  0.00    +0.000 A 
ATOM      6  C   UNL     1       3.496   5.843  19.106  0.00  0.00    +0.000 A 
ATOM      7  C   UNL     1       4.253   4.675  19.017  0.00  0.00    +0.000 A 
ATOM      8  C   UNL     1       5.058   4.454  17.899  0.00  0.00    +0.000 A 
ATOM      9  C   UNL     1       5.115   5.402  16.864  0.00  0.00    +0.000 A 
ATOM     10  C   UNL     1       4.373   6.591  16.977  0.00  0.00    +0.000 A 
BRANCH   9  11
ATOM     11  C   UNL     1       5.896   5.158  15.657  0.00  0.00    +0.000 A 
ATOM     12  N   UNL     1       7.145   5.605  15.456  0.00  0.00    +0.000 NA
ATOM     13  O   UNL     1       7.479   5.108  14.197  0.00  0.00    +0.000 OA
ATOM     14  C   UNL     1       6.396   4.409  13.751  0.00  0.00    +0.000 A 
ATOM     15  N   UNL     1       5.399   4.407  14.616  0.00  0.00    +0.000 NA
BRANCH  14  16
ATOM     16  C   UNL     1       6.507   3.802  12.403  0.00  0.00    +0.000 C 
ATOM     17  F   UNL     1       5.316   3.745  11.743  0.00  0.00    +0.000 F 
ATOM     18  F   UNL     1       7.358   4.492  11.597  0.00  0.00    +0.000 F 
ATOM     19  F   UNL     1       6.976   2.526  12.458  0.00  0.00    +0.000 F 
ENDBRANCH  14  16
ENDBRANCH   9  11
ENDBRANCH   2   5
BRANCH   1  20
ATOM     20  C   UNL     1       1.093   9.349  19.417  0.00  0.00    +0.000 C 
BRANCH  20  21
ATOM     21  C   UNL     1       0.362   9.606  20.726  0.00  0.00    +0.000 C 
ATOM     22  C   UNL     1      -0.226   8.446  21.518  0.00  0.00    +0.000 C 
ATOM     23  C   UNL     1       0.971   9.169  22.056  0.00  0.00    +0.000 C 
BRANCH  21  29
ATOM     24  C   UNL     1      -1.395  11.217  19.686  0.00  0.00    +0.000 A 
ATOM     25  C   UNL     1      -2.016  12.473  19.634  0.00  0.00    +0.000 A 
ATOM     26  C   UNL     1      -1.677  13.470  20.547  0.00  0.00    +0.000 A 
ATOM     27  C   UNL     1      -0.725  13.216  21.526  0.00  0.00    +0.000 A 
ATOM     28  C   UNL     1      -0.115  11.962  21.593  0.00  0.00    +0.000 A 
ATOM     29  C   UNL     1      -0.430  10.931  20.682  0.00  0.00    +0.000 A 
BRANCH  24  31
ATOM     30  C   UNL     1      -2.402  10.545  17.635  0.00  0.00    +0.000 C 
ATOM     31  O   UNL     1      -1.669  10.199  18.804  0.00  0.00    +0.000 OA
ENDBRANCH  24  31
ENDBRANCH  21  29
ENDBRANCH  20  21
ENDBRANCH   1  20
TORSDOF 7
ENDMDL
MODEL 5
REMARK VINA RESULT:      -8.5      5.211     10.104
REMARK  Name = 
REMARK  8 active torsions:
REMARK  status: ('A' for Active; 'I' for Inactive)
REMARK    1  A    between atoms: C_1  and  O_2
REMARK    2  A    between atoms: O_2  and  C_3
REMARK    3  A    between atoms: C_8  and  C_9
REMARK    4  A    between atoms: C_9  and  C_10
REMARK    5  A    between atoms: C_10  and  N_11
REMARK    6  A    between atoms: C_12  and  C_14
REMARK    7  A    between atoms: C_18  and  C_19
REMARK    8  A    between atoms: C_22  and  C_23
REMARK                            x       y       z     vdW  Elec       q    Type
REMARK                         _______ _______ _______ _____ _____    ______ ____
ROOT
ATOM      1  N   UNL     1       0.535   9.507  19.198  0.00  0.00    +0.000 N 
ATOM      2  C   UNL     1       1.611   9.085  18.438  0.00  0.00    +0.000 C 
ATOM      3  O   UNL     1       2.008   9.687  17.446  0.00  0.00    +0.000 OA
ATOM      4  H   UNL     1       0.083   8.871  19.838  0.00  0.00    +0.000 HD
ENDROOT
BRANCH   2   5
ATOM      5  C   UNL     1       2.306   7.835  18.836  0.00  0.00    +0.000 A 
ATOM      6  C   UNL     1       1.872   7.170  19.990  0.00  0.00    +0.000 A 
ATOM      7  C   UNL     1       2.427   5.942  20.347  0.00  0.00    +0.000 A 
ATOM      8  C   UNL     1       3.400   5.359  19.534  0.00  0.00    +0.000 A 
ATOM      9  C   UNL     1       3.826   6.002  18.360  0.00  0.00    +0.000 A 
ATOM     10  C   UNL     1       3.284   7.254  18.025  0.00  0.00    +0.000 A 
BRANCH   9  11
ATOM     11  C   UNL     1       4.790   5.376  17.462  0.00  0.00    +0.000 A 
ATOM     12  N   UNL     1       5.924   4.778  17.860  0.00  0.00    +0.000 NA
ATOM     13  O   UNL     1       6.492   4.315  16.674  0.00  0.00    +0.000 OA
ATOM     14  C   UNL     1       5.648   4.682  15.666  0.00  0.00    +0.000 A 
ATOM     15  N   UNL     1       4.586   5.332  16.102  0.00  0.00    +0.000 NA
BRANCH  14  16
ATOM     16  C   UNL     1       6.061   4.318  14.290  0.00  0.00    +0.000 C 
ATOM     17  F   UNL     1       6.599   3.068  14.207  0.00  0.00    +0.000 F 
ATOM     18  F   UNL     1       5.019   4.344  13.416  0.00  0.00    +0.000 F 
ATOM     19  F   UNL     1       7.000   5.171  13.798  0.00  0.00    +0.000 F 
ENDBRANCH  14  16
ENDBRANCH   9  11
ENDBRANCH   2   5
BRANCH   1  20
ATOM     20  C   UNL     1      -0.142  10.717  18.775  0.00  0.00    +0.000 C 
BRANCH  20  21
ATOM     21  C   UNL     1       0.121  11.983  19.578  0.00  0.00    +0.000 C 
ATOM     22  C   UNL     1       1.532  12.548  19.681  0.00  0.00    +0.000 C 
ATOM     23  C   UNL     1       0.502  13.283  18.877  0.00  0.00    +0.000 C 
BRANCH  21  29
ATOM     24  C   UNL     1      -0.519  11.337  22.015  0.00  0.00    +0.000 A 
ATOM     25  C   UNL     1      -1.425  11.367  23.085  0.00  0.00    +0.000 A 
ATOM     26  C   UNL     1      -2.614  12.087  22.988  0.00  0.00    +0.000 A 
ATOM     27  C   UNL     1      -2.901  12.795  21.828  0.00  0.00    +0.000 A 
ATOM     28  C   UNL     1      -1.995  12.783  20.765  0.00  0.00    +0.000 A 
ATOM     29  C   UNL     1      -0.785  12.060  20.826  0.00  0.00    +0.000 A 
BRANCH  24  31
ATOM     30  C   UNL     1       0.651   9.394  22.742  0.00  0.00    +0.000 C 
ATOM     31  O   UNL     1       0.660  10.631  22.039  0.00  0.00    +0.000 OA
ENDBRANCH  24  31
ENDBRANCH  21  29
ENDBRANCH  20  21
ENDBRANCH   1  20
TORSDOF 7
ENDMDL
MODEL 6
REMARK VINA RESULT:      -8.5      5.395      9.852
REMARK  Name = 
REMARK  8 active torsions:
REMARK  status: ('A' for Active; 'I' for Inactive)
REMARK    1  A    between atoms: C_1  and  O_2
REMARK    2  A    between atoms: O_2  and  C_3
REMARK    3  A    between atoms: C_8  and  C_9
REMARK    4  A    between atoms: C_9  and  C_10
REMARK    5  A    between atoms: C_10  and  N_11
REMARK    6  A    between atoms: C_12  and  C_14
REMARK    7  A    between atoms: C_18  and  C_19
REMARK    8  A    between atoms: C_22  and  C_23
REMARK                            x       y       z     vdW  Elec       q    Type
REMARK                         _______ _______ _______ _____ _____    ______ ____
ROOT
ATOM      1  N   UNL     1       0.893   9.240  19.834  0.00  0.00    +0.000 N 
ATOM      2  C   UNL     1       1.401   8.318  20.732  0.00  0.00    +0.000 C 
ATOM      3  O   UNL     1       1.414   8.500  21.944  0.00  0.00    +0.000 OA
ATOM      4  H   UNL     1       1.124   9.177  18.854  0.00  0.00    +0.000 HD
ENDROOT
BRANCH   2   5
ATOM      5  C   UNL     1       1.969   7.056  20.197  0.00  0.00    +0.000 A 
ATOM      6  C   UNL     1       1.514   5.842  20.727  0.00  0.00    +0.000 A 
ATOM      7  C   UNL     1       1.945   4.630  20.187  0.00  0.00    +0.000 A 
ATOM      8  C   UNL     1       2.812   4.629  19.093  0.00  0.00    +0.000 A 
ATOM      9  C   UNL     1       3.256   5.839  18.534  0.00  0.00    +0.000 A 
ATOM     10  C   UNL     1       2.842   7.054  19.106  0.00  0.00    +0.000 A 
BRANCH   9  11
ATOM     11  C   UNL     1       4.106   5.858  17.349  0.00  0.00    +0.000 A 
ATOM     12  N   UNL     1       4.588   6.972  16.777  0.00  0.00    +0.000 NA
ATOM     13  O   UNL     1       5.353   6.496  15.713  0.00  0.00    +0.000 OA
ATOM     14  C   UNL     1       5.258   5.134  15.739  0.00  0.00    +0.000 A 
ATOM     15  N   UNL     1       4.506   4.696  16.731  0.00  0.00    +0.000 NA
BRANCH  14  16
ATOM     16  C   UNL     1       5.977   4.399  14.672  0.00  0.00    +0.000 C 
ATOM     17  F   UNL     1       5.231   4.228  13.544  0.00  0.00    +0.000 F 
ATOM     18  F   UNL     1       7.115   5.036  14.285  0.00  0.00    +0.000 F 
ATOM     19  F   UNL     1       6.351   3.154  15.076  0.00  0.00    +0.000 F 
ENDBRANCH  14  16
ENDBRANCH   9  11
ENDBRANCH   2   5
BRANCH   1  20
ATOM     20  C   UNL     1       0.366  10.476  20.379  0.00  0.00    +0.000 C 
BRANCH  20  21
ATOM     21  C   UNL     1       0.007  11.577  19.393  0.00  0.00    +0.000 C 
ATOM     22  C   UNL     1       0.344  13.030  19.706  0.00  0.00    +0.000 C 
ATOM     23  C   UNL     1       1.097  12.318  18.624  0.00  0.00    +0.000 C 
BRANCH  21  29
ATOM     24  C   UNL     1      -2.547  11.905  19.027  0.00  0.00    +0.000 A 
ATOM     25  C   UNL     1      -3.747  11.529  18.406  0.00  0.00    +0.000 A 
ATOM     26  C   UNL     1      -3.763  10.518  17.448  0.00  0.00    +0.000 A 
ATOM     27  C   UNL     1      -2.580   9.884  17.092  0.00  0.00    +0.000 A 
ATOM     28  C   UNL     1      -1.379  10.265  17.694  0.00  0.00    +0.000 A 
ATOM     29  C   UNL     1      -1.326  11.281  18.673  0.00  0.00    +0.000 A 
BRANCH  24  31
ATOM     30  C   UNL     1      -3.369  12.772  21.088  0.00  0.00    +0.000 C 
ATOM     31  O   UNL     1      -2.467  12.879  19.994  0.00  0.00    +0.000 OA
ENDBRANCH  24  31
ENDBRANCH  21  29
ENDBRANCH  20  21
ENDBRANCH   1  20
TORSDOF 7
ENDMDL
MODEL 7
REMARK VINA RESULT:      -8.4      1.143      1.487
REMARK  Name = 
REMARK  8 active torsions:
REMARK  status: ('A' for Active; 'I' for Inactive)
REMARK    1  A    between atoms: C_1  and  O_2
REMARK    2  A    between atoms: O_2  and  C_3
REMARK    3  A    between atoms: C_8  and  C_9
REMARK    4  A    between atoms: C_9  and  C_10
REMARK    5  A    between atoms: C_10  and  N_11
REMARK    6  A    between atoms: C_12  and  C_14
REMARK    7  A    between atoms: C_18  and  C_19
REMARK    8  A    between atoms: C_22  and  C_23
REMARK                            x       y       z     vdW  Elec       q    Type
REMARK                         _______ _______ _______ _____ _____    ______ ____
ROOT
ATOM      1  N   UNL     1       3.483   5.778  19.656  0.00  0.00    +0.000 N 
ATOM      2  C   UNL     1       2.310   6.421  20.011  0.00  0.00    +0.000 C 
ATOM      3  O   UNL     1       1.479   5.930  20.766  0.00  0.00    +0.000 OA
ATOM      4  H   UNL     1       4.010   6.087  18.852  0.00  0.00    +0.000 HD
ENDROOT
BRANCH   2   5
ATOM      5  C   UNL     1       2.044   7.764  19.436  0.00  0.00    +0.000 A 
ATOM      6  C   UNL     1       2.539   8.052  18.158  0.00  0.00    +0.000 A 
ATOM      7  C   UNL     1       2.228   9.262  17.538  0.00  0.00    +0.000 A 
ATOM      8  C   UNL     1       1.397  10.178  18.184  0.00  0.00    +0.000 A 
ATOM      9  C   UNL     1       0.873   9.892  19.455  0.00  0.00    +0.000 A 
ATOM     10  C   UNL     1       1.217   8.683  20.085  0.00  0.00    +0.000 A 
BRANCH   9  11
ATOM     11  C   UNL     1      -0.053  10.805  20.115  0.00  0.00    +0.000 A 
ATOM     12  N   UNL     1      -0.698  11.810  19.502  0.00  0.00    +0.000 NA
ATOM     13  O   UNL     1      -1.474  12.374  20.512  0.00  0.00    +0.000 OA
ATOM     14  C   UNL     1      -1.222  11.660  21.647  0.00  0.00    +0.000 A 
ATOM     15  N   UNL     1      -0.358  10.681  21.451  0.00  0.00    +0.000 NA
BRANCH  14  16
ATOM     16  C   UNL     1      -1.923  12.098  22.877  0.00  0.00    +0.000 C 
ATOM     17  F   UNL     1      -1.192  12.971  23.627  0.00  0.00    +0.000 F 
ATOM     18  F   UNL     1      -3.100  12.723  22.603  0.00  0.00    +0.000 F 
ATOM     19  F   UNL     1      -2.222  11.051  23.693  0.00  0.00    +0.000 F 
ENDBRANCH  14  16
ENDBRANCH   9  11
ENDBRANCH   2   5
BRANCH   1  20
ATOM     20  C   UNL     1       3.709   4.458  20.210  0.00  0.00    +0.000 C 
BRANCH  20  21
ATOM     21  C   UNL     1       4.135   3.359  19.247  0.00  0.00    +0.000 C 
ATOM     22  C   UNL     1       4.563   1.996  19.777  0.00  0.00    +0.000 C 
ATOM     23  C   UNL     1       3.263   2.124  19.042  0.00  0.00    +0.000 C 
BRANCH  21  29
ATOM     24  C   UNL     1       6.125   4.621  18.146  0.00  0.00    +0.000 A 
ATOM     25  C   UNL     1       6.722   5.208  17.021  0.00  0.00    +0.000 A 
ATOM     26  C   UNL     1       6.100   5.148  15.775  0.00  0.00    +0.000 A 
ATOM     27  C   UNL     1       4.885   4.489  15.640  0.00  0.00    +0.000 A 
ATOM     28  C   UNL     1       4.293   3.888  16.753  0.00  0.00    +0.000 A 
ATOM     29  C   UNL     1       4.891   3.935  18.030  0.00  0.00    +0.000 A 
BRANCH  24  31
ATOM     30  C   UNL     1       7.621   5.694  19.656  0.00  0.00    +0.000 C 
ATOM     31  O   UNL     1       6.676   4.662  19.404  0.00  0.00    +0.000 OA
ENDBRANCH  24  31
ENDBRANCH  21  29
ENDBRANCH  20  21
ENDBRANCH   1  20
TORSDOF 7
ENDMDL
MODEL 8
REMARK VINA RESULT:      -8.4      5.839     10.232
REMARK  Name = 
REMARK  8 active torsions:
REMARK  status: ('A' for Active; 'I' for Inactive)
REMARK    1  A    between atoms: C_1  and  O_2
REMARK    2  A    between atoms: O_2  and  C_3
REMARK    3  A    between atoms: C_8  and  C_9
REMARK    4  A    between atoms: C_9  and  C_10
REMARK    5  A    between atoms: C_10  and  N_11
REMARK    6  A    between atoms: C_12  and  C_14
REMARK    7  A    between atoms: C_18  and  C_19
REMARK    8  A    between atoms: C_22  and  C_23
REMARK                            x       y       z     vdW  Elec       q    Type
REMARK                         _______ _______ _______ _____ _____    ______ ____
ROOT
ATOM      1  N   UNL     1       2.023   7.660  19.845  0.00  0.00    +0.000 N 
ATOM      2  C   UNL     1       2.713   7.532  18.652  0.00  0.00    +0.000 C 
ATOM      3  O   UNL     1       3.060   8.492  17.973  0.00  0.00    +0.000 OA
ATOM      4  H   UNL     1       1.537   6.868  20.240  0.00  0.00    +0.000 HD
ENDROOT
BRANCH   2   5
ATOM      5  C   UNL     1       3.032   6.166  18.168  0.00  0.00    +0.000 A 
ATOM      6  C   UNL     1       2.203   5.108  18.563  0.00  0.00    +0.000 A 
ATOM      7  C   UNL     1       2.405   3.826  18.054  0.00  0.00    +0.000 A 
ATOM      8  C   UNL     1       3.420   3.602  17.122  0.00  0.00    +0.000 A 
ATOM      9  C   UNL     1       4.242   4.659  16.697  0.00  0.00    +0.000 A 
ATOM     10  C   UNL     1       4.052   5.941  17.241  0.00  0.00    +0.000 A 
BRANCH   9  11
ATOM     11  C   UNL     1       5.262   4.459  15.675  0.00  0.00    +0.000 A 
ATOM     12  N   UNL     1       6.585   4.540  15.892  0.00  0.00    +0.000 NA
ATOM     13  O   UNL     1       7.146   4.252  14.649  0.00  0.00    +0.000 OA
ATOM     14  C   UNL     1       6.107   4.027  13.792  0.00  0.00    +0.000 A 
ATOM     15  N   UNL     1       4.930   4.138  14.378  0.00  0.00    +0.000 NA
BRANCH  14  16
ATOM     16  C   UNL     1       6.462   3.723  12.385  0.00  0.00    +0.000 C 
ATOM     17  F   UNL     1       6.934   2.456  12.215  0.00  0.00    +0.000 F 
ATOM     18  F   UNL     1       5.398   3.851  11.547  0.00  0.00    +0.000 F 
ATOM     19  F   UNL     1       7.428   4.558  11.914  0.00  0.00    +0.000 F 
ENDBRANCH  14  16
ENDBRANCH   9  11
ENDBRANCH   2   5
BRANCH   1  20
ATOM     20  C   UNL     1       1.701   9.003  20.285  0.00  0.00    +0.000 C 
BRANCH  20  21
ATOM     21  C   UNL     1       0.261   9.279  20.693  0.00  0.00    +0.000 C 
ATOM     22  C   UNL     1      -0.592   8.171  21.295  0.00  0.00    +0.000 C 
ATOM     23  C   UNL     1      -0.139   9.303  22.166  0.00  0.00    +0.000 C 
BRANCH  21  29
ATOM     24  C   UNL     1      -0.321  11.682  19.887  0.00  0.00    +0.000 A 
ATOM     25  C   UNL     1      -1.036  12.544  19.043  0.00  0.00    +0.000 A 
ATOM     26  C   UNL     1      -1.874  12.035  18.053  0.00  0.00    +0.000 A 
ATOM     27  C   UNL     1      -1.993  10.661  17.889  0.00  0.00    +0.000 A 
ATOM     28  C   UNL     1      -1.270   9.797  18.715  0.00  0.00    +0.000 A 
ATOM     29  C   UNL     1      -0.418  10.278  19.731  0.00  0.00    +0.000 A 
BRANCH  24  31
ATOM     30  C   UNL     1       0.112  13.307  21.574  0.00  0.00    +0.000 C 
ATOM     31  O   UNL     1       0.505  12.121  20.895  0.00  0.00    +0.000 OA
ENDBRANCH  24  31
ENDBRANCH  21  29
ENDBRANCH  20  21
ENDBRANCH   1  20
TORSDOF 7
ENDMDL
MODEL 9
REMARK VINA RESULT:      -8.3      5.847     10.455
REMARK  Name = 
REMARK  8 active torsions:
REMARK  status: ('A' for Active; 'I' for Inactive)
REMARK    1  A    between atoms: C_1  and  O_2
REMARK    2  A    between atoms: O_2  and  C_3
REMARK    3  A    between atoms: C_8  and  C_9
REMARK    4  A    between atoms: C_9  and  C_10
REMARK    5  A    between atoms: C_10  and  N_11
REMARK    6  A    between atoms: C_12  and  C_14
REMARK    7  A    between atoms: C_18  and  C_19
REMARK    8  A    between atoms: C_22  and  C_23
REMARK                            x       y       z     vdW  Elec       q    Type
REMARK                         _______ _______ _______ _____ _____    ______ ____
ROOT
ATOM      1  N   UNL     1       1.914   8.340  19.383  0.00  0.00    +0.000 N 
ATOM      2  C   UNL     1       2.527   8.052  18.177  0.00  0.00    +0.000 C 
ATOM      3  O   UNL     1       2.401   8.751  17.178  0.00  0.00    +0.000 OA
ATOM      4  H   UNL     1       1.830   7.629  20.095  0.00  0.00    +0.000 HD
ENDROOT
BRANCH   2   5
ATOM      5  C   UNL     1       3.365   6.830  18.089  0.00  0.00    +0.000 A 
ATOM      6  C   UNL     1       3.180   5.824  19.046  0.00  0.00    +0.000 A 
ATOM      7  C   UNL     1       3.873   4.618  18.945  0.00  0.00    +0.000 A 
ATOM      8  C   UNL     1       4.734   4.402  17.868  0.00  0.00    +0.000 A 
ATOM      9  C   UNL     1       4.910   5.392  16.887  0.00  0.00    +0.000 A 
ATOM     10  C   UNL     1       4.232   6.616  17.015  0.00  0.00    +0.000 A 
BRANCH   9  11
ATOM     11  C   UNL     1       5.751   5.158  15.719  0.00  0.00    +0.000 A 
ATOM     12  N   UNL     1       7.015   5.591  15.593  0.00  0.00    +0.000 NA
ATOM     13  O   UNL     1       7.410   5.111  14.345  0.00  0.00    +0.000 OA
ATOM     14  C   UNL     1       6.342   4.433  13.830  0.00  0.00    +0.000 A 
ATOM     15  N   UNL     1       5.302   4.430  14.641  0.00  0.00    +0.000 NA
BRANCH  14  16
ATOM     16  C   UNL     1       6.518   3.848  12.479  0.00  0.00    +0.000 C 
ATOM     17  F   UNL     1       7.440   4.510  11.725  0.00  0.00    +0.000 F 
ATOM     18  F   UNL     1       6.925   2.551  12.530  0.00  0.00    +0.000 F 
ATOM     19  F   UNL     1       5.359   3.861  11.766  0.00  0.00    +0.000 F 
ENDBRANCH  14  16
ENDBRANCH   9  11
ENDBRANCH   2   5
BRANCH   1  20
ATOM     20  C   UNL     1       1.081   9.525  19.438  0.00  0.00    +0.000 C 
BRANCH  20  21
ATOM     21  C   UNL     1       0.476   9.893  20.785  0.00  0.00    +0.000 C 
ATOM     22  C   UNL     1      -0.147   8.818  21.666  0.00  0.00    +0.000 C 
ATOM     23  C   UNL     1       1.145   9.452  22.084  0.00  0.00    +0.000 C 
BRANCH  21  29
ATOM     24  C   UNL     1       0.522  12.492  20.863  0.00  0.00    +0.000 A 
ATOM     25  C   UNL     1      -0.151  13.722  20.915  0.00  0.00    +0.000 A 
ATOM     26  C   UNL     1      -1.542  13.771  20.873  0.00  0.00    +0.000 A 
ATOM     27  C   UNL     1      -2.273  12.594  20.764  0.00  0.00    +0.000 A 
ATOM     28  C   UNL     1      -1.608  11.368  20.695  0.00  0.00    +0.000 A 
ATOM     29  C   UNL     1      -0.200  11.280  20.742  0.00  0.00    +0.000 A 
BRANCH  24  31
ATOM     30  C   UNL     1       2.638  13.584  20.943  0.00  0.00    +0.000 C 
ATOM     31  O   UNL     1       1.891  12.374  20.922  0.00  0.00    +0.000 OA
ENDBRANCH  24  31
ENDBRANCH  21  29
ENDBRANCH  20  21
ENDBRANCH   1  20
TORSDOF 7
ENDMDL
