MODEL 1
REMARK VINA RESULT:      -8.6      0.000      0.000
REMARK  Name = 
REMARK  7 active torsions:
REMARK  status: ('A' for Active; 'I' for Inactive)
REMARK    1  A    between atoms: C_1  and  C_2
REMARK    2  A    between atoms: C_7  and  C_8
REMARK    3  A    between atoms: C_11  and  C_12
REMARK    4  A    between atoms: C_15  and  C_16
REMARK    5  A    between atoms: N_18  and  C_19
REMARK    6  A    between atoms: C_19  and  C_20
REMARK    7  A    between atoms: C_20  and  C_21
REMARK                            x       y       z     vdW  Elec       q    Type
REMARK                         _______ _______ _______ _____ _____    ______ ____
ROOT
ATOM      1  C   UNL     1       1.354   9.275  19.032  0.00  0.00    +0.000 A 
ATOM      2  C   UNL     1       2.021   9.069  17.811  0.00  0.00    +0.000 A 
ATOM      3  C   UNL     1       2.819   7.928  17.600  0.00  0.00    +0.000 A 
ATOM      4  C   UNL     1       2.954   6.963  18.609  0.00  0.00    +0.000 A 
ATOM      5  C   UNL     1       2.276   7.164  19.820  0.00  0.00    +0.000 A 
ATOM      6  C   UNL     1       1.483   8.299  20.025  0.00  0.00    +0.000 A 
ENDROOT
BRANCH   1  10
ATOM      7  C   UNL     1      -0.834  11.777  20.208  0.00  0.00    +0.000 A 
ATOM      8  N   UNL     1      -0.116  12.527  19.402  0.00  0.00    +0.000 NA
ATOM      9  N   UNL     1       0.821  11.715  18.810  0.00  0.00    +0.000 NA
ATOM     10  C   UNL     1       0.608  10.501  19.283  0.00  0.00    +0.000 A 
ATOM     11  O   UNL     1      -0.429  10.460  20.181  0.00  0.00    +0.000 OA
BRANCH   7  18
ATOM     12  C   UNL     1      -0.897  11.028  23.103  0.00  0.00    +0.000 C 
ATOM     13  C   UNL     1      -2.014  11.791  22.433  0.00  0.00    +0.000 A 
ATOM     14  C   UNL     1      -3.096  12.227  23.221  0.00  0.00    +0.000 A 
ATOM     15  C   UNL     1      -4.132  12.985  22.665  0.00  0.00    +0.000 A 
ATOM     16  C   UNL     1      -4.094  13.309  21.319  0.00  0.00    +0.000 A 
ATOM     17  C   UNL     1      -3.030  12.888  20.521  0.00  0.00    +0.000 A 
ATOM     18  C   UNL     1      -1.972  12.134  21.058  0.00  0.00    +0.000 A 
ENDBRANCH   7  18
ENDBRANCH   1  10
BRANCH   4  19
ATOM     19  C   UNL     1       3.797   5.727  18.487  0.00  0.00    +0.000 C 
ATOM     20  O   UNL     1       4.713   5.532  19.279  0.00  0.00    +0.000 OA
ATOM     21  N   UNL     1       3.481   4.838  17.473  0.00  0.00    +0.000 N 
ATOM     22  H   UNL     1       2.769   5.065  16.795  0.00  0.00    +0.000 HD
BRANCH  21  23
ATOM     23  C   UNL     1       4.231   3.596  17.301  0.00  0.00    +0.000 C 
BRANCH  23  24
ATOM     24  C   UNL     1       3.438   2.376  17.766  0.00  0.00    +0.000 C 
BRANCH  24  25
ATOM     25  C   UNL     1       2.702   2.627  19.056  0.00  0.00    +0.000 A 
ATOM     26  C   UNL     1       3.339   2.459  20.284  0.00  0.00    +0.000 A 
ATOM     27  C   UNL     1       2.625   2.708  21.453  0.00  0.00    +0.000 A 
ATOM     28  C   UNL     1       1.299   3.114  21.369  0.00  0.00    +0.000 A 
ATOM     29  C   UNL     1       0.740   3.256  20.111  0.00  0.00    +0.000 A 
ATOM     30  N   UNL     1       1.409   3.021  18.959  0.00  0.00    +0.000 NA
ENDBRANCH  24  25
ENDBRANCH  23  24
ENDBRANCH  21  23
ENDBRANCH   4  19
TORSDOF 6
ENDMDL
MODEL 2
REMARK VINA RESULT:      -8.5      2.433      3.952
REMARK  Name = 
REMARK  7 active torsions:
REMARK  status: ('A' for Active; 'I' for Inactive)
REMARK    1  A    between atoms: C_1  and  C_2
REMARK    2  A    between atoms: C_7  and  C_8
REMARK    3  A    between atoms: C_11  and  C_12
REMARK    4  A    between atoms: C_15  and  C_16
REMARK    5  A    between atoms: N_18  and  C_19
REMARK    6  A    between atoms: C_19  and  C_20
REMARK    7  A    between atoms: C_20  and  C_21
REMARK                            x       y       z     vdW  Elec       q    Type
REMARK                         _______ _______ _______ _____ _____    ______ ____
ROOT
ATOM      1  C   UNL     1       1.596   7.784  20.479  0.00  0.00    +0.000 A 
ATOM      2  C   UNL     1       1.558   6.435  20.875  0.00  0.00    +0.000 A 
ATOM      3  C   UNL     1       1.972   5.408  20.005  0.00  0.00    +0.000 A 
ATOM      4  C   UNL     1       2.445   5.717  18.721  0.00  0.00    +0.000 A 
ATOM      5  C   UNL     1       2.496   7.064  18.334  0.00  0.00    +0.000 A 
ATOM      6  C   UNL     1       2.085   8.082  19.203  0.00  0.00    +0.000 A 
ENDROOT
BRANCH   1  10
ATOM      7  C   UNL     1      -0.230  10.401  21.978  0.00  0.00    +0.000 A 
ATOM      8  N   UNL     1       0.602  10.168  22.969  0.00  0.00    +0.000 NA
ATOM      9  N   UNL     1       1.441   9.155  22.573  0.00  0.00    +0.000 NA
ATOM     10  C   UNL     1       1.078   8.836  21.344  0.00  0.00    +0.000 A 
ATOM     11  O   UNL     1       0.019   9.584  20.896  0.00  0.00    +0.000 OA
BRANCH   7  18
ATOM     12  C   UNL     1      -0.840  11.735  19.372  0.00  0.00    +0.000 C 
ATOM     13  C   UNL     1      -1.610  12.026  20.638  0.00  0.00    +0.000 A 
ATOM     14  C   UNL     1      -2.704  12.909  20.570  0.00  0.00    +0.000 A 
ATOM     15  C   UNL     1      -3.488  13.172  21.698  0.00  0.00    +0.000 A 
ATOM     16  C   UNL     1      -3.181  12.557  22.901  0.00  0.00    +0.000 A 
ATOM     17  C   UNL     1      -2.102  11.677  22.988  0.00  0.00    +0.000 A 
ATOM     18  C   UNL     1      -1.305  11.388  21.867  0.00  0.00    +0.000 A 
ENDBRANCH   7  18
ENDBRANCH   1  10
BRANCH   4  19
ATOM     19  C   UNL     1       2.888   4.694  17.715  0.00  0.00    +0.000 C 
ATOM     20  O   UNL     1       2.092   3.854  17.308  0.00  0.00    +0.000 OA
ATOM     21  N   UNL     1       4.199   4.760  17.274  0.00  0.00    +0.000 N 
ATOM     22  H   UNL     1       4.846   5.418  17.684  0.00  0.00    +0.000 HD
BRANCH  21  23
ATOM     23  C   UNL     1       4.705   3.822  16.275  0.00  0.00    +0.000 C 
BRANCH  23  24
ATOM     24  C   UNL     1       6.191   4.033  15.989  0.00  0.00    +0.000 C 
BRANCH  24  25
ATOM     25  C   UNL     1       6.824   5.021  16.933  0.00  0.00    +0.000 A 
ATOM     26  C   UNL     1       6.990   6.354  16.563  0.00  0.00    +0.000 A 
ATOM     27  C   UNL     1       7.573   7.237  17.468  0.00  0.00    +0.000 A 
ATOM     28  C   UNL     1       7.976   6.771  18.713  0.00  0.00    +0.000 A 
ATOM     29  C   UNL     1       7.775   5.433  19.003  0.00  0.00    +0.000 A 
ATOM     30  N   UNL     1       7.212   4.552  18.144  0.00  0.00    +0.000 NA
ENDBRANCH  24  25
ENDBRANCH  23  24
ENDBRANCH  21  23
ENDBRANCH   4  19
TORSDOF 6
ENDMDL
MODEL 3
REMARK VINA RESULT:      -8.5      2.505      3.907
REMARK  Name = 
REMARK  7 active torsions:
REMARK  status: ('A' for Active; 'I' for Inactive)
REMARK    1  A    between atoms: C_1  and  C_2
REMARK    2  A    between atoms: C_7  and  C_8
REMARK    3  A    between atoms: C_11  and  C_12
REMARK    4  A    between atoms: C_15  and  C_16
REMARK    5  A    between atoms: N_18  and  C_19
REMARK    6  A    between atoms: C_19  and  C_20
REMARK    7  A    between atoms: C_20  and  C_21
REMARK                            x       y       z     vdW  Elec       q    Type
REMARK                         _______ _______ _______ _____ _____    ______ ____
ROOT
ATOM      1  C   UNL     1       1.492   7.843  20.408  0.00  0.00    +0.000 A 
ATOM      2  C   UNL     1       1.893   8.196  19.106  0.00  0.00    +0.000 A 
ATOM      3  C   UNL     1       2.411   7.236  18.217  0.00  0.00    +0.000 A 
ATOM      4  C   UNL     1       2.529   5.895  18.614  0.00  0.00    +0.000 A 
ATOM      5  C   UNL     1       2.115   5.543  19.907  0.00  0.00    +0.000 A 
ATOM      6  C   UNL     1       1.598   6.502  20.787  0.00  0.00    +0.000 A 
ENDROOT
BRANCH   1  10
ATOM      7  C   UNL     1      -0.192  10.403  22.151  0.00  0.00    +0.000 A 
ATOM      8  N   UNL     1       0.693  10.106  23.075  0.00  0.00    +0.000 NA
ATOM      9  N   UNL     1       1.488   9.103  22.576  0.00  0.00    +0.000 NA
ATOM     10  C   UNL     1       1.046   8.855  21.357  0.00  0.00    +0.000 A 
ATOM     11  O   UNL     1      -0.024   9.642  21.014  0.00  0.00    +0.000 OA
BRANCH   7  18
ATOM     12  C   UNL     1      -0.553  12.283  19.853  0.00  0.00    +0.000 C 
ATOM     13  C   UNL     1      -1.442  12.306  21.074  0.00  0.00    +0.000 A 
ATOM     14  C   UNL     1      -2.526  13.203  21.098  0.00  0.00    +0.000 A 
ATOM     15  C   UNL     1      -3.415  13.230  22.178  0.00  0.00    +0.000 A 
ATOM     16  C   UNL     1      -3.223  12.362  23.240  0.00  0.00    +0.000 A 
ATOM     17  C   UNL     1      -2.155  11.465  23.235  0.00  0.00    +0.000 A 
ATOM     18  C   UNL     1      -1.254  11.412  22.157  0.00  0.00    +0.000 A 
ENDBRANCH   7  18
ENDBRANCH   1  10
BRANCH   4  19
ATOM     19  C   UNL     1       3.088   4.804  17.748  0.00  0.00    +0.000 C 
ATOM     20  O   UNL     1       2.367   3.877  17.393  0.00  0.00    +0.000 OA
ATOM     21  N   UNL     1       4.415   4.908  17.369  0.00  0.00    +0.000 N 
ATOM     22  H   UNL     1       4.999   5.645  17.739  0.00  0.00    +0.000 HD
BRANCH  21  23
ATOM     23  C   UNL     1       5.032   3.906  16.503  0.00  0.00    +0.000 C 
BRANCH  23  24
ATOM     24  C   UNL     1       6.457   4.288  16.106  0.00  0.00    +0.000 C 
BRANCH  24  25
ATOM     25  C   UNL     1       7.039   5.348  17.003  0.00  0.00    +0.000 A 
ATOM     26  C   UNL     1       7.597   5.013  18.234  0.00  0.00    +0.000 A 
ATOM     27  C   UNL     1       8.131   6.023  19.030  0.00  0.00    +0.000 A 
ATOM     28  C   UNL     1       8.094   7.337  18.581  0.00  0.00    +0.000 A 
ATOM     29  C   UNL     1       7.522   7.586  17.346  0.00  0.00    +0.000 A 
ATOM     30  N   UNL     1       6.995   6.626  16.552  0.00  0.00    +0.000 NA
ENDBRANCH  24  25
ENDBRANCH  23  24
ENDBRANCH  21  23
ENDBRANCH   4  19
TORSDOF 6
ENDMDL
MODEL 4
REMARK VINA RESULT:      -8.5      1.251      1.935
REMARK  Name = 
REMARK  7 active torsions:
REMARK  status: ('A' for Active; 'I' for Inactive)
REMARK    1  A    between atoms: C_1  and  C_2
REMARK    2  A    between atoms: C_7  and  C_8
REMARK    3  A    between atoms: C_11  and  C_12
REMARK    4  A    between atoms: C_15  and  C_16
REMARK    5  A    between atoms: N_18  and  C_19
REMARK    6  A    between atoms: C_19  and  C_20
REMARK    7  A    between atoms: C_20  and  C_21
REMARK                            x       y       z     vdW  Elec       q    Type
REMARK                         _______ _______ _______ _____ _____    ______ ____
ROOT
ATOM      1  C   UNL     1       1.437   9.114  19.008  0.00  0.00    +0.000 A 
ATOM      2  C   UNL     1       2.118   8.950  17.787  0.00  0.00    +0.000 A 
ATOM      3  C   UNL     1       2.943   7.832  17.557  0.00  0.00    +0.000 A 
ATOM      4  C   UNL     1       3.094   6.849  18.547  0.00  0.00    +0.000 A 
ATOM      5  C   UNL     1       2.403   7.008  19.757  0.00  0.00    +0.000 A 
ATOM      6  C   UNL     1       1.582   8.120  19.980  0.00  0.00    +0.000 A 
ENDROOT
BRANCH   1  10
ATOM      7  C   UNL     1      -1.080  11.539  19.465  0.00  0.00    +0.000 A 
ATOM      8  N   UNL     1      -0.065  12.244  19.912  0.00  0.00    +0.000 NA
ATOM      9  N   UNL     1       1.059  11.461  19.805  0.00  0.00    +0.000 NA
ATOM     10  C   UNL     1       0.662  10.317  19.279  0.00  0.00    +0.000 A 
ATOM     11  O   UNL     1      -0.688  10.289  19.036  0.00  0.00    +0.000 OA
BRANCH   7  18
ATOM     12  C   UNL     1      -2.698  10.651  17.112  0.00  0.00    +0.000 C 
ATOM     13  C   UNL     1      -3.274  11.486  18.230  0.00  0.00    +0.000 A 
ATOM     14  C   UNL     1      -4.646  11.799  18.196  0.00  0.00    +0.000 A 
ATOM     15  C   UNL     1      -5.246  12.522  19.232  0.00  0.00    +0.000 A 
ATOM     16  C   UNL     1      -4.478  12.939  20.307  0.00  0.00    +0.000 A 
ATOM     17  C   UNL     1      -3.117  12.637  20.361  0.00  0.00    +0.000 A 
ATOM     18  C   UNL     1      -2.493  11.904  19.337  0.00  0.00    +0.000 A 
ENDBRANCH   7  18
ENDBRANCH   1  10
BRANCH   4  19
ATOM     19  C   UNL     1       3.966   5.635  18.405  0.00  0.00    +0.000 C 
ATOM     20  O   UNL     1       4.970   5.520  19.101  0.00  0.00    +0.000 OA
ATOM     21  N   UNL     1       3.576   4.674  17.488  0.00  0.00    +0.000 N 
ATOM     22  H   UNL     1       2.785   4.835  16.881  0.00  0.00    +0.000 HD
BRANCH  21  23
ATOM     23  C   UNL     1       4.350   3.449  17.307  0.00  0.00    +0.000 C 
BRANCH  23  24
ATOM     24  C   UNL     1       3.644   2.230  17.898  0.00  0.00    +0.000 C 
BRANCH  24  25
ATOM     25  C   UNL     1       2.816   2.576  19.108  0.00  0.00    +0.000 A 
ATOM     26  C   UNL     1       3.357   2.493  20.389  0.00  0.00    +0.000 A 
ATOM     27  C   UNL     1       2.561   2.828  21.481  0.00  0.00    +0.000 A 
ATOM     28  C   UNL     1       1.250   3.234  21.269  0.00  0.00    +0.000 A 
ATOM     29  C   UNL     1       0.788   3.290  19.965  0.00  0.00    +0.000 A 
ATOM     30  N   UNL     1       1.539   2.970  18.886  0.00  0.00    +0.000 NA
ENDBRANCH  24  25
ENDBRANCH  23  24
ENDBRANCH  21  23
ENDBRANCH   4  19
TORSDOF 6
ENDMDL
MODEL 5
REMARK VINA RESULT:      -8.5      1.897      3.443
REMARK  Name = 
REMARK  7 active torsions:
REMARK  status: ('A' for Active; 'I' for Inactive)
REMARK    1  A    between atoms: C_1  and  C_2
REMARK    2  A    between atoms: C_7  and  C_8
REMARK    3  A    between atoms: C_11  and  C_12
REMARK    4  A    between atoms: C_15  and  C_16
REMARK    5  A    between atoms: N_18  and  C_19
REMARK    6  A    between atoms: C_19  and  C_20
REMARK    7  A    between atoms: C_20  and  C_21
REMARK                            x       y       z     vdW  Elec       q    Type
REMARK                         _______ _______ _______ _____ _____    ______ ____
ROOT
ATOM      1  C   UNL     1       1.393   9.162  19.557  0.00  0.00    +0.000 A 
ATOM      2  C   UNL     1       1.868   8.976  18.246  0.00  0.00    +0.000 A 
ATOM      3  C   UNL     1       2.510   7.782  17.865  0.00  0.00    +0.000 A 
ATOM      4  C   UNL     1       2.679   6.743  18.793  0.00  0.00    +0.000 A 
ATOM      5  C   UNL     1       2.192   6.926  20.095  0.00  0.00    +0.000 A 
ATOM      6  C   UNL     1       1.552   8.114  20.469  0.00  0.00    +0.000 A 
ENDROOT
BRANCH   1  10
ATOM      7  C   UNL     1      -0.582  11.752  20.904  0.00  0.00    +0.000 A 
ATOM      8  N   UNL     1       0.421  12.489  20.482  0.00  0.00    +0.000 NA
ATOM      9  N   UNL     1       1.330  11.646  19.891  0.00  0.00    +0.000 NA
ATOM     10  C   UNL     1       0.816  10.433  19.974  0.00  0.00    +0.000 A 
ATOM     11  O   UNL     1      -0.400  10.419  20.608  0.00  0.00    +0.000 OA
BRANCH   7  18
ATOM     12  C   UNL     1      -3.065  12.358  19.351  0.00  0.00    +0.000 C 
ATOM     13  C   UNL     1      -3.006  12.434  20.858  0.00  0.00    +0.000 A 
ATOM     14  C   UNL     1      -4.188  12.734  21.561  0.00  0.00    +0.000 A 
ATOM     15  C   UNL     1      -4.206  12.763  22.959  0.00  0.00    +0.000 A 
ATOM     16  C   UNL     1      -3.042  12.495  23.662  0.00  0.00    +0.000 A 
ATOM     17  C   UNL     1      -1.861  12.194  22.984  0.00  0.00    +0.000 A 
ATOM     18  C   UNL     1      -1.820  12.149  21.579  0.00  0.00    +0.000 A 
ENDBRANCH   7  18
ENDBRANCH   1  10
BRANCH   4  19
ATOM     19  C   UNL     1       3.368   5.444  18.490  0.00  0.00    +0.000 C 
ATOM     20  O   UNL     1       3.517   4.611  19.378  0.00  0.00    +0.000 OA
ATOM     21  N   UNL     1       3.795   5.238  17.189  0.00  0.00    +0.000 N 
ATOM     22  H   UNL     1       3.721   5.974  16.501  0.00  0.00    +0.000 HD
BRANCH  21  23
ATOM     23  C   UNL     1       4.448   3.990  16.801  0.00  0.00    +0.000 C 
BRANCH  23  24
ATOM     24  C   UNL     1       5.859   4.223  16.264  0.00  0.00    +0.000 C 
BRANCH  24  25
ATOM     25  C   UNL     1       6.622   5.237  17.074  0.00  0.00    +0.000 A 
ATOM     26  C   UNL     1       7.281   4.865  18.243  0.00  0.00    +0.000 A 
ATOM     27  C   UNL     1       7.982   5.833  18.959  0.00  0.00    +0.000 A 
ATOM     28  C   UNL     1       8.006   7.141  18.495  0.00  0.00    +0.000 A 
ATOM     29  C   UNL     1       7.324   7.428  17.324  0.00  0.00    +0.000 A 
ATOM     30  N   UNL     1       6.636   6.510  16.608  0.00  0.00    +0.000 NA
ENDBRANCH  24  25
ENDBRANCH  23  24
ENDBRANCH  21  23
ENDBRANCH   4  19
TORSDOF 6
ENDMDL
MODEL 6
REMARK VINA RESULT:      -8.5      1.866      3.254
REMARK  Name = 
REMARK  7 active torsions:
REMARK  status: ('A' for Active; 'I' for Inactive)
REMARK    1  A    between atoms: C_1  and  C_2
REMARK    2  A    between atoms: C_7  and  C_8
REMARK    3  A    between atoms: C_11  and  C_12
REMARK    4  A    between atoms: C_15  and  C_16
REMARK    5  A    between atoms: N_18  and  C_19
REMARK    6  A    between atoms: C_19  and  C_20
REMARK    7  A    between atoms: C_20  and  C_21
REMARK                            x       y       z     vdW  Elec       q    Type
REMARK                         _______ _______ _______ _____ _____    ______ ____
ROOT
ATOM      1  C   UNL     1       1.311   9.217  19.196  0.00  0.00    +0.000 A 
ATOM      2  C   UNL     1       1.877   8.931  17.940  0.00  0.00    +0.000 A 
ATOM      3  C   UNL     1       2.602   7.745  17.720  0.00  0.00    +0.000 A 
ATOM      4  C   UNL     1       2.766   6.813  18.756  0.00  0.00    +0.000 A 
ATOM      5  C   UNL     1       2.188   7.094  20.003  0.00  0.00    +0.000 A 
ATOM      6  C   UNL     1       1.466   8.274  20.217  0.00  0.00    +0.000 A 
ENDROOT
BRANCH   1  10
ATOM      7  C   UNL     1      -0.878  11.808  20.156  0.00  0.00    +0.000 A 
ATOM      8  N   UNL     1       0.114  12.557  19.726  0.00  0.00    +0.000 NA
ATOM      9  N   UNL     1       1.101  11.714  19.278  0.00  0.00    +0.000 NA
ATOM     10  C   UNL     1       0.644  10.487  19.449  0.00  0.00    +0.000 A 
ATOM     11  O   UNL     1      -0.609  10.465  20.006  0.00  0.00    +0.000 OA
BRANCH   7  18
ATOM     12  C   UNL     1      -1.316  11.953  23.111  0.00  0.00    +0.000 C 
ATOM     13  C   UNL     1      -2.398  12.276  22.108  0.00  0.00    +0.000 A 
ATOM     14  C   UNL     1      -3.642  12.730  22.586  0.00  0.00    +0.000 A 
ATOM     15  C   UNL     1      -4.662  13.097  21.702  0.00  0.00    +0.000 A 
ATOM     16  C   UNL     1      -4.446  13.008  20.337  0.00  0.00    +0.000 A 
ATOM     17  C   UNL     1      -3.221  12.562  19.844  0.00  0.00    +0.000 A 
ATOM     18  C   UNL     1      -2.176  12.197  20.711  0.00  0.00    +0.000 A 
ENDBRANCH   7  18
ENDBRANCH   1  10
BRANCH   4  19
ATOM     19  C   UNL     1       3.538   5.532  18.626  0.00  0.00    +0.000 C 
ATOM     20  O   UNL     1       3.912   4.940  19.633  0.00  0.00    +0.000 OA
ATOM     21  N   UNL     1       3.780   5.062  17.346  0.00  0.00    +0.000 N 
ATOM     22  H   UNL     1       3.521   5.611  16.539  0.00  0.00    +0.000 HD
BRANCH  21  23
ATOM     23  C   UNL     1       4.499   3.809  17.129  0.00  0.00    +0.000 C 
BRANCH  23  24
ATOM     24  C   UNL     1       5.883   4.037  16.524  0.00  0.00    +0.000 C 
BRANCH  24  25
ATOM     25  C   UNL     1       6.671   5.082  17.269  0.00  0.00    +0.000 A 
ATOM     26  C   UNL     1       6.902   6.335  16.707  0.00  0.00    +0.000 A 
ATOM     27  C   UNL     1       7.630   7.276  17.431  0.00  0.00    +0.000 A 
ATOM     28  C   UNL     1       8.107   6.944  18.693  0.00  0.00    +0.000 A 
ATOM     29  C   UNL     1       7.834   5.678  19.179  0.00  0.00    +0.000 A 
ATOM     30  N   UNL     1       7.131   4.744  18.498  0.00  0.00    +0.000 NA
ENDBRANCH  24  25
ENDBRANCH  23  24
ENDBRANCH  21  23
ENDBRANCH   4  19
TORSDOF 6
ENDMDL
MODEL 7
REMARK VINA RESULT:      -8.5      2.001      2.890
REMARK  Name = 
REMARK  7 active torsions:
REMARK  status: ('A' for Active; 'I' for Inactive)
REMARK    1  A    between atoms: C_1  and  C_2
REMARK    2  A    between atoms: C_7  and  C_8
REMARK    3  A    between atoms: C_11  and  C_12
REMARK    4  A    between atoms: C_15  and  C_16
REMARK    5  A    between atoms: N_18  and  C_19
REMARK    6  A    between atoms: C_19  and  C_20
REMARK    7  A    between atoms: C_20  and  C_21
REMARK                            x       y       z     vdW  Elec       q    Type
REMARK                         _______ _______ _______ _____ _____    ______ ____
ROOT
ATOM      1  C   UNL     1       1.120   9.391  19.038  0.00  0.00    +0.000 A 
ATOM      2  C   UNL     1       1.339   8.429  20.041  0.00  0.00    +0.000 A 
ATOM      3  C   UNL     1       2.210   7.343  19.832  0.00  0.00    +0.000 A 
ATOM      4  C   UNL     1       2.889   7.206  18.612  0.00  0.00    +0.000 A 
ATOM      5  C   UNL     1       2.681   8.175  17.619  0.00  0.00    +0.000 A 
ATOM      6  C   UNL     1       1.815   9.254  17.833  0.00  0.00    +0.000 A 
ENDROOT
BRANCH   1  10
ATOM      7  C   UNL     1      -1.731  11.465  19.058  0.00  0.00    +0.000 A 
ATOM      8  N   UNL     1      -0.972  12.191  19.849  0.00  0.00    +0.000 NA
ATOM      9  N   UNL     1       0.235  11.545  19.967  0.00  0.00    +0.000 NA
ATOM     10  C   UNL     1       0.146  10.459  19.222  0.00  0.00    +0.000 A 
ATOM     11  O   UNL     1      -1.077  10.337  18.612  0.00  0.00    +0.000 OA
BRANCH   7  18
ATOM     12  C   UNL     1      -2.528  10.831  16.247  0.00  0.00    +0.000 C 
ATOM     13  C   UNL     1      -3.491  11.406  17.258  0.00  0.00    +0.000 A 
ATOM     14  C   UNL     1      -4.835  11.584  16.880  0.00  0.00    +0.000 A 
ATOM     15  C   UNL     1      -5.782  12.060  17.792  0.00  0.00    +0.000 A 
ATOM     16  C   UNL     1      -5.392  12.363  19.085  0.00  0.00    +0.000 A 
ATOM     17  C   UNL     1      -4.065  12.192  19.481  0.00  0.00    +0.000 A 
ATOM     18  C   UNL     1      -3.096  11.706  18.586  0.00  0.00    +0.000 A 
ENDBRANCH   7  18
ENDBRANCH   1  10
BRANCH   4  19
ATOM     19  C   UNL     1       3.820   6.074  18.286  0.00  0.00    +0.000 C 
ATOM     20  O   UNL     1       4.078   5.813  17.116  0.00  0.00    +0.000 OA
ATOM     21  N   UNL     1       4.370   5.376  19.348  0.00  0.00    +0.000 N 
ATOM     22  H   UNL     1       4.080   5.570  20.296  0.00  0.00    +0.000 HD
BRANCH  21  23
ATOM     23  C   UNL     1       5.308   4.279  19.122  0.00  0.00    +0.000 C 
BRANCH  23  24
ATOM     24  C   UNL     1       4.704   2.923  19.481  0.00  0.00    +0.000 C 
BRANCH  24  25
ATOM     25  C   UNL     1       3.206   2.981  19.628  0.00  0.00    +0.000 A 
ATOM     26  C   UNL     1       2.372   2.547  18.600  0.00  0.00    +0.000 A 
ATOM     27  C   UNL     1       0.993   2.611  18.778  0.00  0.00    +0.000 A 
ATOM     28  C   UNL     1       0.481   3.105  19.971  0.00  0.00    +0.000 A 
ATOM     29  C   UNL     1       1.378   3.517  20.942  0.00  0.00    +0.000 A 
ATOM     30  N   UNL     1       2.722   3.467  20.797  0.00  0.00    +0.000 NA
ENDBRANCH  24  25
ENDBRANCH  23  24
ENDBRANCH  21  23
ENDBRANCH   4  19
TORSDOF 6
ENDMDL
MODEL 8
REMARK VINA RESULT:      -8.4      0.783      1.411
REMARK  Name = 
REMARK  7 active torsions:
REMARK  status: ('A' for Active; 'I' for Inactive)
REMARK    1  A    between atoms: C_1  and  C_2
REMARK    2  A    between atoms: C_7  and  C_8
REMARK    3  A    between atoms: C_11  and  C_12
REMARK    4  A    between atoms: C_15  and  C_16
REMARK    5  A    between atoms: N_18  and  C_19
REMARK    6  A    between atoms: C_19  and  C_20
REMARK    7  A    between atoms: C_20  and  C_21
REMARK                            x       y       z     vdW  Elec       q    Type
REMARK                         _______ _______ _______ _____ _____    ______ ____
ROOT
ATOM      1  C   UNL     1       1.051   9.698  19.146  0.00  0.00    +0.000 A 
ATOM      2  C   UNL     1       1.206   8.803  20.220  0.00  0.00    +0.000 A 
ATOM      3  C   UNL     1       1.975   7.631  20.087  0.00  0.00    +0.000 A 
ATOM      4  C   UNL     1       2.614   7.339  18.872  0.00  0.00    +0.000 A 
ATOM      5  C   UNL     1       2.470   8.240  17.808  0.00  0.00    +0.000 A 
ATOM      6  C   UNL     1       1.706   9.405  17.946  0.00  0.00    +0.000 A 
ENDROOT
BRANCH   1  10
ATOM      7  C   UNL     1      -1.416  12.062  20.014  0.00  0.00    +0.000 A 
ATOM      8  N   UNL     1      -0.747  12.803  19.159  0.00  0.00    +0.000 NA
ATOM      9  N   UNL     1       0.288  12.039  18.675  0.00  0.00    +0.000 NA
ATOM     10  C   UNL     1       0.178  10.859  19.257  0.00  0.00    +0.000 A 
ATOM     11  O   UNL     1      -0.881  10.797  20.126  0.00  0.00    +0.000 OA
BRANCH   7  18
ATOM     12  C   UNL     1      -1.356  12.079  23.004  0.00  0.00    +0.000 C 
ATOM     13  C   UNL     1      -2.601  12.396  22.211  0.00  0.00    +0.000 A 
ATOM     14  C   UNL     1      -3.761  12.784  22.909  0.00  0.00    +0.000 A 
ATOM     15  C   UNL     1      -4.926  13.142  22.224  0.00  0.00    +0.000 A 
ATOM     16  C   UNL     1      -4.940  13.113  20.839  0.00  0.00    +0.000 A 
ATOM     17  C   UNL     1      -3.801  12.734  20.129  0.00  0.00    +0.000 A 
ATOM     18  C   UNL     1      -2.614  12.379  20.794  0.00  0.00    +0.000 A 
ENDBRANCH   7  18
ENDBRANCH   1  10
BRANCH   4  19
ATOM     19  C   UNL     1       3.436   6.107  18.626  0.00  0.00    +0.000 C 
ATOM     20  O   UNL     1       4.329   5.802  19.410  0.00  0.00    +0.000 OA
ATOM     21  N   UNL     1       3.128   5.348  17.510  0.00  0.00    +0.000 N 
ATOM     22  H   UNL     1       2.436   5.667  16.847  0.00  0.00    +0.000 HD
BRANCH  21  23
ATOM     23  C   UNL     1       3.858   4.118  17.211  0.00  0.00    +0.000 C 
BRANCH  23  24
ATOM     24  C   UNL     1       3.042   2.870  17.542  0.00  0.00    +0.000 C 
BRANCH  24  25
ATOM     25  C   UNL     1       2.528   2.878  18.958  0.00  0.00    +0.000 A 
ATOM     26  C   UNL     1       1.196   3.182  19.230  0.00  0.00    +0.000 A 
ATOM     27  C   UNL     1       0.759   3.172  20.552  0.00  0.00    +0.000 A 
ATOM     28  C   UNL     1       1.657   2.862  21.565  0.00  0.00    +0.000 A 
ATOM     29  C   UNL     1       2.963   2.572  21.210  0.00  0.00    +0.000 A 
ATOM     30  N   UNL     1       3.416   2.575  19.936  0.00  0.00    +0.000 NA
ENDBRANCH  24  25
ENDBRANCH  23  24
ENDBRANCH  21  23
ENDBRANCH   4  19
TORSDOF 6
ENDMDL
MODEL 9
REMARK VINA RESULT:      -8.4      2.366      3.918
REMARK  Name = 
REMARK  7 active torsions:
REMARK  status: ('A' for Active; 'I' for Inactive)
REMARK    1  A    between atoms: C_1  and  C_2
REMARK    2  A    between atoms: C_7  and  C_8
REMARK    3  A    between atoms: C_11  and  C_12
REMARK    4  A    between atoms: C_15  and  C_16
REMARK    5  A    between atoms: N_18  and  C_19
REMARK    6  A    between atoms: C_19  and  C_20
REMARK    7  A    between atoms: C_20  and  C_21
REMARK                            x       y       z     vdW  Elec       q    Type
REMARK                         _______ _______ _______ _____ _____    ______ ____
ROOT
ATOM      1  C   UNL     1       1.017   9.294  19.139  0.00  0.00    +0.000 A 
ATOM      2  C   UNL     1       1.232   8.474  20.261  0.00  0.00    +0.000 A 
ATOM      3  C   UNL     1       2.014   7.306  20.172  0.00  0.00    +0.000 A 
ATOM      4  C   UNL     1       2.606   6.944  18.953  0.00  0.00    +0.000 A 
ATOM      5  C   UNL     1       2.402   7.771  17.839  0.00  0.00    +0.000 A 
ATOM      6  C   UNL     1       1.625   8.932  17.934  0.00  0.00    +0.000 A 
ENDROOT
BRANCH   1  10
ATOM      7  C   UNL     1      -1.704  11.536  19.088  0.00  0.00    +0.000 A 
ATOM      8  N   UNL     1      -0.803  12.354  19.584  0.00  0.00    +0.000 NA
ATOM      9  N   UNL     1       0.378  11.658  19.676  0.00  0.00    +0.000 NA
ATOM     10  C   UNL     1       0.130  10.448  19.212  0.00  0.00    +0.000 A 
ATOM     11  O   UNL     1      -1.175  10.292  18.819  0.00  0.00    +0.000 OA
BRANCH   7  18
ATOM     12  C   UNL     1      -3.560  12.767  21.084  0.00  0.00    +0.000 C 
ATOM     13  C   UNL     1      -4.004  12.361  19.699  0.00  0.00    +0.000 A 
ATOM     14  C   UNL     1      -5.328  12.638  19.310  0.00  0.00    +0.000 A 
ATOM     15  C   UNL     1      -5.778  12.335  18.021  0.00  0.00    +0.000 A 
ATOM     16  C   UNL     1      -4.908  11.750  17.115  0.00  0.00    +0.000 A 
ATOM     17  C   UNL     1      -3.592  11.469  17.480  0.00  0.00    +0.000 A 
ATOM     18  C   UNL     1      -3.112  11.773  18.766  0.00  0.00    +0.000 A 
ENDBRANCH   7  18
ENDBRANCH   1  10
BRANCH   4  19
ATOM     19  C   UNL     1       3.437   5.710  18.752  0.00  0.00    +0.000 C 
ATOM     20  O   UNL     1       3.845   5.083  19.724  0.00  0.00    +0.000 OA
ATOM     21  N   UNL     1       3.694   5.320  17.448  0.00  0.00    +0.000 N 
ATOM     22  H   UNL     1       3.404   5.898  16.672  0.00  0.00    +0.000 HD
BRANCH  21  23
ATOM     23  C   UNL     1       4.469   4.115  17.162  0.00  0.00    +0.000 C 
BRANCH  23  24
ATOM     24  C   UNL     1       5.776   4.432  16.436  0.00  0.00    +0.000 C 
BRANCH  24  25
ATOM     25  C   UNL     1       6.614   5.441  17.175  0.00  0.00    +0.000 A 
ATOM     26  C   UNL     1       7.232   5.110  18.379  0.00  0.00    +0.000 A 
ATOM     27  C   UNL     1       8.005   6.070  19.027  0.00  0.00    +0.000 A 
ATOM     28  C   UNL     1       8.139   7.332  18.463  0.00  0.00    +0.000 A 
ATOM     29  C   UNL     1       7.492   7.581  17.265  0.00  0.00    +0.000 A 
ATOM     30  N   UNL     1       6.735   6.669  16.613  0.00  0.00    +0.000 NA
ENDBRANCH  24  25
ENDBRANCH  23  24
ENDBRANCH  21  23
ENDBRANCH   4  19
TORSDOF 6
ENDMDL
