MODEL 1
REMARK VINA RESULT:      -8.8      0.000      0.000
REMARK  Name = 
REMARK  5 active torsions:
REMARK  status: ('A' for Active; 'I' for Inactive)
REMARK    1  A    between atoms: C_1  and  C_2
REMARK    2  A    between atoms: C_3  and  C_4
REMARK    3  A    between atoms: N_6  and  C_7
REMARK    4  A    between atoms: C_12  and  C_13
REMARK    5  A    between atoms: N_21  and  C_22
REMARK                            x       y       z     vdW  Elec       q    Type
REMARK                         _______ _______ _______ _____ _____    ______ ____
ROOT
ATOM      1  C   UNL     1       7.876   8.241  18.048  0.00  0.00    +0.000 C 
ATOM      2  O   UNL     1       7.507   8.932  17.108  0.00  0.00    +0.000 OA
ATOM      3  N   UNL     1       8.755   8.690  19.032  0.00  0.00    +0.000 N 
ATOM      4  H   UNL     1       9.081   8.015  19.709  0.00  0.00    +0.000 HD
ENDROOT
BRANCH   3   5
ATOM      5  C   UNL     1       9.297  10.003  19.158  0.00  0.00    +0.000 A 
ATOM      6  C   UNL     1       9.362  10.708  20.374  0.00  0.00    +0.000 A 
ATOM      7  C   UNL     1       9.889  12.014  20.464  0.00  0.00    +0.000 A 
ATOM      8  C   UNL     1      10.315  12.637  19.289  0.00  0.00    +0.000 A 
ATOM      9  N   UNL     1      10.781  13.906  19.049  0.00  0.00    +0.000 NA
ATOM     10  C   UNL     1      10.942  13.941  17.739  0.00  0.00    +0.000 A 
ATOM     11  O   UNL     1      10.689  12.745  17.108  0.00  0.00    +0.000 OA
ATOM     12  C   UNL     1      10.254  11.923  18.107  0.00  0.00    +0.000 A 
ATOM     13  C   UNL     1       9.788  10.611  17.987  0.00  0.00    +0.000 A 
BRANCH  10  14
ATOM     14  C   UNL     1      11.312  15.198  16.953  0.00  0.00    +0.000 C 
ATOM     15  C   UNL     1      11.593  16.497  17.677  0.00  0.00    +0.000 C 
ATOM     16  C   UNL     1      10.319  16.348  16.925  0.00  0.00    +0.000 C 
ENDBRANCH  10  14
ENDBRANCH   3   5
BRANCH   1  19
ATOM     17  C   UNL     1       4.910   7.145  17.425  0.00  0.00    +0.000 C 
ATOM     18  C   UNL     1       6.110   6.385  17.878  0.00  0.00    +0.000 A 
ATOM     19  C   UNL     1       7.396   6.853  18.183  0.00  0.00    +0.000 A 
ATOM     20  C   UNL     1       8.038   5.710  18.702  0.00  0.00    +0.000 A 
ATOM     21  N   UNL     1       7.250   4.639  18.770  0.00  0.00    +0.000 NA
ATOM     22  N   UNL     1       6.080   5.025  18.192  0.00  0.00    +0.000 N 
BRANCH  22  23
ATOM     23  C   UNL     1       5.000   4.097  18.119  0.00  0.00    +0.000 A 
ATOM     24  C   UNL     1       4.596   3.423  19.283  0.00  0.00    +0.000 A 
ATOM     25  C   UNL     1       3.458   2.603  19.269  0.00  0.00    +0.000 A 
ATOM     26  C   UNL     1       2.737   2.423  18.090  0.00  0.00    +0.000 A 
ATOM     27  C   UNL     1       3.176   3.029  16.917  0.00  0.00    +0.000 A 
ATOM     28  C   UNL     1       4.308   3.846  16.933  0.00  0.00    +0.000 A 
ATOM     29  F   UNL     1       4.750   4.295  15.754  0.00  0.00    +0.000 F 
ENDBRANCH  22  23
ENDBRANCH   1  19
TORSDOF 4
ENDMDL
MODEL 2
REMARK VINA RESULT:      -8.7      7.256     10.564
REMARK  Name = 
REMARK  5 active torsions:
REMARK  status: ('A' for Active; 'I' for Inactive)
REMARK    1  A    between atoms: C_1  and  C_2
REMARK    2  A    between atoms: C_3  and  C_4
REMARK    3  A    between atoms: N_6  and  C_7
REMARK    4  A    between atoms: C_12  and  C_13
REMARK    5  A    between atoms: N_21  and  C_22
REMARK                            x       y       z     vdW  Elec       q    Type
REMARK                         _______ _______ _______ _____ _____    ______ ____
ROOT
ATOM      1  C   UNL     1       1.322   8.234  20.408  0.00  0.00    +0.000 C 
ATOM      2  O   UNL     1       1.573   8.671  19.293  0.00  0.00    +0.000 OA
ATOM      3  N   UNL     1       1.561   6.915  20.788  0.00  0.00    +0.000 N 
ATOM      4  H   UNL     1       1.226   6.623  21.695  0.00  0.00    +0.000 HD
ENDROOT
BRANCH   3   5
ATOM      5  C   UNL     1       2.185   5.901  20.003  0.00  0.00    +0.000 A 
ATOM      6  C   UNL     1       2.088   4.525  20.285  0.00  0.00    +0.000 A 
ATOM      7  C   UNL     1       2.732   3.546  19.499  0.00  0.00    +0.000 A 
ATOM      8  C   UNL     1       3.529   3.971  18.435  0.00  0.00    +0.000 A 
ATOM      9  N   UNL     1       4.333   3.275  17.565  0.00  0.00    +0.000 NA
ATOM     10  C   UNL     1       4.900   4.219  16.836  0.00  0.00    +0.000 A 
ATOM     11  O   UNL     1       4.456   5.492  17.117  0.00  0.00    +0.000 OA
ATOM     12  C   UNL     1       3.602   5.325  18.168  0.00  0.00    +0.000 A 
ATOM     13  C   UNL     1       2.938   6.321  18.891  0.00  0.00    +0.000 A 
BRANCH  10  14
ATOM     14  C   UNL     1       6.001   3.965  15.808  0.00  0.00    +0.000 C 
ATOM     15  C   UNL     1       6.594   5.114  15.022  0.00  0.00    +0.000 C 
ATOM     16  C   UNL     1       5.674   4.166  14.338  0.00  0.00    +0.000 C 
ENDBRANCH  10  14
ENDBRANCH   3   5
BRANCH   1  19
ATOM     17  C   UNL     1      -0.621  10.758  19.914  0.00  0.00    +0.000 C 
ATOM     18  C   UNL     1      -0.139  10.189  21.206  0.00  0.00    +0.000 A 
ATOM     19  C   UNL     1       0.730   9.114  21.435  0.00  0.00    +0.000 A 
ATOM     20  C   UNL     1       0.933   9.158  22.829  0.00  0.00    +0.000 A 
ATOM     21  N   UNL     1       0.307  10.168  23.429  0.00  0.00    +0.000 NA
ATOM     22  N   UNL     1      -0.419  10.766  22.445  0.00  0.00    +0.000 N 
BRANCH  22  23
ATOM     23  C   UNL     1      -1.204  11.914  22.761  0.00  0.00    +0.000 A 
ATOM     24  C   UNL     1      -2.514  11.738  23.237  0.00  0.00    +0.000 A 
ATOM     25  C   UNL     1      -3.263  12.839  23.675  0.00  0.00    +0.000 A 
ATOM     26  C   UNL     1      -2.727  14.124  23.610  0.00  0.00    +0.000 A 
ATOM     27  C   UNL     1      -1.459  14.313  23.069  0.00  0.00    +0.000 A 
ATOM     28  C   UNL     1      -0.713  13.215  22.635  0.00  0.00    +0.000 A 
ATOM     29  F   UNL     1       0.440  13.472  22.010  0.00  0.00    +0.000 F 
ENDBRANCH  22  23
ENDBRANCH   1  19
TORSDOF 4
ENDMDL
MODEL 3
REMARK VINA RESULT:      -8.3      7.256     10.561
REMARK  Name = 
REMARK  5 active torsions:
REMARK  status: ('A' for Active; 'I' for Inactive)
REMARK    1  A    between atoms: C_1  and  C_2
REMARK    2  A    between atoms: C_3  and  C_4
REMARK    3  A    between atoms: N_6  and  C_7
REMARK    4  A    between atoms: C_12  and  C_13
REMARK    5  A    between atoms: N_21  and  C_22
REMARK                            x       y       z     vdW  Elec       q    Type
REMARK                         _______ _______ _______ _____ _____    ______ ____
ROOT
ATOM      1  C   UNL     1       1.332   8.373  20.191  0.00  0.00    +0.000 C 
ATOM      2  O   UNL     1       1.495   8.763  19.043  0.00  0.00    +0.000 OA
ATOM      3  N   UNL     1       1.639   7.082  20.615  0.00  0.00    +0.000 N 
ATOM      4  H   UNL     1       1.373   6.824  21.555  0.00  0.00    +0.000 HD
ENDROOT
BRANCH   3   5
ATOM      5  C   UNL     1       2.245   6.050  19.839  0.00  0.00    +0.000 A 
ATOM      6  C   UNL     1       2.032   4.677  20.061  0.00  0.00    +0.000 A 
ATOM      7  C   UNL     1       2.660   3.679  19.287  0.00  0.00    +0.000 A 
ATOM      8  C   UNL     1       3.560   4.079  18.297  0.00  0.00    +0.000 A 
ATOM      9  N   UNL     1       4.374   3.355  17.460  0.00  0.00    +0.000 NA
ATOM     10  C   UNL     1       5.057   4.279  16.808  0.00  0.00    +0.000 A 
ATOM     11  O   UNL     1       4.684   5.570  17.104  0.00  0.00    +0.000 OA
ATOM     12  C   UNL     1       3.747   5.433  18.087  0.00  0.00    +0.000 A 
ATOM     13  C   UNL     1       3.105   6.450  18.798  0.00  0.00    +0.000 A 
BRANCH  10  14
ATOM     14  C   UNL     1       6.209   3.978  15.851  0.00  0.00    +0.000 C 
ATOM     15  C   UNL     1       6.785   5.073  14.980  0.00  0.00    +0.000 C 
ATOM     16  C   UNL     1       5.934   4.025  14.357  0.00  0.00    +0.000 C 
ENDBRANCH  10  14
ENDBRANCH   3   5
BRANCH   1  19
ATOM     17  C   UNL     1      -0.265  11.126  19.678  0.00  0.00    +0.000 C 
ATOM     18  C   UNL     1       0.057  10.461  20.973  0.00  0.00    +0.000 A 
ATOM     19  C   UNL     1       0.778   9.282  21.213  0.00  0.00    +0.000 A 
ATOM     20  C   UNL     1       0.888   9.255  22.618  0.00  0.00    +0.000 A 
ATOM     21  N   UNL     1       0.345  10.313  23.217  0.00  0.00    +0.000 NA
ATOM     22  N   UNL     1      -0.237  11.026  22.215  0.00  0.00    +0.000 N 
BRANCH  22  23
ATOM     23  C   UNL     1      -0.903  12.248  22.526  0.00  0.00    +0.000 A 
ATOM     24  C   UNL     1      -0.285  13.466  22.202  0.00  0.00    +0.000 A 
ATOM     25  C   UNL     1      -0.969  14.678  22.378  0.00  0.00    +0.000 A 
ATOM     26  C   UNL     1      -2.258  14.685  22.909  0.00  0.00    +0.000 A 
ATOM     27  C   UNL     1      -2.846  13.487  23.301  0.00  0.00    +0.000 A 
ATOM     28  C   UNL     1      -2.164  12.282  23.123  0.00  0.00    +0.000 A 
ATOM     29  F   UNL     1      -2.728  11.183  23.635  0.00  0.00    +0.000 F 
ENDBRANCH  22  23
ENDBRANCH   1  19
TORSDOF 4
ENDMDL
MODEL 4
REMARK VINA RESULT:      -8.3      0.966      1.235
REMARK  Name = 
REMARK  5 active torsions:
REMARK  status: ('A' for Active; 'I' for Inactive)
REMARK    1  A    between atoms: C_1  and  C_2
REMARK    2  A    between atoms: C_3  and  C_4
REMARK    3  A    between atoms: N_6  and  C_7
REMARK    4  A    between atoms: C_12  and  C_13
REMARK    5  A    between atoms: N_21  and  C_22
REMARK                            x       y       z     vdW  Elec       q    Type
REMARK                         _______ _______ _______ _____ _____    ______ ____
ROOT
ATOM      1  C   UNL     1       8.046   8.203  18.048  0.00  0.00    +0.000 C 
ATOM      2  O   UNL     1       7.982   8.757  16.959  0.00  0.00    +0.000 OA
ATOM      3  N   UNL     1       8.702   8.749  19.149  0.00  0.00    +0.000 N 
ATOM      4  H   UNL     1       8.788   8.172  19.974  0.00  0.00    +0.000 HD
ENDROOT
BRANCH   3   5
ATOM      5  C   UNL     1       9.323  10.031  19.224  0.00  0.00    +0.000 A 
ATOM      6  C   UNL     1       9.554  10.718  20.430  0.00  0.00    +0.000 A 
ATOM      7  C   UNL     1      10.155  11.994  20.471  0.00  0.00    +0.000 A 
ATOM      8  C   UNL     1      10.486  12.608  19.261  0.00  0.00    +0.000 A 
ATOM      9  N   UNL     1      10.989  13.854  18.980  0.00  0.00    +0.000 NA
ATOM     10  C   UNL     1      11.011  13.895  17.660  0.00  0.00    +0.000 A 
ATOM     11  O   UNL     1      10.630  12.720  17.053  0.00  0.00    +0.000 OA
ATOM     12  C   UNL     1      10.262  11.911  18.088  0.00  0.00    +0.000 A 
ATOM     13  C   UNL     1       9.717  10.626  18.011  0.00  0.00    +0.000 A 
BRANCH  10  14
ATOM     14  C   UNL     1      11.362  15.140  16.846  0.00  0.00    +0.000 C 
ATOM     15  C   UNL     1      11.641  16.455  17.542  0.00  0.00    +0.000 C 
ATOM     16  C   UNL     1      10.359  16.281  16.809  0.00  0.00    +0.000 C 
ENDBRANCH  10  14
ENDBRANCH   3   5
BRANCH   1  19
ATOM     17  C   UNL     1       5.034   7.355  17.273  0.00  0.00    +0.000 C 
ATOM     18  C   UNL     1       6.113   6.521  17.878  0.00  0.00    +0.000 A 
ATOM     19  C   UNL     1       7.415   6.885  18.250  0.00  0.00    +0.000 A 
ATOM     20  C   UNL     1       7.894   5.732  18.904  0.00  0.00    +0.000 A 
ATOM     21  N   UNL     1       6.996   4.753  18.989  0.00  0.00    +0.000 NA
ATOM     22  N   UNL     1       5.918   5.203  18.292  0.00  0.00    +0.000 N 
BRANCH  22  23
ATOM     23  C   UNL     1       4.755   4.382  18.203  0.00  0.00    +0.000 A 
ATOM     24  C   UNL     1       4.628   3.489  17.126  0.00  0.00    +0.000 A 
ATOM     25  C   UNL     1       3.560   2.581  17.081  0.00  0.00    +0.000 A 
ATOM     26  C   UNL     1       2.596   2.579  18.087  0.00  0.00    +0.000 A 
ATOM     27  C   UNL     1       2.676   3.512  19.117  0.00  0.00    +0.000 A 
ATOM     28  C   UNL     1       3.741   4.414  19.162  0.00  0.00    +0.000 A 
ATOM     29  F   UNL     1       3.694   5.364  20.101  0.00  0.00    +0.000 F 
ENDBRANCH  22  23
ENDBRANCH   1  19
TORSDOF 4
ENDMDL
MODEL 5
REMARK VINA RESULT:      -8.2      7.330     10.547
REMARK  Name = 
REMARK  5 active torsions:
REMARK  status: ('A' for Active; 'I' for Inactive)
REMARK    1  A    between atoms: C_1  and  C_2
REMARK    2  A    between atoms: C_3  and  C_4
REMARK    3  A    between atoms: N_6  and  C_7
REMARK    4  A    between atoms: C_12  and  C_13
REMARK    5  A    between atoms: N_21  and  C_22
REMARK                            x       y       z     vdW  Elec       q    Type
REMARK                         _______ _______ _______ _____ _____    ______ ____
ROOT
ATOM      1  C   UNL     1       1.077   8.511  20.523  0.00  0.00    +0.000 C 
ATOM      2  O   UNL     1       0.954   7.636  21.369  0.00  0.00    +0.000 OA
ATOM      3  N   UNL     1       1.845   8.361  19.370  0.00  0.00    +0.000 N 
ATOM      4  H   UNL     1       1.968   9.174  18.783  0.00  0.00    +0.000 HD
ENDROOT
BRANCH   3   5
ATOM      5  C   UNL     1       2.533   7.185  18.949  0.00  0.00    +0.000 A 
ATOM      6  C   UNL     1       2.508   5.969  19.659  0.00  0.00    +0.000 A 
ATOM      7  C   UNL     1       3.213   4.827  19.226  0.00  0.00    +0.000 A 
ATOM      8  C   UNL     1       4.000   4.931  18.077  0.00  0.00    +0.000 A 
ATOM      9  N   UNL     1       4.851   4.039  17.472  0.00  0.00    +0.000 NA
ATOM     10  C   UNL     1       5.373   4.728  16.475  0.00  0.00    +0.000 A 
ATOM     11  O   UNL     1       4.857   5.997  16.334  0.00  0.00    +0.000 OA
ATOM     12  C   UNL     1       4.001   6.130  17.388  0.00  0.00    +0.000 A 
ATOM     13  C   UNL     1       3.275   7.266  17.756  0.00  0.00    +0.000 A 
BRANCH  10  14
ATOM     14  C   UNL     1       6.500   4.218  15.576  0.00  0.00    +0.000 C 
ATOM     15  C   UNL     1       6.951   5.029  14.381  0.00  0.00    +0.000 C 
ATOM     16  C   UNL     1       6.153   3.794  14.159  0.00  0.00    +0.000 C 
ENDBRANCH  10  14
ENDBRANCH   3   5
BRANCH   1  19
ATOM     17  C   UNL     1      -0.167   9.708  23.245  0.00  0.00    +0.000 C 
ATOM     18  C   UNL     1      -0.109  10.332  21.891  0.00  0.00    +0.000 A 
ATOM     19  C   UNL     1       0.400   9.811  20.693  0.00  0.00    +0.000 A 
ATOM     20  C   UNL     1       0.031  10.782  19.741  0.00  0.00    +0.000 A 
ATOM     21  N   UNL     1      -0.674  11.790  20.250  0.00  0.00    +0.000 NA
ATOM     22  N   UNL     1      -0.700  11.560  21.591  0.00  0.00    +0.000 N 
BRANCH  22  23
ATOM     23  C   UNL     1      -1.403  12.465  22.439  0.00  0.00    +0.000 A 
ATOM     24  C   UNL     1      -2.724  12.169  22.812  0.00  0.00    +0.000 A 
ATOM     25  C   UNL     1      -3.394  12.973  23.745  0.00  0.00    +0.000 A 
ATOM     26  C   UNL     1      -2.767  14.094  24.286  0.00  0.00    +0.000 A 
ATOM     27  C   UNL     1      -1.486  14.434  23.863  0.00  0.00    +0.000 A 
ATOM     28  C   UNL     1      -0.819  13.632  22.936  0.00  0.00    +0.000 A 
ATOM     29  F   UNL     1       0.354  14.080  22.476  0.00  0.00    +0.000 F 
ENDBRANCH  22  23
ENDBRANCH   1  19
TORSDOF 4
ENDMDL
MODEL 6
REMARK VINA RESULT:      -8.2      6.738      8.815
REMARK  Name = 
REMARK  5 active torsions:
REMARK  status: ('A' for Active; 'I' for Inactive)
REMARK    1  A    between atoms: C_1  and  C_2
REMARK    2  A    between atoms: C_3  and  C_4
REMARK    3  A    between atoms: N_6  and  C_7
REMARK    4  A    between atoms: C_12  and  C_13
REMARK    5  A    between atoms: N_21  and  C_22
REMARK                            x       y       z     vdW  Elec       q    Type
REMARK                         _______ _______ _______ _____ _____    ______ ____
ROOT
ATOM      1  C   UNL     1       1.785   6.407  20.362  0.00  0.00    +0.000 C 
ATOM      2  O   UNL     1       0.794   5.869  20.838  0.00  0.00    +0.000 OA
ATOM      3  N   UNL     1       1.994   7.785  20.381  0.00  0.00    +0.000 N 
ATOM      4  H   UNL     1       2.790   8.142  19.873  0.00  0.00    +0.000 HD
ENDROOT
BRANCH   3   5
ATOM      5  C   UNL     1       1.164   8.765  21.001  0.00  0.00    +0.000 A 
ATOM      6  C   UNL     1       0.947   8.840  22.390  0.00  0.00    +0.000 A 
ATOM      7  C   UNL     1       0.106   9.812  22.972  0.00  0.00    +0.000 A 
ATOM      8  C   UNL     1      -0.566  10.697  22.127  0.00  0.00    +0.000 A 
ATOM      9  N   UNL     1      -1.498  11.672  22.385  0.00  0.00    +0.000 NA
ATOM     10  C   UNL     1      -1.832  12.114  21.187  0.00  0.00    +0.000 A 
ATOM     11  O   UNL     1      -1.116  11.548  20.157  0.00  0.00    +0.000 OA
ATOM     12  C   UNL     1      -0.330  10.614  20.768  0.00  0.00    +0.000 A 
ATOM     13  C   UNL     1       0.534   9.700  20.159  0.00  0.00    +0.000 A 
BRANCH  10  14
ATOM     14  C   UNL     1      -2.954  13.119  20.925  0.00  0.00    +0.000 C 
ATOM     15  C   UNL     1      -3.591  13.870  22.074  0.00  0.00    +0.000 C 
ATOM     16  C   UNL     1      -4.352  12.778  21.411  0.00  0.00    +0.000 C 
ENDBRANCH  10  14
ENDBRANCH   3   5
BRANCH   1  19
ATOM     17  C   UNL     1       3.437   7.136  17.692  0.00  0.00    +0.000 C 
ATOM     18  C   UNL     1       3.568   5.940  18.574  0.00  0.00    +0.000 A 
ATOM     19  C   UNL     1       2.835   5.595  19.719  0.00  0.00    +0.000 A 
ATOM     20  C   UNL     1       3.298   4.298  20.015  0.00  0.00    +0.000 A 
ATOM     21  N   UNL     1       4.191   3.835  19.142  0.00  0.00    +0.000 NA
ATOM     22  N   UNL     1       4.420   4.872  18.291  0.00  0.00    +0.000 N 
BRANCH  22  23
ATOM     23  C   UNL     1       5.332   4.695  17.209  0.00  0.00    +0.000 A 
ATOM     24  C   UNL     1       4.853   4.215  15.980  0.00  0.00    +0.000 A 
ATOM     25  C   UNL     1       5.699   4.153  14.864  0.00  0.00    +0.000 A 
ATOM     26  C   UNL     1       7.035   4.536  14.973  0.00  0.00    +0.000 A 
ATOM     27  C   UNL     1       7.534   4.942  16.207  0.00  0.00    +0.000 A 
ATOM     28  C   UNL     1       6.690   5.005  17.317  0.00  0.00    +0.000 A 
ATOM     29  F   UNL     1       7.256   5.278  18.497  0.00  0.00    +0.000 F 
ENDBRANCH  22  23
ENDBRANCH   1  19
TORSDOF 4
ENDMDL
MODEL 7
REMARK VINA RESULT:      -8.2      1.003      1.075
REMARK  Name = 
REMARK  5 active torsions:
REMARK  status: ('A' for Active; 'I' for Inactive)
REMARK    1  A    between atoms: C_1  and  C_2
REMARK    2  A    between atoms: C_3  and  C_4
REMARK    3  A    between atoms: N_6  and  C_7
REMARK    4  A    between atoms: C_12  and  C_13
REMARK    5  A    between atoms: N_21  and  C_22
REMARK                            x       y       z     vdW  Elec       q    Type
REMARK                         _______ _______ _______ _____ _____    ______ ____
ROOT
ATOM      1  C   UNL     1       8.054   8.084  17.938  0.00  0.00    +0.000 C 
ATOM      2  O   UNL     1       8.187   8.462  16.782  0.00  0.00    +0.000 OA
ATOM      3  N   UNL     1       8.506   8.807  19.039  0.00  0.00    +0.000 N 
ATOM      4  H   UNL     1       8.443   8.365  19.945  0.00  0.00    +0.000 HD
ENDROOT
BRANCH   3   5
ATOM      5  C   UNL     1       9.110  10.099  19.022  0.00  0.00    +0.000 A 
ATOM      6  C   UNL     1      10.212  10.457  19.821  0.00  0.00    +0.000 A 
ATOM      7  C   UNL     1      10.777  11.750  19.794  0.00  0.00    +0.000 A 
ATOM      8  C   UNL     1      10.183  12.715  18.978  0.00  0.00    +0.000 A 
ATOM      9  N   UNL     1      10.444  14.052  18.810  0.00  0.00    +0.000 NA
ATOM     10  C   UNL     1       9.504  14.455  17.976  0.00  0.00    +0.000 A 
ATOM     11  O   UNL     1       8.686  13.448  17.517  0.00  0.00    +0.000 OA
ATOM     12  C   UNL     1       9.108  12.339  18.193  0.00  0.00    +0.000 A 
ATOM     13  C   UNL     1       8.554  11.057  18.153  0.00  0.00    +0.000 A 
BRANCH  10  14
ATOM     14  C   UNL     1       9.273  15.914  17.583  0.00  0.00    +0.000 C 
ATOM     15  C   UNL     1       9.935  17.030  18.363  0.00  0.00    +0.000 C 
ATOM     16  C   UNL     1       8.476  16.796  18.529  0.00  0.00    +0.000 C 
ENDBRANCH  10  14
ENDBRANCH   3   5
BRANCH   1  19
ATOM     17  C   UNL     1       5.055   7.220  17.130  0.00  0.00    +0.000 C 
ATOM     18  C   UNL     1       6.096   6.424  17.842  0.00  0.00    +0.000 A 
ATOM     19  C   UNL     1       7.391   6.797  18.227  0.00  0.00    +0.000 A 
ATOM     20  C   UNL     1       7.826   5.697  18.994  0.00  0.00    +0.000 A 
ATOM     21  N   UNL     1       6.907   4.743  19.129  0.00  0.00    +0.000 NA
ATOM     22  N   UNL     1       5.862   5.149  18.358  0.00  0.00    +0.000 N 
BRANCH  22  23
ATOM     23  C   UNL     1       4.687   4.342  18.296  0.00  0.00    +0.000 A 
ATOM     24  C   UNL     1       3.984   4.065  19.480  0.00  0.00    +0.000 A 
ATOM     25  C   UNL     1       2.759   3.384  19.434  0.00  0.00    +0.000 A 
ATOM     26  C   UNL     1       2.244   2.946  18.216  0.00  0.00    +0.000 A 
ATOM     27  C   UNL     1       2.973   3.152  17.048  0.00  0.00    +0.000 A 
ATOM     28  C   UNL     1       4.192   3.832  17.095  0.00  0.00    +0.000 A 
ATOM     29  F   UNL     1       4.902   3.886  15.964  0.00  0.00    +0.000 F 
ENDBRANCH  22  23
ENDBRANCH   1  19
TORSDOF 4
ENDMDL
MODEL 8
REMARK VINA RESULT:      -8.2      8.314     11.860
REMARK  Name = 
REMARK  5 active torsions:
REMARK  status: ('A' for Active; 'I' for Inactive)
REMARK    1  A    between atoms: C_1  and  C_2
REMARK    2  A    between atoms: C_3  and  C_4
REMARK    3  A    between atoms: N_6  and  C_7
REMARK    4  A    between atoms: C_12  and  C_13
REMARK    5  A    between atoms: N_21  and  C_22
REMARK                            x       y       z     vdW  Elec       q    Type
REMARK                         _______ _______ _______ _____ _____    ______ ____
ROOT
ATOM      1  C   UNL     1      -0.234  10.414  19.477  0.00  0.00    +0.000 C 
ATOM      2  O   UNL     1      -0.839   9.971  18.510  0.00  0.00    +0.000 OA
ATOM      3  N   UNL     1       0.940   9.850  19.972  0.00  0.00    +0.000 N 
ATOM      4  H   UNL     1       1.309  10.225  20.834  0.00  0.00    +0.000 HD
ENDROOT
BRANCH   3   5
ATOM      5  C   UNL     1       1.658   8.750  19.418  0.00  0.00    +0.000 A 
ATOM      6  C   UNL     1       2.250   8.766  18.141  0.00  0.00    +0.000 A 
ATOM      7  C   UNL     1       2.940   7.654  17.614  0.00  0.00    +0.000 A 
ATOM      8  C   UNL     1       2.990   6.485  18.375  0.00  0.00    +0.000 A 
ATOM      9  N   UNL     1       3.500   5.240  18.099  0.00  0.00    +0.000 NA
ATOM     10  C   UNL     1       3.179   4.525  19.162  0.00  0.00    +0.000 A 
ATOM     11  O   UNL     1       2.561   5.244  20.159  0.00  0.00    +0.000 OA
ATOM     12  C   UNL     1       2.413   6.493  19.631  0.00  0.00    +0.000 A 
ATOM     13  C   UNL     1       1.767   7.590  20.208  0.00  0.00    +0.000 A 
BRANCH  10  14
ATOM     14  C   UNL     1       3.401   3.018  19.281  0.00  0.00    +0.000 C 
ATOM     15  C   UNL     1       3.261   2.126  18.067  0.00  0.00    +0.000 C 
ATOM     16  C   UNL     1       2.204   2.099  19.112  0.00  0.00    +0.000 C 
ENDBRANCH  10  14
ENDBRANCH   3   5
BRANCH   1  19
ATOM     17  C   UNL     1      -0.796  10.686  22.639  0.00  0.00    +0.000 C 
ATOM     18  C   UNL     1      -0.950  11.716  21.571  0.00  0.00    +0.000 A 
ATOM     19  C   UNL     1      -0.740  11.603  20.189  0.00  0.00    +0.000 A 
ATOM     20  C   UNL     1      -1.199  12.840  19.694  0.00  0.00    +0.000 A 
ATOM     21  N   UNL     1      -1.692  13.643  20.635  0.00  0.00    +0.000 NA
ATOM     22  N   UNL     1      -1.472  12.988  21.807  0.00  0.00    +0.000 N 
BRANCH  22  23
ATOM     23  C   UNL     1      -1.905  13.584  23.028  0.00  0.00    +0.000 A 
ATOM     24  C   UNL     1      -1.046  14.466  23.703  0.00  0.00    +0.000 A 
ATOM     25  C   UNL     1      -1.491  15.164  24.835  0.00  0.00    +0.000 A 
ATOM     26  C   UNL     1      -2.782  14.963  25.321  0.00  0.00    +0.000 A 
ATOM     27  C   UNL     1      -3.612  14.034  24.701  0.00  0.00    +0.000 A 
ATOM     28  C   UNL     1      -3.168  13.342  23.573  0.00  0.00    +0.000 A 
ATOM     29  F   UNL     1      -3.962  12.375  23.101  0.00  0.00    +0.000 F 
ENDBRANCH  22  23
ENDBRANCH   1  19
TORSDOF 4
ENDMDL
MODEL 9
REMARK VINA RESULT:      -8.1      6.645      9.027
REMARK  Name = 
REMARK  5 active torsions:
REMARK  status: ('A' for Active; 'I' for Inactive)
REMARK    1  A    between atoms: C_1  and  C_2
REMARK    2  A    between atoms: C_3  and  C_4
REMARK    3  A    between atoms: N_6  and  C_7
REMARK    4  A    between atoms: C_12  and  C_13
REMARK    5  A    between atoms: N_21  and  C_22
REMARK                            x       y       z     vdW  Elec       q    Type
REMARK                         _______ _______ _______ _____ _____    ______ ____
ROOT
ATOM      1  C   UNL     1       1.593   6.740  20.523  0.00  0.00    +0.000 C 
ATOM      2  O   UNL     1       0.567   6.167  20.863  0.00  0.00    +0.000 OA
ATOM      3  N   UNL     1       1.802   8.107  20.695  0.00  0.00    +0.000 N 
ATOM      4  H   UNL     1       2.636   8.506  20.289  0.00  0.00    +0.000 HD
ENDROOT
BRANCH   3   5
ATOM      5  C   UNL     1       0.927   9.029  21.341  0.00  0.00    +0.000 A 
ATOM      6  C   UNL     1       0.651   9.009  22.721  0.00  0.00    +0.000 A 
ATOM      7  C   UNL     1      -0.234   9.925  23.329  0.00  0.00    +0.000 A 
ATOM      8  C   UNL     1      -0.890  10.851  22.514  0.00  0.00    +0.000 A 
ATOM      9  N   UNL     1      -1.852  11.789  22.795  0.00  0.00    +0.000 NA
ATOM     10  C   UNL     1      -2.145  12.303  21.614  0.00  0.00    +0.000 A 
ATOM     11  O   UNL     1      -1.375  11.819  20.581  0.00  0.00    +0.000 OA
ATOM     12  C   UNL     1      -0.595  10.862  21.163  0.00  0.00    +0.000 A 
ATOM     13  C   UNL     1       0.312  10.006  20.534  0.00  0.00    +0.000 A 
BRANCH  10  14
ATOM     14  C   UNL     1      -3.277  13.301  21.370  0.00  0.00    +0.000 C 
ATOM     15  C   UNL     1      -4.409  13.432  22.365  0.00  0.00    +0.000 C 
ATOM     16  C   UNL     1      -4.662  12.757  21.064  0.00  0.00    +0.000 C 
ENDBRANCH  10  14
ENDBRANCH   3   5
BRANCH   1  19
ATOM     17  C   UNL     1       3.068   7.432  17.741  0.00  0.00    +0.000 C 
ATOM     18  C   UNL     1       3.343   6.317  18.692  0.00  0.00    +0.000 A 
ATOM     19  C   UNL     1       2.690   5.985  19.888  0.00  0.00    +0.000 A 
ATOM     20  C   UNL     1       3.285   4.759  20.247  0.00  0.00    +0.000 A 
ATOM     21  N   UNL     1       4.183   4.322  19.368  0.00  0.00    +0.000 NA
ATOM     22  N   UNL     1       4.282   5.314  18.442  0.00  0.00    +0.000 N 
BRANCH  22  23
ATOM     23  C   UNL     1       5.165   5.149  17.335  0.00  0.00    +0.000 A 
ATOM     24  C   UNL     1       6.350   5.900  17.286  0.00  0.00    +0.000 A 
ATOM     25  C   UNL     1       7.297   5.666  16.279  0.00  0.00    +0.000 A 
ATOM     26  C   UNL     1       7.055   4.708  15.296  0.00  0.00    +0.000 A 
ATOM     27  C   UNL     1       5.849   4.013  15.297  0.00  0.00    +0.000 A 
ATOM     28  C   UNL     1       4.908   4.246  16.301  0.00  0.00    +0.000 A 
ATOM     29  F   UNL     1       3.722   3.643  16.175  0.00  0.00    +0.000 F 
ENDBRANCH  22  23
ENDBRANCH   1  19
TORSDOF 4
ENDMDL
