MODEL 1
REMARK VINA RESULT:      -8.0      0.000      0.000
REMARK  Name = 
REMARK  5 active torsions:
REMARK  status: ('A' for Active; 'I' for Inactive)
REMARK    1  A    between atoms: C_1  and  C_2
REMARK    2  A    between atoms: C_7  and  C_9
REMARK    3  A    between atoms: C_14  and  C_16
REMARK    4  A    between atoms: C_16  and  C_17
REMARK    5  A    between atoms: C_21  and  C_22
REMARK                            x       y       z     vdW  Elec       q    Type
REMARK                         _______ _______ _______ _____ _____    ______ ____
ROOT
ATOM      1  C   UNL     1       7.319   5.479  17.065  0.00  0.00    +0.000 C 
ATOM      2  C   UNL     1       6.736   6.035  15.756  0.00  0.00    +0.000 C 
ATOM      3  C   UNL     1       5.240   6.348  15.837  0.00  0.00    +0.000 C 
ATOM      4  C   UNL     1       4.449   5.191  16.448  0.00  0.00    +0.000 C 
ATOM      5  N   UNL     1       5.017   4.825  17.745  0.00  0.00    +0.000 N 
ATOM      6  C   UNL     1       4.332   4.754  18.963  0.00  0.00    +0.000 C 
ATOM      7  O   UNL     1       4.910   4.515  20.020  0.00  0.00    +0.000 OA
ATOM      8  C   UNL     1       6.423   4.405  17.689  0.00  0.00    +0.000 C 
ENDROOT
BRANCH   1  15
ATOM      9  C   UNL     1       9.904  12.523  19.846  0.00  0.00    +0.000 C 
ATOM     10  C   UNL     1       9.268  11.335  19.200  0.00  0.00    +0.000 A 
ATOM     11  C   UNL     1       8.875  11.339  17.868  0.00  0.00    +0.000 A 
ATOM     12  C   UNL     1       8.372  10.166  17.303  0.00  0.00    +0.000 A 
ATOM     13  C   UNL     1       8.294   9.012  18.071  0.00  0.00    +0.000 A 
ATOM     14  N   UNL     1       7.867   7.843  17.440  0.00  0.00    +0.000 N 
ATOM     15  C   UNL     1       7.716   6.603  18.022  0.00  0.00    +0.000 C 
ATOM     16  O   UNL     1       7.948   6.320  19.198  0.00  0.00    +0.000 OA
ATOM     17  N   UNL     1       8.653   8.998  19.364  0.00  0.00    +0.000 NA
ATOM     18  C   UNL     1       9.123  10.144  19.902  0.00  0.00    +0.000 A 
ATOM     19  H   UNL     1       7.595   7.933  16.471  0.00  0.00    +0.000 HD
ENDBRANCH   1  15
BRANCH   6  20
ATOM     20  C   UNL     1       2.860   5.071  19.008  0.00  0.00    +0.000 C 
ATOM     21  C   UNL     1       1.915   3.953  19.450  0.00  0.00    +0.000 C 
ATOM     22  C   UNL     1       1.909   4.358  18.022  0.00  0.00    +0.000 C 
BRANCH  20  23
ATOM     23  C   UNL     1       2.508   6.548  19.134  0.00  0.00    +0.000 A 
ATOM     24  C   UNL     1       2.677   7.412  18.034  0.00  0.00    +0.000 A 
ATOM     25  C   UNL     1       2.241   8.736  18.072  0.00  0.00    +0.000 A 
ATOM     26  C   UNL     1       1.658   9.232  19.231  0.00  0.00    +0.000 A 
ATOM     27  C   UNL     1       1.545   8.423  20.366  0.00  0.00    +0.000 A 
ATOM     28  C   UNL     1       0.914   8.950  21.619  0.00  0.00    +0.000 C 
ATOM     29  C   UNL     1       1.962   7.087  20.304  0.00  0.00    +0.000 A 
ENDBRANCH  20  23
ENDBRANCH   6  20
TORSDOF 3
ENDMDL
MODEL 2
REMARK VINA RESULT:      -7.7      6.338      9.925
REMARK  Name = 
REMARK  5 active torsions:
REMARK  status: ('A' for Active; 'I' for Inactive)
REMARK    1  A    between atoms: C_1  and  C_2
REMARK    2  A    between atoms: C_7  and  C_9
REMARK    3  A    between atoms: C_14  and  C_16
REMARK    4  A    between atoms: C_16  and  C_17
REMARK    5  A    between atoms: C_21  and  C_22
REMARK                            x       y       z     vdW  Elec       q    Type
REMARK                         _______ _______ _______ _____ _____    ______ ____
ROOT
ATOM      1  C   UNL     1       1.425  14.934  20.793  0.00  0.00    +0.000 C 
ATOM      2  C   UNL     1       1.172  15.488  19.381  0.00  0.00    +0.000 C 
ATOM      3  C   UNL     1       0.639  14.441  18.401  0.00  0.00    +0.000 C 
ATOM      4  C   UNL     1       1.460  13.152  18.443  0.00  0.00    +0.000 C 
ATOM      5  N   UNL     1       1.534  12.650  19.815  0.00  0.00    +0.000 N 
ATOM      6  C   UNL     1       1.171  11.372  20.253  0.00  0.00    +0.000 C 
ATOM      7  O   UNL     1       1.192  11.063  21.442  0.00  0.00    +0.000 OA
ATOM      8  C   UNL     1       2.148  13.585  20.765  0.00  0.00    +0.000 C 
ENDROOT
BRANCH   1  15
ATOM      9  C   UNL     1      -5.180  12.520  24.610  0.00  0.00    +0.000 C 
ATOM     10  C   UNL     1      -3.837  12.802  24.020  0.00  0.00    +0.000 A 
ATOM     11  C   UNL     1      -2.943  11.789  23.696  0.00  0.00    +0.000 A 
ATOM     12  C   UNL     1      -1.743  12.117  23.063  0.00  0.00    +0.000 A 
ATOM     13  C   UNL     1      -1.472  13.442  22.748  0.00  0.00    +0.000 A 
ATOM     14  N   UNL     1      -0.300  13.710  22.039  0.00  0.00    +0.000 N 
ATOM     15  C   UNL     1       0.150  14.949  21.637  0.00  0.00    +0.000 C 
ATOM     16  O   UNL     1      -0.417  16.025  21.828  0.00  0.00    +0.000 OA
ATOM     17  N   UNL     1      -2.318  14.432  23.071  0.00  0.00    +0.000 NA
ATOM     18  C   UNL     1      -3.468  14.102  23.697  0.00  0.00    +0.000 A 
ATOM     19  H   UNL     1       0.297  12.919  21.847  0.00  0.00    +0.000 HD
ENDBRANCH   1  15
BRANCH   6  20
ATOM     20  C   UNL     1       0.648  10.365  19.261  0.00  0.00    +0.000 C 
ATOM     21  C   UNL     1       1.286   8.976  19.268  0.00  0.00    +0.000 C 
ATOM     22  C   UNL     1       1.575   9.880  18.126  0.00  0.00    +0.000 C 
BRANCH  20  23
ATOM     23  C   UNL     1      -0.761  10.625  18.742  0.00  0.00    +0.000 A 
ATOM     24  C   UNL     1      -1.633  11.472  19.455  0.00  0.00    +0.000 A 
ATOM     25  C   UNL     1      -2.876  11.837  18.942  0.00  0.00    +0.000 A 
ATOM     26  C   UNL     1      -3.288  11.330  17.715  0.00  0.00    +0.000 A 
ATOM     27  C   UNL     1      -2.479  10.427  17.018  0.00  0.00    +0.000 A 
ATOM     28  C   UNL     1      -2.914   9.878  15.694  0.00  0.00    +0.000 C 
ATOM     29  C   UNL     1      -1.220  10.091  17.533  0.00  0.00    +0.000 A 
ENDBRANCH  20  23
ENDBRANCH   6  20
TORSDOF 3
ENDMDL
MODEL 3
REMARK VINA RESULT:      -7.7      4.050      8.783
REMARK  Name = 
REMARK  5 active torsions:
REMARK  status: ('A' for Active; 'I' for Inactive)
REMARK    1  A    between atoms: C_1  and  C_2
REMARK    2  A    between atoms: C_7  and  C_9
REMARK    3  A    between atoms: C_14  and  C_16
REMARK    4  A    between atoms: C_16  and  C_17
REMARK    5  A    between atoms: C_21  and  C_22
REMARK                            x       y       z     vdW  Elec       q    Type
REMARK                         _______ _______ _______ _____ _____    ______ ____
ROOT
ATOM      1  C   UNL     1      10.147  10.859  20.015  0.00  0.00    +0.000 C 
ATOM      2  C   UNL     1       9.416  11.415  21.247  0.00  0.00    +0.000 C 
ATOM      3  C   UNL     1       8.824  12.808  21.030  0.00  0.00    +0.000 C 
ATOM      4  C   UNL     1       9.838  13.766  20.403  0.00  0.00    +0.000 C 
ATOM      5  N   UNL     1      10.379  13.188  19.173  0.00  0.00    +0.000 N 
ATOM      6  C   UNL     1      10.384  13.783  17.907  0.00  0.00    +0.000 C 
ATOM      7  O   UNL     1      10.790  13.188  16.912  0.00  0.00    +0.000 OA
ATOM      8  C   UNL     1      11.060  11.901  19.363  0.00  0.00    +0.000 C 
ENDROOT
BRANCH   1  15
ATOM      9  C   UNL     1       6.165   5.212  15.979  0.00  0.00    +0.000 C 
ATOM     10  C   UNL     1       6.835   6.153  16.926  0.00  0.00    +0.000 A 
ATOM     11  C   UNL     1       7.455   5.716  18.090  0.00  0.00    +0.000 A 
ATOM     12  C   UNL     1       8.141   6.636  18.883  0.00  0.00    +0.000 A 
ATOM     13  C   UNL     1       8.214   7.966  18.486  0.00  0.00    +0.000 A 
ATOM     14  N   UNL     1       8.983   8.831  19.266  0.00  0.00    +0.000 N 
ATOM     15  C   UNL     1       9.177  10.178  19.048  0.00  0.00    +0.000 C 
ATOM     16  O   UNL     1       8.710  10.838  18.120  0.00  0.00    +0.000 OA
ATOM     17  N   UNL     1       7.605   8.405  17.375  0.00  0.00    +0.000 NA
ATOM     18  C   UNL     1       6.931   7.507  16.626  0.00  0.00    +0.000 A 
ATOM     19  H   UNL     1       9.396   8.435  20.097  0.00  0.00    +0.000 HD
ENDBRANCH   1  15
BRANCH   6  20
ATOM     20  C   UNL     1       9.790  15.156  17.727  0.00  0.00    +0.000 C 
ATOM     21  C   UNL     1      10.561  16.144  16.852  0.00  0.00    +0.000 C 
ATOM     22  C   UNL     1      10.530  16.375  18.318  0.00  0.00    +0.000 C 
BRANCH  20  23
ATOM     23  C   UNL     1       8.289  15.260  17.965  0.00  0.00    +0.000 A 
ATOM     24  C   UNL     1       7.430  14.231  17.528  0.00  0.00    +0.000 A 
ATOM     25  C   UNL     1       6.074  14.229  17.847  0.00  0.00    +0.000 A 
ATOM     26  C   UNL     1       5.540  15.280  18.583  0.00  0.00    +0.000 A 
ATOM     27  C   UNL     1       6.349  16.354  18.967  0.00  0.00    +0.000 A 
ATOM     28  C   UNL     1       5.782  17.489  19.763  0.00  0.00    +0.000 C 
ATOM     29  C   UNL     1       7.717  16.329  18.664  0.00  0.00    +0.000 A 
ENDBRANCH  20  23
ENDBRANCH   6  20
TORSDOF 3
ENDMDL
MODEL 4
REMARK VINA RESULT:      -7.6      0.706      1.396
REMARK  Name = 
REMARK  5 active torsions:
REMARK  status: ('A' for Active; 'I' for Inactive)
REMARK    1  A    between atoms: C_1  and  C_2
REMARK    2  A    between atoms: C_7  and  C_9
REMARK    3  A    between atoms: C_14  and  C_16
REMARK    4  A    between atoms: C_16  and  C_17
REMARK    5  A    between atoms: C_21  and  C_22
REMARK                            x       y       z     vdW  Elec       q    Type
REMARK                         _______ _______ _______ _____ _____    ______ ____
ROOT
ATOM      1  C   UNL     1       7.369   5.623  16.692  0.00  0.00    +0.000 C 
ATOM      2  C   UNL     1       6.576   6.228  15.523  0.00  0.00    +0.000 C 
ATOM      3  C   UNL     1       5.066   6.270  15.766  0.00  0.00    +0.000 C 
ATOM      4  C   UNL     1       4.533   4.928  16.272  0.00  0.00    +0.000 C 
ATOM      5  N   UNL     1       5.281   4.507  17.457  0.00  0.00    +0.000 N 
ATOM      6  C   UNL     1       4.743   4.171  18.703  0.00  0.00    +0.000 C 
ATOM      7  O   UNL     1       5.455   3.905  19.668  0.00  0.00    +0.000 OA
ATOM      8  C   UNL     1       6.723   4.343  17.231  0.00  0.00    +0.000 C 
ENDROOT
BRANCH   1  15
ATOM      9  C   UNL     1       9.798  12.384  20.216  0.00  0.00    +0.000 C 
ATOM     10  C   UNL     1       9.212  11.262  19.423  0.00  0.00    +0.000 A 
ATOM     11  C   UNL     1       8.986  11.361  18.056  0.00  0.00    +0.000 A 
ATOM     12  C   UNL     1       8.523  10.244  17.359  0.00  0.00    +0.000 A 
ATOM     13  C   UNL     1       8.317   9.049  18.036  0.00  0.00    +0.000 A 
ATOM     14  N   UNL     1       7.936   7.937  17.283  0.00  0.00    +0.000 N 
ATOM     15  C   UNL     1       7.678   6.671  17.762  0.00  0.00    +0.000 C 
ATOM     16  O   UNL     1       7.755   6.309  18.936  0.00  0.00    +0.000 OA
ATOM     17  N   UNL     1       8.513   8.944  19.359  0.00  0.00    +0.000 NA
ATOM     18  C   UNL     1       8.947  10.036  20.023  0.00  0.00    +0.000 A 
ATOM     19  H   UNL     1       7.788   8.096  16.297  0.00  0.00    +0.000 HD
ENDBRANCH   1  15
BRANCH   6  20
ATOM     20  C   UNL     1       3.251   4.224  18.908  0.00  0.00    +0.000 C 
ATOM     21  C   UNL     1       2.549   2.923  19.296  0.00  0.00    +0.000 C 
ATOM     22  C   UNL     1       2.332   3.462  17.930  0.00  0.00    +0.000 C 
BRANCH  20  23
ATOM     23  C   UNL     1       2.681   5.599  19.235  0.00  0.00    +0.000 A 
ATOM     24  C   UNL     1       2.156   5.862  20.516  0.00  0.00    +0.000 A 
ATOM     25  C   UNL     1       1.752   7.142  20.890  0.00  0.00    +0.000 A 
ATOM     26  C   UNL     1       1.831   8.183  19.972  0.00  0.00    +0.000 A 
ATOM     27  C   UNL     1       2.276   7.940  18.669  0.00  0.00    +0.000 A 
ATOM     28  C   UNL     1       2.369   9.056  17.674  0.00  0.00    +0.000 C 
ATOM     29  C   UNL     1       2.706   6.654  18.315  0.00  0.00    +0.000 A 
ENDBRANCH  20  23
ENDBRANCH   6  20
TORSDOF 3
ENDMDL
MODEL 5
REMARK VINA RESULT:      -7.6      6.378      9.908
REMARK  Name = 
REMARK  5 active torsions:
REMARK  status: ('A' for Active; 'I' for Inactive)
REMARK    1  A    between atoms: C_1  and  C_2
REMARK    2  A    between atoms: C_7  and  C_9
REMARK    3  A    between atoms: C_14  and  C_16
REMARK    4  A    between atoms: C_16  and  C_17
REMARK    5  A    between atoms: C_21  and  C_22
REMARK                            x       y       z     vdW  Elec       q    Type
REMARK                         _______ _______ _______ _____ _____    ______ ____
ROOT
ATOM      1  C   UNL     1       1.588  14.987  21.046  0.00  0.00    +0.000 C 
ATOM      2  C   UNL     1       1.369  15.622  19.664  0.00  0.00    +0.000 C 
ATOM      3  C   UNL     1       0.820  14.645  18.623  0.00  0.00    +0.000 C 
ATOM      4  C   UNL     1       1.603  13.332  18.605  0.00  0.00    +0.000 C 
ATOM      5  N   UNL     1       1.644  12.755  19.949  0.00  0.00    +0.000 N 
ATOM      6  C   UNL     1       1.239  11.467  20.314  0.00  0.00    +0.000 C 
ATOM      7  O   UNL     1       1.234  11.095  21.484  0.00  0.00    +0.000 OA
ATOM      8  C   UNL     1       2.272  13.620  20.956  0.00  0.00    +0.000 C 
ENDROOT
BRANCH   1  15
ATOM      9  C   UNL     1      -5.174  12.587  24.589  0.00  0.00    +0.000 C 
ATOM     10  C   UNL     1      -3.811  12.852  24.038  0.00  0.00    +0.000 A 
ATOM     11  C   UNL     1      -2.959  11.828  23.647  0.00  0.00    +0.000 A 
ATOM     12  C   UNL     1      -1.736  12.149  23.054  0.00  0.00    +0.000 A 
ATOM     13  C   UNL     1      -1.402  13.481  22.846  0.00  0.00    +0.000 A 
ATOM     14  N   UNL     1      -0.209  13.749  22.174  0.00  0.00    +0.000 N 
ATOM     15  C   UNL     1       0.303  14.994  21.875  0.00  0.00    +0.000 C 
ATOM     16  O   UNL     1      -0.219  16.077  22.144  0.00  0.00    +0.000 OA
ATOM     17  N   UNL     1      -2.207  14.480  23.236  0.00  0.00    +0.000 NA
ATOM     18  C   UNL     1      -3.379  14.156  23.822  0.00  0.00    +0.000 A 
ATOM     19  H   UNL     1       0.355  12.949  21.928  0.00  0.00    +0.000 HD
ENDBRANCH   1  15
BRANCH   6  20
ATOM     20  C   UNL     1       0.701  10.530  19.263  0.00  0.00    +0.000 C 
ATOM     21  C   UNL     1       1.361   9.157  19.143  0.00  0.00    +0.000 C 
ATOM     22  C   UNL     1       1.598  10.152  18.066  0.00  0.00    +0.000 C 
BRANCH  20  23
ATOM     23  C   UNL     1      -0.729  10.803  18.810  0.00  0.00    +0.000 A 
ATOM     24  C   UNL     1      -1.251  10.141  17.680  0.00  0.00    +0.000 A 
ATOM     25  C   UNL     1      -2.591  10.264  17.318  0.00  0.00    +0.000 A 
ATOM     26  C   UNL     1      -3.431  11.084  18.063  0.00  0.00    +0.000 A 
ATOM     27  C   UNL     1      -2.926  11.813  19.144  0.00  0.00    +0.000 A 
ATOM     28  C   UNL     1      -3.825  12.697  19.954  0.00  0.00    +0.000 C 
ATOM     29  C   UNL     1      -1.583  11.658  19.513  0.00  0.00    +0.000 A 
ENDBRANCH  20  23
ENDBRANCH   6  20
TORSDOF 3
ENDMDL
MODEL 6
REMARK VINA RESULT:      -7.5      1.086      2.807
REMARK  Name = 
REMARK  5 active torsions:
REMARK  status: ('A' for Active; 'I' for Inactive)
REMARK    1  A    between atoms: C_1  and  C_2
REMARK    2  A    between atoms: C_7  and  C_9
REMARK    3  A    between atoms: C_14  and  C_16
REMARK    4  A    between atoms: C_16  and  C_17
REMARK    5  A    between atoms: C_21  and  C_22
REMARK                            x       y       z     vdW  Elec       q    Type
REMARK                         _______ _______ _______ _____ _____    ______ ____
ROOT
ATOM      1  C   UNL     1       7.555   5.944  17.095  0.00  0.00    +0.000 C 
ATOM      2  C   UNL     1       6.983   6.495  15.780  0.00  0.00    +0.000 C 
ATOM      3  C   UNL     1       5.496   6.846  15.859  0.00  0.00    +0.000 C 
ATOM      4  C   UNL     1       4.678   5.717  16.487  0.00  0.00    +0.000 C 
ATOM      5  N   UNL     1       5.239   5.355  17.788  0.00  0.00    +0.000 N 
ATOM      6  C   UNL     1       4.555   5.318  19.008  0.00  0.00    +0.000 C 
ATOM      7  O   UNL     1       5.129   5.079  20.067  0.00  0.00    +0.000 OA
ATOM      8  C   UNL     1       6.635   4.901  17.736  0.00  0.00    +0.000 C 
ENDROOT
BRANCH   1  15
ATOM      9  C   UNL     1       9.973  13.082  19.785  0.00  0.00    +0.000 C 
ATOM     10  C   UNL     1       9.348  11.869  19.177  0.00  0.00    +0.000 A 
ATOM     11  C   UNL     1       8.814  11.875  17.895  0.00  0.00    +0.000 A 
ATOM     12  C   UNL     1       8.329  10.684  17.353  0.00  0.00    +0.000 A 
ATOM     13  C   UNL     1       8.407   9.511  18.093  0.00  0.00    +0.000 A 
ATOM     14  N   UNL     1       7.989   8.330  17.477  0.00  0.00    +0.000 N 
ATOM     15  C   UNL     1       7.981   7.071  18.037  0.00  0.00    +0.000 C 
ATOM     16  O   UNL     1       8.356   6.779  19.173  0.00  0.00    +0.000 OA
ATOM     17  N   UNL     1       8.904   9.493  19.339  0.00  0.00    +0.000 NA
ATOM     18  C   UNL     1       9.355  10.655  19.856  0.00  0.00    +0.000 A 
ATOM     19  H   UNL     1       7.609   8.423  16.546  0.00  0.00    +0.000 HD
ENDBRANCH   1  15
BRANCH   6  20
ATOM     20  C   UNL     1       3.091   5.671  19.050  0.00  0.00    +0.000 C 
ATOM     21  C   UNL     1       2.650   6.931  18.304  0.00  0.00    +0.000 C 
ATOM     22  C   UNL     1       2.649   6.953  19.789  0.00  0.00    +0.000 C 
BRANCH  20  23
ATOM     23  C   UNL     1       2.144   4.515  19.349  0.00  0.00    +0.000 A 
ATOM     24  C   UNL     1       1.415   3.909  18.306  0.00  0.00    +0.000 A 
ATOM     25  C   UNL     1       0.646   2.767  18.522  0.00  0.00    +0.000 A 
ATOM     26  C   UNL     1       0.563   2.226  19.800  0.00  0.00    +0.000 A 
ATOM     27  C   UNL     1       1.213   2.847  20.871  0.00  0.00    +0.000 A 
ATOM     28  C   UNL     1       1.131   2.269  22.251  0.00  0.00    +0.000 C 
ATOM     29  C   UNL     1       2.005   3.979  20.634  0.00  0.00    +0.000 A 
ENDBRANCH  20  23
ENDBRANCH   6  20
TORSDOF 3
ENDMDL
MODEL 7
REMARK VINA RESULT:      -7.4      5.733      8.343
REMARK  Name = 
REMARK  5 active torsions:
REMARK  status: ('A' for Active; 'I' for Inactive)
REMARK    1  A    between atoms: C_1  and  C_2
REMARK    2  A    between atoms: C_7  and  C_9
REMARK    3  A    between atoms: C_14  and  C_16
REMARK    4  A    between atoms: C_16  and  C_17
REMARK    5  A    between atoms: C_21  and  C_22
REMARK                            x       y       z     vdW  Elec       q    Type
REMARK                         _______ _______ _______ _____ _____    ______ ____
ROOT
ATOM      1  C   UNL     1      -0.530  14.707  21.529  0.00  0.00    +0.000 C 
ATOM      2  C   UNL     1      -0.878  13.794  22.715  0.00  0.00    +0.000 C 
ATOM      3  C   UNL     1      -0.999  12.317  22.334  0.00  0.00    +0.000 C 
ATOM      4  C   UNL     1      -1.876  12.118  21.098  0.00  0.00    +0.000 C 
ATOM      5  N   UNL     1      -1.382  12.944  19.995  0.00  0.00    +0.000 N 
ATOM      6  C   UNL     1      -1.036  12.500  18.715  0.00  0.00    +0.000 C 
ATOM      7  O   UNL     1      -0.553  13.254  17.875  0.00  0.00    +0.000 OA
ATOM      8  C   UNL     1      -1.361  14.383  20.284  0.00  0.00    +0.000 C 
ENDROOT
BRANCH   1  15
ATOM      9  C   UNL     1       6.558  14.802  17.817  0.00  0.00    +0.000 C 
ATOM     10  C   UNL     1       5.180  14.966  18.370  0.00  0.00    +0.000 A 
ATOM     11  C   UNL     1       4.093  15.282  17.566  0.00  0.00    +0.000 A 
ATOM     12  C   UNL     1       2.818  15.330  18.132  0.00  0.00    +0.000 A 
ATOM     13  C   UNL     1       2.654  15.040  19.481  0.00  0.00    +0.000 A 
ATOM     14  N   UNL     1       1.352  15.016  19.982  0.00  0.00    +0.000 N 
ATOM     15  C   UNL     1       0.978  14.758  21.284  0.00  0.00    +0.000 C 
ATOM     16  O   UNL     1       1.736  14.492  22.218  0.00  0.00    +0.000 OA
ATOM     17  N   UNL     1       3.697  14.752  20.273  0.00  0.00    +0.000 NA
ATOM     18  C   UNL     1       4.926  14.725  19.716  0.00  0.00    +0.000 A 
ATOM     19  H   UNL     1       0.619  15.262  19.333  0.00  0.00    +0.000 HD
ENDBRANCH   1  15
BRANCH   6  20
ATOM     20  C   UNL     1      -1.166  11.038  18.373  0.00  0.00    +0.000 C 
ATOM     21  C   UNL     1      -2.004  10.675  17.147  0.00  0.00    +0.000 C 
ATOM     22  C   UNL     1      -2.548  10.360  18.493  0.00  0.00    +0.000 C 
BRANCH  20  23
ATOM     23  C   UNL     1      -0.066  10.135  18.919  0.00  0.00    +0.000 A 
ATOM     24  C   UNL     1      -0.052   9.782  20.284  0.00  0.00    +0.000 A 
ATOM     25  C   UNL     1       0.858   8.854  20.787  0.00  0.00    +0.000 A 
ATOM     26  C   UNL     1       1.799   8.284  19.937  0.00  0.00    +0.000 A 
ATOM     27  C   UNL     1       1.860   8.669  18.594  0.00  0.00    +0.000 A 
ATOM     28  C   UNL     1       2.869   8.058  17.671  0.00  0.00    +0.000 C 
ATOM     29  C   UNL     1       0.921   9.583  18.096  0.00  0.00    +0.000 A 
ENDBRANCH  20  23
ENDBRANCH   6  20
TORSDOF 3
ENDMDL
MODEL 8
REMARK VINA RESULT:      -7.3      5.038      8.399
REMARK  Name = 
REMARK  5 active torsions:
REMARK  status: ('A' for Active; 'I' for Inactive)
REMARK    1  A    between atoms: C_1  and  C_2
REMARK    2  A    between atoms: C_7  and  C_9
REMARK    3  A    between atoms: C_14  and  C_16
REMARK    4  A    between atoms: C_16  and  C_17
REMARK    5  A    between atoms: C_21  and  C_22
REMARK                            x       y       z     vdW  Elec       q    Type
REMARK                         _______ _______ _______ _____ _____    ______ ____
ROOT
ATOM      1  C   UNL     1       1.486   9.120  21.811  0.00  0.00    +0.000 C 
ATOM      2  C   UNL     1       0.164   8.975  22.581  0.00  0.00    +0.000 C 
ATOM      3  C   UNL     1      -0.995   9.753  21.955  0.00  0.00    +0.000 C 
ATOM      4  C   UNL     1      -0.602  11.194  21.626  0.00  0.00    +0.000 C 
ATOM      5  N   UNL     1       0.599  11.208  20.791  0.00  0.00    +0.000 N 
ATOM      6  C   UNL     1       0.741  11.835  19.549  0.00  0.00    +0.000 C 
ATOM      7  O   UNL     1       1.765  11.726  18.880  0.00  0.00    +0.000 OA
ATOM      8  C   UNL     1       1.768  10.570  21.409  0.00  0.00    +0.000 C 
ENDROOT
BRANCH   1  15
ATOM      9  C   UNL     1       2.583   2.324  17.731  0.00  0.00    +0.000 C 
ATOM     10  C   UNL     1       2.227   3.468  18.624  0.00  0.00    +0.000 A 
ATOM     11  C   UNL     1       2.021   3.306  19.988  0.00  0.00    +0.000 A 
ATOM     12  C   UNL     1       1.782   4.431  20.778  0.00  0.00    +0.000 A 
ATOM     13  C   UNL     1       1.775   5.692  20.195  0.00  0.00    +0.000 A 
ATOM     14  N   UNL     1       1.617   6.793  21.039  0.00  0.00    +0.000 N 
ATOM     15  C   UNL     1       1.577   8.118  20.660  0.00  0.00    +0.000 C 
ATOM     16  O   UNL     1       1.687   8.548  19.512  0.00  0.00    +0.000 OA
ATOM     17  N   UNL     1       1.953   5.861  18.877  0.00  0.00    +0.000 NA
ATOM     18  C   UNL     1       2.168   4.763  18.121  0.00  0.00    +0.000 A 
ATOM     19  H   UNL     1       1.469   6.589  22.016  0.00  0.00    +0.000 HD
ENDBRANCH   1  15
BRANCH   6  20
ATOM     20  C   UNL     1      -0.422  12.592  18.961  0.00  0.00    +0.000 C 
ATOM     21  C   UNL     1      -0.157  14.016  18.472  0.00  0.00    +0.000 C 
ATOM     22  C   UNL     1      -0.964  13.831  19.705  0.00  0.00    +0.000 C 
BRANCH  20  23
ATOM     23  C   UNL     1      -1.562  11.734  18.425  0.00  0.00    +0.000 A 
ATOM     24  C   UNL     1      -1.282  10.562  17.694  0.00  0.00    +0.000 A 
ATOM     25  C   UNL     1      -2.294   9.685  17.307  0.00  0.00    +0.000 A 
ATOM     26  C   UNL     1      -3.616   9.984  17.615  0.00  0.00    +0.000 A 
ATOM     27  C   UNL     1      -3.934  11.176  18.274  0.00  0.00    +0.000 A 
ATOM     28  C   UNL     1      -5.356  11.504  18.613  0.00  0.00    +0.000 C 
ATOM     29  C   UNL     1      -2.904  12.034  18.681  0.00  0.00    +0.000 A 
ENDBRANCH  20  23
ENDBRANCH   6  20
TORSDOF 3
ENDMDL
MODEL 9
REMARK VINA RESULT:      -7.2      8.731     12.442
REMARK  Name = 
REMARK  5 active torsions:
REMARK  status: ('A' for Active; 'I' for Inactive)
REMARK    1  A    between atoms: C_1  and  C_2
REMARK    2  A    between atoms: C_7  and  C_9
REMARK    3  A    between atoms: C_14  and  C_16
REMARK    4  A    between atoms: C_16  and  C_17
REMARK    5  A    between atoms: C_21  and  C_22
REMARK                            x       y       z     vdW  Elec       q    Type
REMARK                         _______ _______ _______ _____ _____    ______ ____
ROOT
ATOM      1  C   UNL     1      -6.671  12.627  17.641  0.00  0.00    +0.000 C 
ATOM      2  C   UNL     1      -6.623  14.159  17.521  0.00  0.00    +0.000 C 
ATOM      3  C   UNL     1      -6.414  14.870  18.859  0.00  0.00    +0.000 C 
ATOM      4  C   UNL     1      -7.362  14.345  19.937  0.00  0.00    +0.000 C 
ATOM      5  N   UNL     1      -7.237  12.891  20.049  0.00  0.00    +0.000 N 
ATOM      6  C   UNL     1      -6.955  12.168  21.212  0.00  0.00    +0.000 C 
ATOM      7  O   UNL     1      -6.788  10.951  21.196  0.00  0.00    +0.000 OA
ATOM      8  C   UNL     1      -7.544  12.164  18.810  0.00  0.00    +0.000 C 
ENDROOT
BRANCH   1  15
ATOM      9  C   UNL     1       0.966  11.104  19.481  0.00  0.00    +0.000 C 
ATOM     10  C   UNL     1      -0.503  11.344  19.365  0.00  0.00    +0.000 A 
ATOM     11  C   UNL     1      -1.229  11.987  20.359  0.00  0.00    +0.000 A 
ATOM     12  C   UNL     1      -2.581  12.261  20.146  0.00  0.00    +0.000 A 
ATOM     13  C   UNL     1      -3.172  11.908  18.940  0.00  0.00    +0.000 A 
ATOM     14  N   UNL     1      -4.503  12.279  18.740  0.00  0.00    +0.000 N 
ATOM     15  C   UNL     1      -5.268  12.020  17.622  0.00  0.00    +0.000 C 
ATOM     16  O   UNL     1      -4.896  11.427  16.609  0.00  0.00    +0.000 OA
ATOM     17  N   UNL     1      -2.488  11.270  17.979  0.00  0.00    +0.000 NA
ATOM     18  C   UNL     1      -1.185  10.997  18.204  0.00  0.00    +0.000 A 
ATOM     19  H   UNL     1      -4.959  12.739  19.513  0.00  0.00    +0.000 HD
ENDBRANCH   1  15
BRANCH   6  20
ATOM     20  C   UNL     1      -6.753  12.901  22.513  0.00  0.00    +0.000 C 
ATOM     21  C   UNL     1      -7.769  12.645  23.627  0.00  0.00    +0.000 C 
ATOM     22  C   UNL     1      -7.787  13.964  22.943  0.00  0.00    +0.000 C 
BRANCH  20  23
ATOM     23  C   UNL     1      -5.332  13.379  22.785  0.00  0.00    +0.000 A 
ATOM     24  C   UNL     1      -4.485  12.636  23.632  0.00  0.00    +0.000 A 
ATOM     25  C   UNL     1      -3.142  12.970  23.795  0.00  0.00    +0.000 A 
ATOM     26  C   UNL     1      -2.627  14.082  23.139  0.00  0.00    +0.000 A 
ATOM     27  C   UNL     1      -3.459  14.884  22.352  0.00  0.00    +0.000 A 
ATOM     28  C   UNL     1      -2.910  16.082  21.638  0.00  0.00    +0.000 C 
ATOM     29  C   UNL     1      -4.800  14.520  22.174  0.00  0.00    +0.000 A 
ENDBRANCH  20  23
ENDBRANCH   6  20
TORSDOF 3
ENDMDL
