MODEL 1
REMARK VINA RESULT:      -9.0      0.000      0.000
REMARK  Name = 
REMARK  5 active torsions:
REMARK  status: ('A' for Active; 'I' for Inactive)
REMARK    1  A    between atoms: C_2  and  C_4
REMARK    2  A    between atoms: C_6  and  N_7
REMARK    3  A    between atoms: C_8  and  C_10
REMARK    4  A    between atoms: C_10  and  N_11
REMARK    5  A    between atoms: N_14  and  C_15
REMARK                            x       y       z     vdW  Elec       q    Type
REMARK                         _______ _______ _______ _____ _____    ______ ____
ROOT
ATOM      1  C   UNL     1       8.024   5.848  18.546  0.00  0.00    +0.000 C 
ENDROOT
BRANCH   1   2
ATOM      2  N   UNL     1       6.931   5.121  17.955  0.00  0.00    +0.000 N 
ATOM      3  C   UNL     1       5.735   4.819  18.638  0.00  0.00    +0.000 A 
ATOM      4  O   UNL     1       5.535   5.052  19.823  0.00  0.00    +0.000 OA
ATOM      5  N   UNL     1       4.863   4.211  17.678  0.00  0.00    +0.000 N 
ATOM      6  C   UNL     1       5.509   4.251  16.426  0.00  0.00    +0.000 A 
ATOM      7  C   UNL     1       5.019   3.941  15.171  0.00  0.00    +0.000 A 
ATOM      8  C   UNL     1       5.848   4.182  14.072  0.00  0.00    +0.000 A 
ATOM      9  C   UNL     1       7.136   4.722  14.247  0.00  0.00    +0.000 A 
ATOM     10  C   UNL     1       7.615   5.042  15.522  0.00  0.00    +0.000 A 
ATOM     11  C   UNL     1       6.776   4.811  16.595  0.00  0.00    +0.000 A 
BRANCH   5  12
ATOM     12  C   UNL     1       3.587   3.756  17.950  0.00  0.00    +0.000 C 
ATOM     13  C   UNL     1       2.522   4.562  17.802  0.00  0.00    +0.000 C 
ATOM     14  C   UNL     1       1.116   4.140  18.105  0.00  0.00    +0.000 C 
ATOM     15  C   UNL     1       1.050   2.899  18.995  0.00  0.00    +0.000 C 
ATOM     16  C   UNL     1       2.011   1.824  18.501  0.00  0.00    +0.000 C 
ATOM     17  C   UNL     1       3.455   2.334  18.453  0.00  0.00    +0.000 C 
ENDBRANCH   5  12
ENDBRANCH   1   2
BRANCH   1  19
ATOM     18  N   UNL     1       8.791   8.163  18.902  0.00  0.00    +0.000 N 
ATOM     19  C   UNL     1       7.882   7.337  18.250  0.00  0.00    +0.000 C 
ATOM     20  O   UNL     1       6.971   7.708  17.511  0.00  0.00    +0.000 OA
ATOM     21  H   UNL     1       9.458   7.721  19.527  0.00  0.00    +0.000 HD
BRANCH  18  24
ATOM     22  C   UNL     1       9.483  11.792  19.678  0.00  0.00    +0.000 A 
ATOM     23  C   UNL     1       9.435  10.388  19.790  0.00  0.00    +0.000 A 
ATOM     24  C   UNL     1       8.841   9.584  18.807  0.00  0.00    +0.000 A 
ATOM     25  C   UNL     1       8.286  10.213  17.693  0.00  0.00    +0.000 A 
ATOM     26  C   UNL     1       8.333  11.613  17.565  0.00  0.00    +0.000 A 
ATOM     27  C   UNL     1       8.938  12.402  18.547  0.00  0.00    +0.000 A 
ATOM     28 CL   UNL     1       9.002  14.105  18.243  0.00  0.00    +0.000 Cl
BRANCH  22  30
ATOM     29  N   UNL     1       9.632  12.354  22.049  0.00  0.00    +0.000 N 
ATOM     30  C   UNL     1      10.140  12.519  20.795  0.00  0.00    +0.000 C 
ATOM     31  O   UNL     1      11.126  13.229  20.611  0.00  0.00    +0.000 OA
ATOM     32  H   UNL     1       9.992  12.956  22.777  0.00  0.00    +0.000 HD
ATOM     33  H   UNL     1       8.745  11.892  22.208  0.00  0.00    +0.000 HD
ENDBRANCH  22  30
ENDBRANCH  18  24
ENDBRANCH   1  19
TORSDOF 5
ENDMDL
MODEL 2
REMARK VINA RESULT:      -8.8      7.364     10.434
REMARK  Name = 
REMARK  5 active torsions:
REMARK  status: ('A' for Active; 'I' for Inactive)
REMARK    1  A    between atoms: C_2  and  C_4
REMARK    2  A    between atoms: C_6  and  N_7
REMARK    3  A    between atoms: C_8  and  C_10
REMARK    4  A    between atoms: C_10  and  N_11
REMARK    5  A    between atoms: N_14  and  C_15
REMARK                            x       y       z     vdW  Elec       q    Type
REMARK                         _______ _______ _______ _____ _____    ______ ____
ROOT
ATOM      1  C   UNL     1       1.533   9.959  18.120  0.00  0.00    +0.000 C 
ENDROOT
BRANCH   1   2
ATOM      2  N   UNL     1       0.393  10.574  18.746  0.00  0.00    +0.000 N 
ATOM      3  C   UNL     1       0.491  11.530  19.778  0.00  0.00    +0.000 A 
ATOM      4  O   UNL     1       1.539  11.866  20.315  0.00  0.00    +0.000 OA
ATOM      5  N   UNL     1      -0.842  11.988  20.035  0.00  0.00    +0.000 N 
ATOM      6  C   UNL     1      -1.694  11.376  19.093  0.00  0.00    +0.000 A 
ATOM      7  C   UNL     1      -3.029  11.616  18.826  0.00  0.00    +0.000 A 
ATOM      8  C   UNL     1      -3.608  10.940  17.747  0.00  0.00    +0.000 A 
ATOM      9  C   UNL     1      -2.849  10.048  16.967  0.00  0.00    +0.000 A 
ATOM     10  C   UNL     1      -1.495   9.824  17.242  0.00  0.00    +0.000 A 
ATOM     11  C   UNL     1      -0.936  10.512  18.302  0.00  0.00    +0.000 A 
BRANCH   5  12
ATOM     12  C   UNL     1      -1.182  12.927  20.989  0.00  0.00    +0.000 C 
ATOM     13  C   UNL     1      -1.226  14.235  20.684  0.00  0.00    +0.000 C 
ATOM     14  C   UNL     1      -1.560  15.306  21.677  0.00  0.00    +0.000 C 
ATOM     15  C   UNL     1      -1.415  14.838  23.124  0.00  0.00    +0.000 C 
ATOM     16  C   UNL     1      -2.065  13.474  23.322  0.00  0.00    +0.000 C 
ATOM     17  C   UNL     1      -1.464  12.418  22.387  0.00  0.00    +0.000 C 
ENDBRANCH   5  12
ENDBRANCH   1   2
BRANCH   1  19
ATOM     18  N   UNL     1       2.444   7.673  17.984  0.00  0.00    +0.000 N 
ATOM     19  C   UNL     1       1.849   8.630  18.798  0.00  0.00    +0.000 C 
ATOM     20  O   UNL     1       1.525   8.477  19.975  0.00  0.00    +0.000 OA
ATOM     21  H   UNL     1       2.606   7.922  17.012  0.00  0.00    +0.000 HD
BRANCH  18  24
ATOM     22  C   UNL     1       2.234   4.051  19.029  0.00  0.00    +0.000 A 
ATOM     23  C   UNL     1       1.859   5.355  18.647  0.00  0.00    +0.000 A 
ATOM     24  C   UNL     1       2.807   6.353  18.379  0.00  0.00    +0.000 A 
ATOM     25  C   UNL     1       4.157   6.025  18.504  0.00  0.00    +0.000 A 
ATOM     26  C   UNL     1       4.546   4.726  18.879  0.00  0.00    +0.000 A 
ATOM     27  C   UNL     1       3.591   3.738  19.131  0.00  0.00    +0.000 A 
ATOM     28 CL   UNL     1       4.191   2.159  19.510  0.00  0.00    +0.000 Cl
BRANCH  22  30
ATOM     29  N   UNL     1       0.630   3.018  20.551  0.00  0.00    +0.000 N 
ATOM     30  C   UNL     1       1.126   3.096  19.284  0.00  0.00    +0.000 C 
ATOM     31  O   UNL     1       0.645   2.411  18.384  0.00  0.00    +0.000 OA
ATOM     32  H   UNL     1      -0.023   2.272  20.747  0.00  0.00    +0.000 HD
ATOM     33  H   UNL     1       1.094   3.462  21.333  0.00  0.00    +0.000 HD
ENDBRANCH  22  30
ENDBRANCH  18  24
ENDBRANCH   1  19
TORSDOF 5
ENDMDL
MODEL 3
REMARK VINA RESULT:      -8.8      7.394     10.273
REMARK  Name = 
REMARK  5 active torsions:
REMARK  status: ('A' for Active; 'I' for Inactive)
REMARK    1  A    between atoms: C_2  and  C_4
REMARK    2  A    between atoms: C_6  and  N_7
REMARK    3  A    between atoms: C_8  and  C_10
REMARK    4  A    between atoms: C_10  and  N_11
REMARK    5  A    between atoms: N_14  and  C_15
REMARK                            x       y       z     vdW  Elec       q    Type
REMARK                         _______ _______ _______ _____ _____    ______ ____
ROOT
ATOM      1  C   UNL     1       1.440   9.950  18.213  0.00  0.00    +0.000 C 
ENDROOT
BRANCH   1   2
ATOM      2  N   UNL     1       0.235  10.504  18.771  0.00  0.00    +0.000 N 
ATOM      3  C   UNL     1       0.220  11.421  19.843  0.00  0.00    +0.000 A 
ATOM      4  O   UNL     1       1.212  11.766  20.473  0.00  0.00    +0.000 OA
ATOM      5  N   UNL     1      -1.143  11.827  20.012  0.00  0.00    +0.000 N 
ATOM      6  C   UNL     1      -1.898  11.229  18.983  0.00  0.00    +0.000 A 
ATOM      7  C   UNL     1      -3.216  11.439  18.621  0.00  0.00    +0.000 A 
ATOM      8  C   UNL     1      -3.687  10.790  17.475  0.00  0.00    +0.000 A 
ATOM      9  C   UNL     1      -2.841   9.953  16.724  0.00  0.00    +0.000 A 
ATOM     10  C   UNL     1      -1.506   9.759  17.096  0.00  0.00    +0.000 A 
ATOM     11  C   UNL     1      -1.054  10.421  18.221  0.00  0.00    +0.000 A 
BRANCH   5  12
ATOM     12  C   UNL     1      -1.587  12.716  20.970  0.00  0.00    +0.000 C 
ATOM     13  C   UNL     1      -1.994  12.284  22.176  0.00  0.00    +0.000 C 
ATOM     14  C   UNL     1      -2.513  13.192  23.249  0.00  0.00    +0.000 C 
ATOM     15  C   UNL     1      -2.945  14.556  22.713  0.00  0.00    +0.000 C 
ATOM     16  C   UNL     1      -1.896  15.124  21.764  0.00  0.00    +0.000 C 
ATOM     17  C   UNL     1      -1.627  14.180  20.586  0.00  0.00    +0.000 C 
ENDBRANCH   5  12
ENDBRANCH   1   2
BRANCH   1  19
ATOM     18  N   UNL     1       2.534   7.742  18.201  0.00  0.00    +0.000 N 
ATOM     19  C   UNL     1       1.814   8.667  18.948  0.00  0.00    +0.000 C 
ATOM     20  O   UNL     1       1.427   8.516  20.106  0.00  0.00    +0.000 OA
ATOM     21  H   UNL     1       2.739   7.980  17.234  0.00  0.00    +0.000 HD
BRANCH  18  24
ATOM     22  C   UNL     1       2.668   4.414  19.978  0.00  0.00    +0.000 A 
ATOM     23  C   UNL     1       2.225   5.679  19.543  0.00  0.00    +0.000 A 
ATOM     24  C   UNL     1       2.973   6.465  18.656  0.00  0.00    +0.000 A 
ATOM     25  C   UNL     1       4.192   5.961  18.203  0.00  0.00    +0.000 A 
ATOM     26  C   UNL     1       4.644   4.698  18.623  0.00  0.00    +0.000 A 
ATOM     27  C   UNL     1       3.883   3.920  19.499  0.00  0.00    +0.000 A 
ATOM     28 CL   UNL     1       4.506   2.352  19.885  0.00  0.00    +0.000 Cl
BRANCH  22  30
ATOM     29  N   UNL     1       0.563   3.278  20.460  0.00  0.00    +0.000 N 
ATOM     30  C   UNL     1       1.776   3.692  20.921  0.00  0.00    +0.000 C 
ATOM     31  O   UNL     1       2.120   3.447  22.075  0.00  0.00    +0.000 OA
ATOM     32  H   UNL     1      -0.091   2.914  21.139  0.00  0.00    +0.000 HD
ATOM     33  H   UNL     1       0.199   3.585  19.566  0.00  0.00    +0.000 HD
ENDBRANCH  22  30
ENDBRANCH  18  24
ENDBRANCH   1  19
TORSDOF 5
ENDMDL
MODEL 4
REMARK VINA RESULT:      -8.8      7.312      9.933
REMARK  Name = 
REMARK  5 active torsions:
REMARK  status: ('A' for Active; 'I' for Inactive)
REMARK    1  A    between atoms: C_2  and  C_4
REMARK    2  A    between atoms: C_6  and  N_7
REMARK    3  A    between atoms: C_8  and  C_10
REMARK    4  A    between atoms: C_10  and  N_11
REMARK    5  A    between atoms: N_14  and  C_15
REMARK                            x       y       z     vdW  Elec       q    Type
REMARK                         _______ _______ _______ _____ _____    ______ ____
ROOT
ATOM      1  C   UNL     1       1.529  10.229  18.200  0.00  0.00    +0.000 C 
ENDROOT
BRANCH   1   2
ATOM      2  N   UNL     1       0.297  10.680  18.790  0.00  0.00    +0.000 N 
ATOM      3  C   UNL     1       0.236  11.564  19.888  0.00  0.00    +0.000 A 
ATOM      4  O   UNL     1       1.211  11.961  20.514  0.00  0.00    +0.000 OA
ATOM      5  N   UNL     1      -1.149  11.867  20.088  0.00  0.00    +0.000 N 
ATOM      6  C   UNL     1      -1.878  11.245  19.054  0.00  0.00    +0.000 A 
ATOM      7  C   UNL     1      -3.212  11.371  18.717  0.00  0.00    +0.000 A 
ATOM      8  C   UNL     1      -3.655  10.721  17.561  0.00  0.00    +0.000 A 
ATOM      9  C   UNL     1      -2.764   9.968  16.773  0.00  0.00    +0.000 A 
ATOM     10  C   UNL     1      -1.413   9.860  17.120  0.00  0.00    +0.000 A 
ATOM     11  C   UNL     1      -0.991  10.520  18.257  0.00  0.00    +0.000 A 
BRANCH   5  12
ATOM     12  C   UNL     1      -1.639  12.695  21.078  0.00  0.00    +0.000 C 
ATOM     13  C   UNL     1      -2.016  12.199  22.270  0.00  0.00    +0.000 C 
ATOM     14  C   UNL     1      -2.581  13.037  23.375  0.00  0.00    +0.000 C 
ATOM     15  C   UNL     1      -3.093  14.392  22.887  0.00  0.00    +0.000 C 
ATOM     16  C   UNL     1      -2.082  15.052  21.956  0.00  0.00    +0.000 C 
ATOM     17  C   UNL     1      -1.765  14.167  20.746  0.00  0.00    +0.000 C 
ENDBRANCH   5  12
ENDBRANCH   1   2
BRANCH   1  19
ATOM     18  N   UNL     1       2.490   8.001  17.766  0.00  0.00    +0.000 N 
ATOM     19  C   UNL     1       1.863   8.825  18.694  0.00  0.00    +0.000 C 
ATOM     20  O   UNL     1       1.525   8.505  19.833  0.00  0.00    +0.000 OA
ATOM     21  H   UNL     1       2.661   8.384  16.841  0.00  0.00    +0.000 HD
BRANCH  18  24
ATOM     22  C   UNL     1       4.576   4.905  18.333  0.00  0.00    +0.000 A 
ATOM     23  C   UNL     1       4.212   6.249  18.112  0.00  0.00    +0.000 A 
ATOM     24  C   UNL     1       2.874   6.646  17.983  0.00  0.00    +0.000 A 
ATOM     25  C   UNL     1       1.887   5.664  18.078  0.00  0.00    +0.000 A 
ATOM     26  C   UNL     1       2.235   4.321  18.306  0.00  0.00    +0.000 A 
ATOM     27  C   UNL     1       3.573   3.941  18.444  0.00  0.00    +0.000 A 
ATOM     28 CL   UNL     1       3.872   2.273  18.796  0.00  0.00    +0.000 Cl
BRANCH  22  30
ATOM     29  N   UNL     1       6.679   4.161  17.343  0.00  0.00    +0.000 N 
ATOM     30  C   UNL     1       6.030   4.627  18.447  0.00  0.00    +0.000 C 
ATOM     31  O   UNL     1       6.647   4.831  19.491  0.00  0.00    +0.000 OA
ATOM     32  H   UNL     1       7.630   3.843  17.465  0.00  0.00    +0.000 HD
ATOM     33  H   UNL     1       6.176   3.853  16.520  0.00  0.00    +0.000 HD
ENDBRANCH  22  30
ENDBRANCH  18  24
ENDBRANCH   1  19
TORSDOF 5
ENDMDL
MODEL 5
REMARK VINA RESULT:      -8.6      7.473     10.326
REMARK  Name = 
REMARK  5 active torsions:
REMARK  status: ('A' for Active; 'I' for Inactive)
REMARK    1  A    between atoms: C_2  and  C_4
REMARK    2  A    between atoms: C_6  and  N_7
REMARK    3  A    between atoms: C_8  and  C_10
REMARK    4  A    between atoms: C_10  and  N_11
REMARK    5  A    between atoms: N_14  and  C_15
REMARK                            x       y       z     vdW  Elec       q    Type
REMARK                         _______ _______ _______ _____ _____    ______ ____
ROOT
ATOM      1  C   UNL     1       1.630  10.053  18.754  0.00  0.00    +0.000 C 
ENDROOT
BRANCH   1   2
ATOM      2  N   UNL     1       0.392  10.578  19.265  0.00  0.00    +0.000 N 
ATOM      3  C   UNL     1       0.306  11.403  20.406  0.00  0.00    +0.000 A 
ATOM      4  O   UNL     1       1.250  11.679  21.135  0.00  0.00    +0.000 OA
ATOM      5  N   UNL     1      -1.062  11.815  20.507  0.00  0.00    +0.000 N 
ATOM      6  C   UNL     1      -1.744  11.316  19.378  0.00  0.00    +0.000 A 
ATOM      7  C   UNL     1      -3.028  11.577  18.938  0.00  0.00    +0.000 A 
ATOM      8  C   UNL     1      -3.417  11.032  17.710  0.00  0.00    +0.000 A 
ATOM      9  C   UNL     1      -2.525  10.248  16.956  0.00  0.00    +0.000 A 
ATOM     10  C   UNL     1      -1.224  10.002  17.408  0.00  0.00    +0.000 A 
ATOM     11  C   UNL     1      -0.852  10.561  18.616  0.00  0.00    +0.000 A 
BRANCH   5  12
ATOM     12  C   UNL     1      -1.569  12.628  21.501  0.00  0.00    +0.000 C 
ATOM     13  C   UNL     1      -1.514  13.967  21.392  0.00  0.00    +0.000 C 
ATOM     14  C   UNL     1      -2.019  14.905  22.445  0.00  0.00    +0.000 C 
ATOM     15  C   UNL     1      -2.190  14.231  23.806  0.00  0.00    +0.000 C 
ATOM     16  C   UNL     1      -2.903  12.891  23.662  0.00  0.00    +0.000 C 
ATOM     17  C   UNL     1      -2.149  11.945  22.721  0.00  0.00    +0.000 C 
ENDBRANCH   5  12
ENDBRANCH   1   2
BRANCH   1  19
ATOM     18  N   UNL     1       2.472   7.774  18.337  0.00  0.00    +0.000 N 
ATOM     19  C   UNL     1       1.828   8.619  19.234  0.00  0.00    +0.000 C 
ATOM     20  O   UNL     1       1.378   8.298  20.334  0.00  0.00    +0.000 OA
ATOM     21  H   UNL     1       2.743   8.166  17.439  0.00  0.00    +0.000 HD
BRANCH  18  24
ATOM     22  C   UNL     1       2.449   4.286  19.781  0.00  0.00    +0.000 A 
ATOM     23  C   UNL     1       2.174   5.656  19.592  0.00  0.00    +0.000 A 
ATOM     24  C   UNL     1       2.745   6.392  18.545  0.00  0.00    +0.000 A 
ATOM     25  C   UNL     1       3.612   5.729  17.675  0.00  0.00    +0.000 A 
ATOM     26  C   UNL     1       3.889   4.361  17.847  0.00  0.00    +0.000 A 
ATOM     27  C   UNL     1       3.304   3.637  18.888  0.00  0.00    +0.000 A 
ATOM     28 CL   UNL     1       3.662   1.945  18.953  0.00  0.00    +0.000 Cl
BRANCH  22  30
ATOM     29  N   UNL     1       0.593   2.997  20.703  0.00  0.00    +0.000 N 
ATOM     30  C   UNL     1       1.777   3.632  20.933  0.00  0.00    +0.000 C 
ATOM     31  O   UNL     1       2.274   3.635  22.057  0.00  0.00    +0.000 OA
ATOM     32  H   UNL     1       0.076   2.678  21.510  0.00  0.00    +0.000 HD
ATOM     33  H   UNL     1       0.096   3.098  19.828  0.00  0.00    +0.000 HD
ENDBRANCH  22  30
ENDBRANCH  18  24
ENDBRANCH   1  19
TORSDOF 5
ENDMDL
MODEL 6
REMARK VINA RESULT:      -8.6      5.158      7.906
REMARK  Name = 
REMARK  5 active torsions:
REMARK  status: ('A' for Active; 'I' for Inactive)
REMARK    1  A    between atoms: C_2  and  C_4
REMARK    2  A    between atoms: C_6  and  N_7
REMARK    3  A    between atoms: C_8  and  C_10
REMARK    4  A    between atoms: C_10  and  N_11
REMARK    5  A    between atoms: N_14  and  C_15
REMARK                            x       y       z     vdW  Elec       q    Type
REMARK                         _______ _______ _______ _____ _____    ______ ____
ROOT
ATOM      1  C   UNL     1       5.601   4.086  18.523  0.00  0.00    +0.000 C 
ENDROOT
BRANCH   1   2
ATOM      2  N   UNL     1       4.440   4.750  19.053  0.00  0.00    +0.000 N 
ATOM      3  C   UNL     1       4.116   6.095  18.777  0.00  0.00    +0.000 A 
ATOM      4  O   UNL     1       4.829   6.864  18.144  0.00  0.00    +0.000 OA
ATOM      5  N   UNL     1       2.837   6.335  19.375  0.00  0.00    +0.000 N 
ATOM      6  C   UNL     1       2.377   5.114  19.908  0.00  0.00    +0.000 A 
ATOM      7  C   UNL     1       1.140   4.793  20.435  0.00  0.00    +0.000 A 
ATOM      8  C   UNL     1       0.911   3.460  20.790  0.00  0.00    +0.000 A 
ATOM      9  C   UNL     1       1.911   2.486  20.613  0.00  0.00    +0.000 A 
ATOM     10  C   UNL     1       3.155   2.824  20.067  0.00  0.00    +0.000 A 
ATOM     11  C   UNL     1       3.358   4.142  19.708  0.00  0.00    +0.000 A 
BRANCH   5  12
ATOM     12  C   UNL     1       2.166   7.542  19.341  0.00  0.00    +0.000 C 
ATOM     13  C   UNL     1       1.664   8.084  20.464  0.00  0.00    +0.000 C 
ATOM     14  C   UNL     1       0.902   9.373  20.492  0.00  0.00    +0.000 C 
ATOM     15  C   UNL     1       0.376   9.780  19.116  0.00  0.00    +0.000 C 
ATOM     16  C   UNL     1       1.460   9.631  18.054  0.00  0.00    +0.000 C 
ATOM     17  C   UNL     1       1.993   8.196  17.986  0.00  0.00    +0.000 C 
ENDBRANCH   5  12
ENDBRANCH   1   2
BRANCH   1  19
ATOM     18  N   UNL     1       6.680   4.412  16.331  0.00  0.00    +0.000 N 
ATOM     19  C   UNL     1       5.523   4.031  17.001  0.00  0.00    +0.000 C 
ATOM     20  O   UNL     1       4.458   3.706  16.477  0.00  0.00    +0.000 OA
ATOM     21  H   UNL     1       7.471   4.708  16.896  0.00  0.00    +0.000 HD
BRANCH  18  24
ATOM     22  C   UNL     1       6.284   3.726  12.640  0.00  0.00    +0.000 A 
ATOM     23  C   UNL     1       6.118   3.653  14.038  0.00  0.00    +0.000 A 
ATOM     24  C   UNL     1       6.842   4.469  14.917  0.00  0.00    +0.000 A 
ATOM     25  C   UNL     1       7.753   5.374  14.371  0.00  0.00    +0.000 A 
ATOM     26  C   UNL     1       7.924   5.464  12.978  0.00  0.00    +0.000 A 
ATOM     27  C   UNL     1       7.186   4.652  12.112  0.00  0.00    +0.000 A 
ATOM     28 CL   UNL     1       7.429   4.905  10.417  0.00  0.00    +0.000 Cl
BRANCH  22  30
ATOM     29  N   UNL     1       5.967   1.572  11.537  0.00  0.00    +0.000 N 
ATOM     30  C   UNL     1       5.453   2.800  11.828  0.00  0.00    +0.000 C 
ATOM     31  O   UNL     1       4.326   3.110  11.447  0.00  0.00    +0.000 OA
ATOM     32  H   UNL     1       5.460   1.005  10.872  0.00  0.00    +0.000 HD
ATOM     33  H   UNL     1       6.937   1.345  11.715  0.00  0.00    +0.000 HD
ENDBRANCH  22  30
ENDBRANCH  18  24
ENDBRANCH   1  19
TORSDOF 5
ENDMDL
MODEL 7
REMARK VINA RESULT:      -8.5      7.258      9.770
REMARK  Name = 
REMARK  5 active torsions:
REMARK  status: ('A' for Active; 'I' for Inactive)
REMARK    1  A    between atoms: C_2  and  C_4
REMARK    2  A    between atoms: C_6  and  N_7
REMARK    3  A    between atoms: C_8  and  C_10
REMARK    4  A    between atoms: C_10  and  N_11
REMARK    5  A    between atoms: N_14  and  C_15
REMARK                            x       y       z     vdW  Elec       q    Type
REMARK                         _______ _______ _______ _____ _____    ______ ____
ROOT
ATOM      1  C   UNL     1       1.421  10.101  18.034  0.00  0.00    +0.000 C 
ENDROOT
BRANCH   1   2
ATOM      2  N   UNL     1       0.220  10.573  18.671  0.00  0.00    +0.000 N 
ATOM      3  C   UNL     1       0.216  11.434  19.788  0.00  0.00    +0.000 A 
ATOM      4  O   UNL     1       1.220  11.791  20.392  0.00  0.00    +0.000 OA
ATOM      5  N   UNL     1      -1.154  11.771  20.036  0.00  0.00    +0.000 N 
ATOM      6  C   UNL     1      -1.929  11.192  19.012  0.00  0.00    +0.000 A 
ATOM      7  C   UNL     1      -3.269  11.362  18.718  0.00  0.00    +0.000 A 
ATOM      8  C   UNL     1      -3.764  10.750  17.562  0.00  0.00    +0.000 A 
ATOM      9  C   UNL     1      -2.919   9.990  16.732  0.00  0.00    +0.000 A 
ATOM     10  C   UNL     1      -1.561   9.837  17.036  0.00  0.00    +0.000 A 
ATOM     11  C   UNL     1      -1.087  10.460  18.174  0.00  0.00    +0.000 A 
BRANCH   5  12
ATOM     12  C   UNL     1      -1.591  12.591  21.057  0.00  0.00    +0.000 C 
ATOM     13  C   UNL     1      -1.799  13.902  20.848  0.00  0.00    +0.000 C 
ATOM     14  C   UNL     1      -2.246  14.851  21.918  0.00  0.00    +0.000 C 
ATOM     15  C   UNL     1      -2.020  14.303  23.327  0.00  0.00    +0.000 C 
ATOM     16  C   UNL     1      -2.495  12.859  23.431  0.00  0.00    +0.000 C 
ATOM     17  C   UNL     1      -1.784  11.954  22.417  0.00  0.00    +0.000 C 
ENDBRANCH   5  12
ENDBRANCH   1   2
BRANCH   1  19
ATOM     18  N   UNL     1       2.567   7.932  17.796  0.00  0.00    +0.000 N 
ATOM     19  C   UNL     1       1.845   8.767  18.641  0.00  0.00    +0.000 C 
ATOM     20  O   UNL     1       1.492   8.503  19.789  0.00  0.00    +0.000 OA
ATOM     21  H   UNL     1       2.740   8.261  16.850  0.00  0.00    +0.000 HD
BRANCH  18  24
ATOM     22  C   UNL     1       4.870   5.019  18.476  0.00  0.00    +0.000 A 
ATOM     23  C   UNL     1       4.411   6.309  18.142  0.00  0.00    +0.000 A 
ATOM     24  C   UNL     1       3.047   6.631  18.123  0.00  0.00    +0.000 A 
ATOM     25  C   UNL     1       2.132   5.627  18.445  0.00  0.00    +0.000 A 
ATOM     26  C   UNL     1       2.577   4.338  18.786  0.00  0.00    +0.000 A 
ATOM     27  C   UNL     1       3.940   4.034  18.813  0.00  0.00    +0.000 A 
ATOM     28 CL   UNL     1       4.369   2.435  19.320  0.00  0.00    +0.000 Cl
BRANCH  22  30
ATOM     29  N   UNL     1       7.045   5.134  19.577  0.00  0.00    +0.000 N 
ATOM     30  C   UNL     1       6.342   4.819  18.453  0.00  0.00    +0.000 C 
ATOM     31  O   UNL     1       6.916   4.359  17.468  0.00  0.00    +0.000 OA
ATOM     32  H   UNL     1       8.054   5.128  19.508  0.00  0.00    +0.000 HD
ATOM     33  H   UNL     1       6.623   5.641  20.345  0.00  0.00    +0.000 HD
ENDBRANCH  22  30
ENDBRANCH  18  24
ENDBRANCH   1  19
TORSDOF 5
ENDMDL
MODEL 8
REMARK VINA RESULT:      -8.5      7.932     10.785
REMARK  Name = 
REMARK  5 active torsions:
REMARK  status: ('A' for Active; 'I' for Inactive)
REMARK    1  A    between atoms: C_2  and  C_4
REMARK    2  A    between atoms: C_6  and  N_7
REMARK    3  A    between atoms: C_8  and  C_10
REMARK    4  A    between atoms: C_10  and  N_11
REMARK    5  A    between atoms: N_14  and  C_15
REMARK                            x       y       z     vdW  Elec       q    Type
REMARK                         _______ _______ _______ _____ _____    ______ ____
ROOT
ATOM      1  C   UNL     1       1.319   9.860  21.032  0.00  0.00    +0.000 C 
ENDROOT
BRANCH   1   2
ATOM      2  N   UNL     1       0.057  10.526  20.845  0.00  0.00    +0.000 N 
ATOM      3  C   UNL     1      -0.500  11.420  21.783  0.00  0.00    +0.000 A 
ATOM      4  O   UNL     1      -0.025  11.650  22.888  0.00  0.00    +0.000 OA
ATOM      5  N   UNL     1      -1.679  11.962  21.176  0.00  0.00    +0.000 N 
ATOM      6  C   UNL     1      -1.751  11.463  19.860  0.00  0.00    +0.000 A 
ATOM      7  C   UNL     1      -2.604  11.814  18.830  0.00  0.00    +0.000 A 
ATOM      8  C   UNL     1      -2.381  11.237  17.576  0.00  0.00    +0.000 A 
ATOM      9  C   UNL     1      -1.322  10.331  17.379  0.00  0.00    +0.000 A 
ATOM     10  C   UNL     1      -0.460   9.994  18.428  0.00  0.00    +0.000 A 
ATOM     11  C   UNL     1      -0.686  10.585  19.656  0.00  0.00    +0.000 A 
BRANCH   5  12
ATOM     12  C   UNL     1      -2.524  12.875  21.775  0.00  0.00    +0.000 C 
ATOM     13  C   UNL     1      -3.582  12.467  22.496  0.00  0.00    +0.000 C 
ATOM     14  C   UNL     1      -4.553  13.404  23.146  0.00  0.00    +0.000 C 
ATOM     15  C   UNL     1      -4.492  14.816  22.566  0.00  0.00    +0.000 C 
ATOM     16  C   UNL     1      -3.048  15.287  22.431  0.00  0.00    +0.000 C 
ATOM     17  C   UNL     1      -2.224  14.342  21.549  0.00  0.00    +0.000 C 
ENDBRANCH   5  12
ENDBRANCH   1   2
BRANCH   1  19
ATOM     18  N   UNL     1       2.162   7.742  20.094  0.00  0.00    +0.000 N 
ATOM     19  C   UNL     1       1.153   8.358  20.827  0.00  0.00    +0.000 C 
ATOM     20  O   UNL     1       0.144   7.810  21.269  0.00  0.00    +0.000 OA
ATOM     21  H   UNL     1       2.911   8.332  19.744  0.00  0.00    +0.000 HD
BRANCH  18  24
ATOM     22  C   UNL     1       2.223   3.976  20.349  0.00  0.00    +0.000 A 
ATOM     23  C   UNL     1       2.176   5.339  20.707  0.00  0.00    +0.000 A 
ATOM     24  C   UNL     1       2.215   6.361  19.749  0.00  0.00    +0.000 A 
ATOM     25  C   UNL     1       2.304   5.997  18.405  0.00  0.00    +0.000 A 
ATOM     26  C   UNL     1       2.344   4.641  18.033  0.00  0.00    +0.000 A 
ATOM     27  C   UNL     1       2.293   3.632  18.998  0.00  0.00    +0.000 A 
ATOM     28 CL   UNL     1       2.273   2.002  18.415  0.00  0.00    +0.000 Cl
BRANCH  22  30
ATOM     29  N   UNL     1       0.963   2.724  22.024  0.00  0.00    +0.000 N 
ATOM     30  C   UNL     1       2.176   3.000  21.468  0.00  0.00    +0.000 C 
ATOM     31  O   UNL     1       3.189   2.432  21.871  0.00  0.00    +0.000 OA
ATOM     32  H   UNL     1       0.957   2.171  22.869  0.00  0.00    +0.000 HD
ATOM     33  H   UNL     1       0.141   3.275  21.809  0.00  0.00    +0.000 HD
ENDBRANCH  22  30
ENDBRANCH  18  24
ENDBRANCH   1  19
TORSDOF 5
ENDMDL
MODEL 9
REMARK VINA RESULT:      -8.4      5.152      7.861
REMARK  Name = 
REMARK  5 active torsions:
REMARK  status: ('A' for Active; 'I' for Inactive)
REMARK    1  A    between atoms: C_2  and  C_4
REMARK    2  A    between atoms: C_6  and  N_7
REMARK    3  A    between atoms: C_8  and  C_10
REMARK    4  A    between atoms: C_10  and  N_11
REMARK    5  A    between atoms: N_14  and  C_15
REMARK                            x       y       z     vdW  Elec       q    Type
REMARK                         _______ _______ _______ _____ _____    ______ ____
ROOT
ATOM      1  C   UNL     1       5.690   4.114  18.516  0.00  0.00    +0.000 C 
ENDROOT
BRANCH   1   2
ATOM      2  N   UNL     1       4.518   4.773  19.030  0.00  0.00    +0.000 N 
ATOM      3  C   UNL     1       4.153   6.092  18.691  0.00  0.00    +0.000 A 
ATOM      4  O   UNL     1       4.835   6.847  18.009  0.00  0.00    +0.000 OA
ATOM      5  N   UNL     1       2.876   6.328  19.296  0.00  0.00    +0.000 N 
ATOM      6  C   UNL     1       2.457   5.124  19.896  0.00  0.00    +0.000 A 
ATOM      7  C   UNL     1       1.237   4.796  20.457  0.00  0.00    +0.000 A 
ATOM      8  C   UNL     1       1.050   3.478  20.883  0.00  0.00    +0.000 A 
ATOM      9  C   UNL     1       2.075   2.523  20.740  0.00  0.00    +0.000 A 
ATOM     10  C   UNL     1       3.301   2.866  20.159  0.00  0.00    +0.000 A 
ATOM     11  C   UNL     1       3.463   4.170  19.731  0.00  0.00    +0.000 A 
BRANCH   5  12
ATOM     12  C   UNL     1       2.172   7.513  19.211  0.00  0.00    +0.000 C 
ATOM     13  C   UNL     1       1.960   8.106  18.024  0.00  0.00    +0.000 C 
ATOM     14  C   UNL     1       1.228   9.404  17.866  0.00  0.00    +0.000 C 
ATOM     15  C   UNL     1       1.137  10.194  19.170  0.00  0.00    +0.000 C 
ATOM     16  C   UNL     1       0.716   9.292  20.324  0.00  0.00    +0.000 C 
ATOM     17  C   UNL     1       1.688   8.121  20.511  0.00  0.00    +0.000 C 
ENDBRANCH   5  12
ENDBRANCH   1   2
BRANCH   1  19
ATOM     18  N   UNL     1       6.725   4.501  16.313  0.00  0.00    +0.000 N 
ATOM     19  C   UNL     1       5.613   4.020  16.996  0.00  0.00    +0.000 C 
ATOM     20  O   UNL     1       4.584   3.581  16.483  0.00  0.00    +0.000 OA
ATOM     21  H   UNL     1       7.483   4.885  16.869  0.00  0.00    +0.000 HD
BRANCH  18  24
ATOM     22  C   UNL     1       6.286   3.798  12.630  0.00  0.00    +0.000 A 
ATOM     23  C   UNL     1       6.129   3.737  14.029  0.00  0.00    +0.000 A 
ATOM     24  C   UNL     1       6.877   4.545  14.897  0.00  0.00    +0.000 A 
ATOM     25  C   UNL     1       7.800   5.429  14.338  0.00  0.00    +0.000 A 
ATOM     26  C   UNL     1       7.961   5.505  12.943  0.00  0.00    +0.000 A 
ATOM     27  C   UNL     1       7.201   4.702  12.089  0.00  0.00    +0.000 A 
ATOM     28 CL   UNL     1       7.435   4.939  10.390  0.00  0.00    +0.000 Cl
BRANCH  22  30
ATOM     29  N   UNL     1       4.193   3.321  11.469  0.00  0.00    +0.000 N 
ATOM     30  C   UNL     1       5.431   2.882  11.831  0.00  0.00    +0.000 C 
ATOM     31  O   UNL     1       5.826   1.773  11.480  0.00  0.00    +0.000 OA
ATOM     32  H   UNL     1       3.568   2.646  11.050  0.00  0.00    +0.000 HD
ATOM     33  H   UNL     1       3.791   4.164  11.858  0.00  0.00    +0.000 HD
ENDBRANCH  22  30
ENDBRANCH  18  24
ENDBRANCH   1  19
TORSDOF 5
ENDMDL
