MODEL 1
REMARK VINA RESULT:      -8.8      0.000      0.000
REMARK  Name = 
REMARK  4 active torsions:
REMARK  status: ('A' for Active; 'I' for Inactive)
REMARK    1  A    between atoms: C_7  and  N_8
REMARK    2  A    between atoms: N_8  and  C_9
REMARK    3  A    between atoms: C_9  and  C_10
REMARK    4  A    between atoms: C_12  and  C_13
REMARK                            x       y       z     vdW  Elec       q    Type
REMARK                         _______ _______ _______ _____ _____    ______ ____
ROOT
ATOM      1  N   UNL     1       4.879   5.772  16.389  0.00  0.00    +0.000 N 
ATOM      2  H   UNL     1       4.320   6.385  15.797  0.00  0.00    +0.000 HD
ENDROOT
BRANCH   1   9
ATOM      3  O   UNL     1       1.182   2.708  22.314  0.00  0.00    +0.000 OA
ATOM      4  C   UNL     1       2.061   3.088  21.544  0.00  0.00    +0.000 C 
ATOM      5  C   UNL     1       3.309   2.282  21.276  0.00  0.00    +0.000 C 
ATOM      6  C   UNL     1       3.751   2.387  19.828  0.00  0.00    +0.000 C 
ATOM      7  C   UNL     1       3.701   3.802  19.324  0.00  0.00    +0.000 A 
ATOM      8  C   UNL     1       4.407   4.155  18.166  0.00  0.00    +0.000 A 
ATOM      9  C   UNL     1       4.322   5.440  17.618  0.00  0.00    +0.000 A 
ATOM     10  C   UNL     1       3.497   6.367  18.284  0.00  0.00    +0.000 A 
ATOM     11  F   UNL     1       3.375   7.608  17.790  0.00  0.00    +0.000 F 
ATOM     12  C   UNL     1       2.759   6.026  19.417  0.00  0.00    +0.000 A 
ATOM     13  C   UNL     1       2.848   4.733  19.920  0.00  0.00    +0.000 A 
ATOM     14  N   UNL     1       2.016   4.331  20.969  0.00  0.00    +0.000 N 
ATOM     15  H   UNL     1       1.251   4.925  21.264  0.00  0.00    +0.000 HD
ENDBRANCH   1   9
BRANCH   1  16
ATOM     16  C   UNL     1       6.322   5.801  16.166  0.00  0.00    +0.000 C 
BRANCH  16  17
ATOM     17  C   UNL     1       7.087   6.718  17.055  0.00  0.00    +0.000 A 
ATOM     18  N   UNL     1       7.292   8.012  16.955  0.00  0.00    +0.000 NA
ATOM     19  C   UNL     1       8.083   8.270  18.053  0.00  0.00    +0.000 A 
ATOM     20  N   UNL     1       8.334   7.191  18.813  0.00  0.00    +0.000 NA
ATOM     21  O   UNL     1       7.672   6.160  18.151  0.00  0.00    +0.000 OA
BRANCH  19  22
ATOM     22  C   UNL     1       8.576   9.609  18.343  0.00  0.00    +0.000 A 
ATOM     23  C   UNL     1       9.462   9.847  19.408  0.00  0.00    +0.000 A 
ATOM     24  C   UNL     1       9.908  11.144  19.685  0.00  0.00    +0.000 A 
ATOM     25  C   UNL     1       9.465  12.202  18.898  0.00  0.00    +0.000 A 
ATOM     26  F   UNL     1       9.881  13.445  19.175  0.00  0.00    +0.000 F 
ATOM     27  C   UNL     1       8.600  11.975  17.836  0.00  0.00    +0.000 A 
ATOM     28  F   UNL     1       8.179  12.996  17.078  0.00  0.00    +0.000 F 
ATOM     29  C   UNL     1       8.156  10.689  17.551  0.00  0.00    +0.000 A 
ENDBRANCH  19  22
ENDBRANCH  16  17
ENDBRANCH   1  16
TORSDOF 4
ENDMDL
MODEL 2
REMARK VINA RESULT:      -8.8      2.149      2.736
REMARK  Name = 
REMARK  4 active torsions:
REMARK  status: ('A' for Active; 'I' for Inactive)
REMARK    1  A    between atoms: C_7  and  N_8
REMARK    2  A    between atoms: N_8  and  C_9
REMARK    3  A    between atoms: C_9  and  C_10
REMARK    4  A    between atoms: C_12  and  C_13
REMARK                            x       y       z     vdW  Elec       q    Type
REMARK                         _______ _______ _______ _____ _____    ______ ____
ROOT
ATOM      1  N   UNL     1       7.114   4.949  17.691  0.00  0.00    +0.000 N 
ATOM      2  H   UNL     1       7.544   5.040  16.772  0.00  0.00    +0.000 HD
ENDROOT
BRANCH   1   9
ATOM      3  O   UNL     1       0.105   2.273  19.059  0.00  0.00    +0.000 OA
ATOM      4  C   UNL     1       1.081   3.009  18.940  0.00  0.00    +0.000 C 
ATOM      5  C   UNL     1       1.374   4.131  19.907  0.00  0.00    +0.000 C 
ATOM      6  C   UNL     1       2.862   4.293  20.152  0.00  0.00    +0.000 C 
ATOM      7  C   UNL     1       3.654   4.235  18.876  0.00  0.00    +0.000 A 
ATOM      8  C   UNL     1       4.966   4.727  18.846  0.00  0.00    +0.000 A 
ATOM      9  C   UNL     1       5.764   4.619  17.701  0.00  0.00    +0.000 A 
ATOM     10  C   UNL     1       5.190   3.995  16.576  0.00  0.00    +0.000 A 
ATOM     11  F   UNL     1       5.919   3.859  15.459  0.00  0.00    +0.000 F 
ATOM     12  C   UNL     1       3.899   3.468  16.596  0.00  0.00    +0.000 A 
ATOM     13  C   UNL     1       3.142   3.571  17.759  0.00  0.00    +0.000 A 
ATOM     14  N   UNL     1       1.902   2.933  17.846  0.00  0.00    +0.000 N 
ATOM     15  H   UNL     1       1.619   2.277  17.128  0.00  0.00    +0.000 HD
ENDBRANCH   1   9
BRANCH   1  16
ATOM     16  C   UNL     1       7.743   5.699  18.775  0.00  0.00    +0.000 C 
BRANCH  16  17
ATOM     17  C   UNL     1       8.025   7.131  18.480  0.00  0.00    +0.000 A 
ATOM     18  N   UNL     1       8.765   7.996  19.135  0.00  0.00    +0.000 NA
ATOM     19  C   UNL     1       8.609   9.143  18.387  0.00  0.00    +0.000 A 
ATOM     20  N   UNL     1       7.830   8.987  17.303  0.00  0.00    +0.000 NA
ATOM     21  O   UNL     1       7.442   7.652  17.364  0.00  0.00    +0.000 OA
BRANCH  19  22
ATOM     22  C   UNL     1       9.257  10.393  18.758  0.00  0.00    +0.000 A 
ATOM     23  C   UNL     1       9.804  11.250  17.786  0.00  0.00    +0.000 A 
ATOM     24  C   UNL     1      10.442  12.435  18.164  0.00  0.00    +0.000 A 
ATOM     25  C   UNL     1      10.536  12.763  19.513  0.00  0.00    +0.000 A 
ATOM     26  F   UNL     1      11.161  13.892  19.872  0.00  0.00    +0.000 F 
ATOM     27  C   UNL     1       9.989  11.929  20.478  0.00  0.00    +0.000 A 
ATOM     28  F   UNL     1      10.077  12.250  21.776  0.00  0.00    +0.000 F 
ATOM     29  C   UNL     1       9.348  10.751  20.111  0.00  0.00    +0.000 A 
ENDBRANCH  19  22
ENDBRANCH  16  17
ENDBRANCH   1  16
TORSDOF 4
ENDMDL
MODEL 3
REMARK VINA RESULT:      -8.7      1.895      2.192
REMARK  Name = 
REMARK  4 active torsions:
REMARK  status: ('A' for Active; 'I' for Inactive)
REMARK    1  A    between atoms: C_7  and  N_8
REMARK    2  A    between atoms: N_8  and  C_9
REMARK    3  A    between atoms: C_9  and  C_10
REMARK    4  A    between atoms: C_12  and  C_13
REMARK                            x       y       z     vdW  Elec       q    Type
REMARK                         _______ _______ _______ _____ _____    ______ ____
ROOT
ATOM      1  N   UNL     1       6.517   5.880  17.228  0.00  0.00    +0.000 N 
ATOM      2  H   UNL     1       6.502   6.363  16.331  0.00  0.00    +0.000 HD
ENDROOT
BRANCH   1   9
ATOM      3  O   UNL     1       0.010   2.110  18.492  0.00  0.00    +0.000 OA
ATOM      4  C   UNL     1       1.145   2.567  18.600  0.00  0.00    +0.000 C 
ATOM      5  C   UNL     1       2.292   1.766  19.166  0.00  0.00    +0.000 C 
ATOM      6  C   UNL     1       3.598   2.068  18.454  0.00  0.00    +0.000 C 
ATOM      7  C   UNL     1       3.801   3.542  18.246  0.00  0.00    +0.000 A 
ATOM      8  C   UNL     1       5.079   4.037  17.955  0.00  0.00    +0.000 A 
ATOM      9  C   UNL     1       5.296   5.391  17.675  0.00  0.00    +0.000 A 
ATOM     10  C   UNL     1       4.172   6.238  17.701  0.00  0.00    +0.000 A 
ATOM     11  F   UNL     1       4.327   7.542  17.429  0.00  0.00    +0.000 F 
ATOM     12  C   UNL     1       2.886   5.761  17.954  0.00  0.00    +0.000 A 
ATOM     13  C   UNL     1       2.703   4.405  18.203  0.00  0.00    +0.000 A 
ATOM     14  N   UNL     1       1.412   3.882  18.323  0.00  0.00    +0.000 N 
ATOM     15  H   UNL     1       0.611   4.453  18.084  0.00  0.00    +0.000 HD
ENDBRANCH   1   9
BRANCH   1  16
ATOM     16  C   UNL     1       7.593   6.252  18.143  0.00  0.00    +0.000 C 
BRANCH  16  17
ATOM     17  C   UNL     1       7.963   7.694  18.140  0.00  0.00    +0.000 A 
ATOM     18  N   UNL     1       8.854   8.337  18.861  0.00  0.00    +0.000 NA
ATOM     19  C   UNL     1       8.710   9.633  18.419  0.00  0.00    +0.000 A 
ATOM     20  N   UNL     1       7.791   9.783  17.450  0.00  0.00    +0.000 NA
ATOM     21  O   UNL     1       7.296   8.495  17.264  0.00  0.00    +0.000 OA
BRANCH  19  22
ATOM     22  C   UNL     1       9.509  10.721  18.966  0.00  0.00    +0.000 A 
ATOM     23  C   UNL     1       9.493  11.021  20.339  0.00  0.00    +0.000 A 
ATOM     24  C   UNL     1      10.250  12.084  20.843  0.00  0.00    +0.000 A 
ATOM     25  C   UNL     1      11.022  12.848  19.972  0.00  0.00    +0.000 A 
ATOM     26  F   UNL     1      11.733  13.875  20.455  0.00  0.00    +0.000 F 
ATOM     27  C   UNL     1      11.053  12.551  18.616  0.00  0.00    +0.000 A 
ATOM     28  F   UNL     1      11.800  13.286  17.782  0.00  0.00    +0.000 F 
ATOM     29  C   UNL     1      10.308  11.493  18.109  0.00  0.00    +0.000 A 
ENDBRANCH  19  22
ENDBRANCH  16  17
ENDBRANCH   1  16
TORSDOF 4
ENDMDL
MODEL 4
REMARK VINA RESULT:      -8.7      5.167      6.614
REMARK  Name = 
REMARK  4 active torsions:
REMARK  status: ('A' for Active; 'I' for Inactive)
REMARK    1  A    between atoms: C_7  and  N_8
REMARK    2  A    between atoms: N_8  and  C_9
REMARK    3  A    between atoms: C_9  and  C_10
REMARK    4  A    between atoms: C_12  and  C_13
REMARK                            x       y       z     vdW  Elec       q    Type
REMARK                         _______ _______ _______ _____ _____    ______ ____
ROOT
ATOM      1  N   UNL     1       3.199   4.009  18.958  0.00  0.00    +0.000 N 
ATOM      2  H   UNL     1       2.788   3.439  18.220  0.00  0.00    +0.000 HD
ENDROOT
BRANCH   1   9
ATOM      3  O   UNL     1       1.241  11.315  19.929  0.00  0.00    +0.000 OA
ATOM      4  C   UNL     1       1.339  10.171  19.492  0.00  0.00    +0.000 C 
ATOM      5  C   UNL     1       1.376   9.866  18.014  0.00  0.00    +0.000 C 
ATOM      6  C   UNL     1       2.317   8.719  17.696  0.00  0.00    +0.000 C 
ATOM      7  C   UNL     1       2.149   7.570  18.650  0.00  0.00    +0.000 A 
ATOM      8  C   UNL     1       2.642   6.303  18.310  0.00  0.00    +0.000 A 
ATOM      9  C   UNL     1       2.578   5.227  19.203  0.00  0.00    +0.000 A 
ATOM     10  C   UNL     1       1.993   5.472  20.461  0.00  0.00    +0.000 A 
ATOM     11  F   UNL     1       1.919   4.475  21.354  0.00  0.00    +0.000 F 
ATOM     12  C   UNL     1       1.528   6.733  20.832  0.00  0.00    +0.000 A 
ATOM     13  C   UNL     1       1.630   7.786  19.929  0.00  0.00    +0.000 A 
ATOM     14  N   UNL     1       1.298   9.084  20.326  0.00  0.00    +0.000 N 
ATOM     15  H   UNL     1       1.126   9.286  21.303  0.00  0.00    +0.000 HD
ENDBRANCH   1   9
BRANCH   1  16
ATOM     16  C   UNL     1       4.616   3.784  19.233  0.00  0.00    +0.000 C 
BRANCH  16  17
ATOM     17  C   UNL     1       5.541   4.091  18.107  0.00  0.00    +0.000 A 
ATOM     18  N   UNL     1       5.336   4.043  16.811  0.00  0.00    +0.000 NA
ATOM     19  C   UNL     1       6.562   4.412  16.305  0.00  0.00    +0.000 A 
ATOM     20  N   UNL     1       7.478   4.703  17.245  0.00  0.00    +0.000 NA
ATOM     21  O   UNL     1       6.800   4.490  18.442  0.00  0.00    +0.000 OA
BRANCH  19  22
ATOM     22  C   UNL     1       6.808   4.485  14.871  0.00  0.00    +0.000 A 
ATOM     23  C   UNL     1       7.769   5.362  14.338  0.00  0.00    +0.000 A 
ATOM     24  C   UNL     1       7.976   5.435  12.957  0.00  0.00    +0.000 A 
ATOM     25  C   UNL     1       7.219   4.631  12.108  0.00  0.00    +0.000 A 
ATOM     26  F   UNL     1       7.409   4.714  10.785  0.00  0.00    +0.000 F 
ATOM     27  C   UNL     1       6.277   3.753  12.627  0.00  0.00    +0.000 A 
ATOM     28  F   UNL     1       5.554   2.978  11.808  0.00  0.00    +0.000 F 
ATOM     29  C   UNL     1       6.070   3.672  13.999  0.00  0.00    +0.000 A 
ENDBRANCH  19  22
ENDBRANCH  16  17
ENDBRANCH   1  16
TORSDOF 4
ENDMDL
MODEL 5
REMARK VINA RESULT:      -8.5      1.827      2.267
REMARK  Name = 
REMARK  4 active torsions:
REMARK  status: ('A' for Active; 'I' for Inactive)
REMARK    1  A    between atoms: C_7  and  N_8
REMARK    2  A    between atoms: N_8  and  C_9
REMARK    3  A    between atoms: C_9  and  C_10
REMARK    4  A    between atoms: C_12  and  C_13
REMARK                            x       y       z     vdW  Elec       q    Type
REMARK                         _______ _______ _______ _____ _____    ______ ____
ROOT
ATOM      1  N   UNL     1       5.737   7.014  16.787  0.00  0.00    +0.000 N 
ATOM      2  H   UNL     1       5.476   7.956  16.498  0.00  0.00    +0.000 HD
ENDROOT
BRANCH   1   9
ATOM      3  O   UNL     1       0.230   2.033  18.523  0.00  0.00    +0.000 OA
ATOM      4  C   UNL     1       1.293   2.647  18.490  0.00  0.00    +0.000 C 
ATOM      5  C   UNL     1       2.632   1.961  18.617  0.00  0.00    +0.000 C 
ATOM      6  C   UNL     1       3.684   2.604  17.733  0.00  0.00    +0.000 C 
ATOM      7  C   UNL     1       3.648   4.104  17.813  0.00  0.00    +0.000 A 
ATOM      8  C   UNL     1       4.751   4.853  17.378  0.00  0.00    +0.000 A 
ATOM      9  C   UNL     1       4.727   6.252  17.361  0.00  0.00    +0.000 A 
ATOM     10  C   UNL     1       3.545   6.878  17.803  0.00  0.00    +0.000 A 
ATOM     11  F   UNL     1       3.471   8.217  17.794  0.00  0.00    +0.000 F 
ATOM     12  C   UNL     1       2.425   6.152  18.207  0.00  0.00    +0.000 A 
ATOM     13  C   UNL     1       2.475   4.763  18.188  0.00  0.00    +0.000 A 
ATOM     14  N   UNL     1       1.324   4.017  18.456  0.00  0.00    +0.000 N 
ATOM     15  H   UNL     1       0.425   4.479  18.518  0.00  0.00    +0.000 HD
ENDBRANCH   1   9
BRANCH   1  16
ATOM     16  C   UNL     1       7.148   6.804  17.099  0.00  0.00    +0.000 C 
BRANCH  16  17
ATOM     17  C   UNL     1       7.855   7.978  17.683  0.00  0.00    +0.000 A 
ATOM     18  N   UNL     1       7.951   9.210  17.239  0.00  0.00    +0.000 NA
ATOM     19  C   UNL     1       8.742   9.807  18.196  0.00  0.00    +0.000 A 
ATOM     20  N   UNL     1       9.097   8.989  19.201  0.00  0.00    +0.000 NA
ATOM     21  O   UNL     1       8.507   7.774  18.862  0.00  0.00    +0.000 OA
BRANCH  19  22
ATOM     22  C   UNL     1       9.130  11.208  18.103  0.00  0.00    +0.000 A 
ATOM     23  C   UNL     1       8.193  12.206  17.781  0.00  0.00    +0.000 A 
ATOM     24  C   UNL     1       8.589  13.543  17.675  0.00  0.00    +0.000 A 
ATOM     25  C   UNL     1       9.921  13.881  17.889  0.00  0.00    +0.000 A 
ATOM     26  F   UNL     1      10.300  15.161  17.772  0.00  0.00    +0.000 F 
ATOM     27  C   UNL     1      10.850  12.905  18.220  0.00  0.00    +0.000 A 
ATOM     28  F   UNL     1      12.132  13.235  18.429  0.00  0.00    +0.000 F 
ATOM     29  C   UNL     1      10.464  11.574  18.332  0.00  0.00    +0.000 A 
ENDBRANCH  19  22
ENDBRANCH  16  17
ENDBRANCH   1  16
TORSDOF 4
ENDMDL
MODEL 6
REMARK VINA RESULT:      -8.5      2.263      3.450
REMARK  Name = 
REMARK  4 active torsions:
REMARK  status: ('A' for Active; 'I' for Inactive)
REMARK    1  A    between atoms: C_7  and  N_8
REMARK    2  A    between atoms: N_8  and  C_9
REMARK    3  A    between atoms: C_9  and  C_10
REMARK    4  A    between atoms: C_12  and  C_13
REMARK                            x       y       z     vdW  Elec       q    Type
REMARK                         _______ _______ _______ _____ _____    ______ ____
ROOT
ATOM      1  N   UNL     1       5.080   5.069  17.075  0.00  0.00    +0.000 N 
ATOM      2  H   UNL     1       4.822   4.153  16.710  0.00  0.00    +0.000 HD
ENDROOT
BRANCH   1   9
ATOM      3  O   UNL     1       0.699   9.966  20.946  0.00  0.00    +0.000 OA
ATOM      4  C   UNL     1       1.136   9.202  20.090  0.00  0.00    +0.000 C 
ATOM      5  C   UNL     1       0.967   9.456  18.611  0.00  0.00    +0.000 C 
ATOM      6  C   UNL     1       2.186   9.022  17.819  0.00  0.00    +0.000 C 
ATOM      7  C   UNL     1       2.689   7.674  18.250  0.00  0.00    +0.000 A 
ATOM      8  C   UNL     1       3.549   6.950  17.414  0.00  0.00    +0.000 A 
ATOM      9  C   UNL     1       4.104   5.728  17.812  0.00  0.00    +0.000 A 
ATOM     10  C   UNL     1       3.758   5.254  19.092  0.00  0.00    +0.000 A 
ATOM     11  F   UNL     1       4.273   4.093  19.523  0.00  0.00    +0.000 F 
ATOM     12  C   UNL     1       2.932   5.976  19.954  0.00  0.00    +0.000 A 
ATOM     13  C   UNL     1       2.418   7.198  19.535  0.00  0.00    +0.000 A 
ATOM     14  N   UNL     1       1.703   8.001  20.429  0.00  0.00    +0.000 N 
ATOM     15  H   UNL     1       1.683   7.767  21.414  0.00  0.00    +0.000 HD
ENDBRANCH   1   9
BRANCH   1  16
ATOM     16  C   UNL     1       6.123   5.784  16.343  0.00  0.00    +0.000 C 
BRANCH  16  17
ATOM     17  C   UNL     1       6.955   6.710  17.159  0.00  0.00    +0.000 A 
ATOM     18  N   UNL     1       7.112   8.011  17.060  0.00  0.00    +0.000 NA
ATOM     19  C   UNL     1       8.012   8.276  18.069  0.00  0.00    +0.000 A 
ATOM     20  N   UNL     1       8.376   7.193  18.777  0.00  0.00    +0.000 NA
ATOM     21  O   UNL     1       7.674   6.153  18.174  0.00  0.00    +0.000 OA
BRANCH  19  22
ATOM     22  C   UNL     1       8.496   9.625  18.327  0.00  0.00    +0.000 A 
ATOM     23  C   UNL     1       8.135  10.702  17.499  0.00  0.00    +0.000 A 
ATOM     24  C   UNL     1       8.628  11.986  17.749  0.00  0.00    +0.000 A 
ATOM     25  C   UNL     1       9.484  12.193  18.827  0.00  0.00    +0.000 A 
ATOM     26  F   UNL     1       9.966  13.422  19.055  0.00  0.00    +0.000 F 
ATOM     27  C   UNL     1       9.837  11.138  19.657  0.00  0.00    +0.000 A 
ATOM     28  F   UNL     1      10.658  11.341  20.696  0.00  0.00    +0.000 F 
ATOM     29  C   UNL     1       9.347   9.859  19.418  0.00  0.00    +0.000 A 
ENDBRANCH  19  22
ENDBRANCH  16  17
ENDBRANCH   1  16
TORSDOF 4
ENDMDL
MODEL 7
REMARK VINA RESULT:      -8.5      6.632      8.781
REMARK  Name = 
REMARK  4 active torsions:
REMARK  status: ('A' for Active; 'I' for Inactive)
REMARK    1  A    between atoms: C_7  and  N_8
REMARK    2  A    between atoms: N_8  and  C_9
REMARK    3  A    between atoms: C_9  and  C_10
REMARK    4  A    between atoms: C_12  and  C_13
REMARK                            x       y       z     vdW  Elec       q    Type
REMARK                         _______ _______ _______ _____ _____    ______ ____
ROOT
ATOM      1  N   UNL     1       1.888   8.109  20.682  0.00  0.00    +0.000 N 
ATOM      2  H   UNL     1       2.697   8.457  21.196  0.00  0.00    +0.000 HD
ENDROOT
BRANCH   1   9
ATOM      3  O   UNL     1       3.652   1.110  18.221  0.00  0.00    +0.000 OA
ATOM      4  C   UNL     1       3.039   2.102  18.607  0.00  0.00    +0.000 C 
ATOM      5  C   UNL     1       1.844   2.011  19.526  0.00  0.00    +0.000 C 
ATOM      6  C   UNL     1       1.806   3.157  20.520  0.00  0.00    +0.000 C 
ATOM      7  C   UNL     1       2.098   4.479  19.868  0.00  0.00    +0.000 A 
ATOM      8  C   UNL     1       1.750   5.670  20.520  0.00  0.00    +0.000 A 
ATOM      9  C   UNL     1       2.076   6.922  19.985  0.00  0.00    +0.000 A 
ATOM     10  C   UNL     1       2.768   6.934  18.759  0.00  0.00    +0.000 A 
ATOM     11  F   UNL     1       3.112   8.109  18.212  0.00  0.00    +0.000 F 
ATOM     12  C   UNL     1       3.155   5.760  18.111  0.00  0.00    +0.000 A 
ATOM     13  C   UNL     1       2.836   4.534  18.684  0.00  0.00    +0.000 A 
ATOM     14  N   UNL     1       3.330   3.351  18.126  0.00  0.00    +0.000 N 
ATOM     15  H   UNL     1       4.035   3.390  17.400  0.00  0.00    +0.000 HD
ENDBRANCH   1   9
BRANCH   1  16
ATOM     16  C   UNL     1       0.906   9.109  20.273  0.00  0.00    +0.000 C 
BRANCH  16  17
ATOM     17  C   UNL     1       0.240   9.843  21.385  0.00  0.00    +0.000 A 
ATOM     18  N   UNL     1      -0.526  10.909  21.351  0.00  0.00    +0.000 NA
ATOM     19  C   UNL     1      -0.806  11.112  22.684  0.00  0.00    +0.000 A 
ATOM     20  N   UNL     1      -0.259  10.198  23.504  0.00  0.00    +0.000 NA
ATOM     21  O   UNL     1       0.435   9.355  22.642  0.00  0.00    +0.000 OA
BRANCH  19  22
ATOM     22  C   UNL     1      -1.635  12.223  23.131  0.00  0.00    +0.000 A 
ATOM     23  C   UNL     1      -1.136  13.537  23.176  0.00  0.00    +0.000 A 
ATOM     24  C   UNL     1      -1.940  14.587  23.629  0.00  0.00    +0.000 A 
ATOM     25  C   UNL     1      -3.244  14.323  24.039  0.00  0.00    +0.000 A 
ATOM     26  F   UNL     1      -4.007  15.329  24.488  0.00  0.00    +0.000 F 
ATOM     27  C   UNL     1      -3.749  13.031  23.988  0.00  0.00    +0.000 A 
ATOM     28  F   UNL     1      -5.005  12.781  24.380  0.00  0.00    +0.000 F 
ATOM     29  C   UNL     1      -2.957  11.982  23.533  0.00  0.00    +0.000 A 
ENDBRANCH  19  22
ENDBRANCH  16  17
ENDBRANCH   1  16
TORSDOF 4
ENDMDL
MODEL 8
REMARK VINA RESULT:      -8.4      2.051      3.001
REMARK  Name = 
REMARK  4 active torsions:
REMARK  status: ('A' for Active; 'I' for Inactive)
REMARK    1  A    between atoms: C_7  and  N_8
REMARK    2  A    between atoms: N_8  and  C_9
REMARK    3  A    between atoms: C_9  and  C_10
REMARK    4  A    between atoms: C_12  and  C_13
REMARK                            x       y       z     vdW  Elec       q    Type
REMARK                         _______ _______ _______ _____ _____    ______ ____
ROOT
ATOM      1  N   UNL     1       5.270   4.601  17.099  0.00  0.00    +0.000 N 
ATOM      2  H   UNL     1       5.002   3.697  16.711  0.00  0.00    +0.000 HD
ENDROOT
BRANCH   1   9
ATOM      3  O   UNL     1       0.923   9.456  21.060  0.00  0.00    +0.000 OA
ATOM      4  C   UNL     1       1.354   8.703  20.190  0.00  0.00    +0.000 C 
ATOM      5  C   UNL     1       1.184   8.983  18.716  0.00  0.00    +0.000 C 
ATOM      6  C   UNL     1       2.399   8.556  17.914  0.00  0.00    +0.000 C 
ATOM      7  C   UNL     1       2.896   7.198  18.322  0.00  0.00    +0.000 A 
ATOM      8  C   UNL     1       3.750   6.483  17.472  0.00  0.00    +0.000 A 
ATOM      9  C   UNL     1       4.299   5.252  17.849  0.00  0.00    +0.000 A 
ATOM     10  C   UNL     1       3.953   4.759  19.122  0.00  0.00    +0.000 A 
ATOM     11  F   UNL     1       4.462   3.589  19.533  0.00  0.00    +0.000 F 
ATOM     12  C   UNL     1       3.132   5.471  19.997  0.00  0.00    +0.000 A 
ATOM     13  C   UNL     1       2.624   6.703  19.600  0.00  0.00    +0.000 A 
ATOM     14  N   UNL     1       1.915   7.494  20.508  0.00  0.00    +0.000 N 
ATOM     15  H   UNL     1       1.896   7.245  21.489  0.00  0.00    +0.000 HD
ENDBRANCH   1   9
BRANCH   1  16
ATOM     16  C   UNL     1       6.324   5.321  16.389  0.00  0.00    +0.000 C 
BRANCH  16  17
ATOM     17  C   UNL     1       7.078   6.314  17.202  0.00  0.00    +0.000 A 
ATOM     18  N   UNL     1       7.204   7.612  17.043  0.00  0.00    +0.000 NA
ATOM     19  C   UNL     1       8.033   7.957  18.088  0.00  0.00    +0.000 A 
ATOM     20  N   UNL     1       8.382   6.924  18.874  0.00  0.00    +0.000 NA
ATOM     21  O   UNL     1       7.748   5.833  18.287  0.00  0.00    +0.000 OA
BRANCH  19  22
ATOM     22  C   UNL     1       8.463   9.332  18.302  0.00  0.00    +0.000 A 
ATOM     23  C   UNL     1       9.391   9.660  19.306  0.00  0.00    +0.000 A 
ATOM     24  C   UNL     1       9.775  10.989  19.511  0.00  0.00    +0.000 A 
ATOM     25  C   UNL     1       9.229  11.990  18.712  0.00  0.00    +0.000 A 
ATOM     26  F   UNL     1       9.588  13.264  18.921  0.00  0.00    +0.000 F 
ATOM     27  C   UNL     1       8.322  11.674  17.711  0.00  0.00    +0.000 A 
ATOM     28  F   UNL     1       7.802  12.640  16.941  0.00  0.00    +0.000 F 
ATOM     29  C   UNL     1       7.939  10.354  17.497  0.00  0.00    +0.000 A 
ENDBRANCH  19  22
ENDBRANCH  16  17
ENDBRANCH   1  16
TORSDOF 4
ENDMDL
MODEL 9
REMARK VINA RESULT:      -8.4      1.098      1.494
REMARK  Name = 
REMARK  4 active torsions:
REMARK  status: ('A' for Active; 'I' for Inactive)
REMARK    1  A    between atoms: C_7  and  N_8
REMARK    2  A    between atoms: N_8  and  C_9
REMARK    3  A    between atoms: C_9  and  C_10
REMARK    4  A    between atoms: C_12  and  C_13
REMARK                            x       y       z     vdW  Elec       q    Type
REMARK                         _______ _______ _______ _____ _____    ______ ____
ROOT
ATOM      1  N   UNL     1       4.573   6.871  16.927  0.00  0.00    +0.000 N 
ATOM      2  H   UNL     1       4.152   7.752  16.634  0.00  0.00    +0.000 HD
ENDROOT
BRANCH   1   9
ATOM      3  O   UNL     1       1.180   2.402  22.090  0.00  0.00    +0.000 OA
ATOM      4  C   UNL     1       2.015   3.034  21.448  0.00  0.00    +0.000 C 
ATOM      5  C   UNL     1       3.404   2.505  21.181  0.00  0.00    +0.000 C 
ATOM      6  C   UNL     1       3.899   2.890  19.799  0.00  0.00    +0.000 C 
ATOM      7  C   UNL     1       3.617   4.330  19.478  0.00  0.00    +0.000 A 
ATOM      8  C   UNL     1       4.309   4.962  18.436  0.00  0.00    +0.000 A 
ATOM      9  C   UNL     1       4.020   6.277  18.054  0.00  0.00    +0.000 A 
ATOM     10  C   UNL     1       3.002   6.941  18.765  0.00  0.00    +0.000 A 
ATOM     11  F   UNL     1       2.681   8.199  18.428  0.00  0.00    +0.000 F 
ATOM     12  C   UNL     1       2.278   6.320  19.782  0.00  0.00    +0.000 A 
ATOM     13  C   UNL     1       2.575   5.004  20.119  0.00  0.00    +0.000 A 
ATOM     14  N   UNL     1       1.774   4.319  21.037  0.00  0.00    +0.000 N 
ATOM     15  H   UNL     1       0.898   4.722  21.345  0.00  0.00    +0.000 HD
ENDBRANCH   1   9
BRANCH   1  16
ATOM     16  C   UNL     1       5.965   6.662  16.535  0.00  0.00    +0.000 C 
BRANCH  16  17
ATOM     17  C   UNL     1       6.975   7.381  17.359  0.00  0.00    +0.000 A 
ATOM     18  N   UNL     1       7.328   8.647  17.343  0.00  0.00    +0.000 NA
ATOM     19  C   UNL     1       8.312   8.689  18.307  0.00  0.00    +0.000 A 
ATOM     20  N   UNL     1       8.539   7.510  18.910  0.00  0.00    +0.000 NA
ATOM     21  O   UNL     1       7.651   6.642  18.282  0.00  0.00    +0.000 OA
BRANCH  19  22
ATOM     22  C   UNL     1       9.015   9.924  18.628  0.00  0.00    +0.000 A 
ATOM     23  C   UNL     1       9.554  10.742  17.619  0.00  0.00    +0.000 A 
ATOM     24  C   UNL     1      10.245  11.912  17.948  0.00  0.00    +0.000 A 
ATOM     25  C   UNL     1      10.399  12.263  19.286  0.00  0.00    +0.000 A 
ATOM     26  F   UNL     1      11.075  13.377  19.599  0.00  0.00    +0.000 F 
ATOM     27  C   UNL     1       9.860  11.468  20.288  0.00  0.00    +0.000 A 
ATOM     28  F   UNL     1      10.006  11.811  21.575  0.00  0.00    +0.000 F 
ATOM     29  C   UNL     1       9.166  10.306  19.969  0.00  0.00    +0.000 A 
ENDBRANCH  19  22
ENDBRANCH  16  17
ENDBRANCH   1  16
TORSDOF 4
ENDMDL
