MODEL 1
REMARK VINA RESULT:      -8.6      0.000      0.000
REMARK  Name = 
REMARK  4 active torsions:
REMARK  status: ('A' for Active; 'I' for Inactive)
REMARK    1  A    between atoms: C_2  and  C_3
REMARK    2  A    between atoms: C_3  and  C_4
REMARK    3  A    between atoms: N_10  and  C_11
REMARK    4  A    between atoms: C_13  and  C_14
REMARK                            x       y       z     vdW  Elec       q    Type
REMARK                         _______ _______ _______ _____ _____    ______ ____
ROOT
ATOM      1  C   UNL     1       6.766   5.161  17.839  0.00  0.00    +0.000 A 
ATOM      2  C   UNL     1       7.208   6.207  18.615  0.00  0.00    +0.000 A 
ATOM      3  C   UNL     1       7.734   7.153  17.707  0.00  0.00    +0.000 A 
ATOM      4  N   UNL     1       7.680   6.711  16.444  0.00  0.00    +0.000 NA
ATOM      5  N   UNL     1       7.136   5.488  16.559  0.00  0.00    +0.000 N 
ATOM      6  H   UNL     1       7.003   4.955  15.707  0.00  0.00    +0.000 HD
ENDROOT
BRANCH   3   7
ATOM      7  C   UNL     1       8.250   8.498  18.091  0.00  0.00    +0.000 A 
ATOM      8  C   UNL     1       8.076   9.673  17.384  0.00  0.00    +0.000 A 
ATOM      9  C   UNL     1       8.672  10.709  18.152  0.00  0.00    +0.000 A 
ATOM     10  C   UNL     1       8.806  12.102  18.028  0.00  0.00    +0.000 A 
ATOM     11  C   UNL     1       9.494  12.802  19.030  0.00  0.00    +0.000 A 
ATOM     12  C   UNL     1      10.045  12.136  20.128  0.00  0.00    +0.000 A 
ATOM     13  C   UNL     1       9.911  10.750  20.272  0.00  0.00    +0.000 A 
ATOM     14  C   UNL     1       9.214  10.085  19.269  0.00  0.00    +0.000 A 
ATOM     15  O   UNL     1       8.953   8.749  19.236  0.00  0.00    +0.000 OA
ENDBRANCH   3   7
BRANCH   1  18
ATOM     16  O   UNL     1       4.091   4.521  17.161  0.00  0.00    +0.000 OA
ATOM     17  C   UNL     1       4.721   3.740  17.858  0.00  0.00    +0.000 C 
ATOM     18  N   UNL     1       6.091   4.007  18.226  0.00  0.00    +0.000 N 
ATOM     19  H   UNL     1       6.601   3.305  18.748  0.00  0.00    +0.000 HD
BRANCH  17  20
ATOM     20  C   UNL     1       4.137   2.449  18.382  0.00  0.00    +0.000 C 
BRANCH  20  21
ATOM     21  C   UNL     1       3.147   2.615  19.501  0.00  0.00    +0.000 A 
ATOM     22  C   UNL     1       1.830   2.996  19.218  0.00  0.00    +0.000 A 
ATOM     23  C   UNL     1       0.927   3.211  20.258  0.00  0.00    +0.000 A 
ATOM     24  C   UNL     1       1.371   3.041  21.557  0.00  0.00    +0.000 A 
ATOM     25  N   UNL     1       2.635   2.689  21.868  0.00  0.00    +0.000 NA
ATOM     26  C   UNL     1       3.498   2.508  20.845  0.00  0.00    +0.000 A 
ENDBRANCH  20  21
ENDBRANCH  17  20
ENDBRANCH   1  18
TORSDOF 4
ENDMDL
MODEL 2
REMARK VINA RESULT:      -8.4      0.574      1.207
REMARK  Name = 
REMARK  4 active torsions:
REMARK  status: ('A' for Active; 'I' for Inactive)
REMARK    1  A    between atoms: C_2  and  C_3
REMARK    2  A    between atoms: C_3  and  C_4
REMARK    3  A    between atoms: N_10  and  C_11
REMARK    4  A    between atoms: C_13  and  C_14
REMARK                            x       y       z     vdW  Elec       q    Type
REMARK                         _______ _______ _______ _____ _____    ______ ____
ROOT
ATOM      1  C   UNL     1       6.660   5.158  17.719  0.00  0.00    +0.000 A 
ATOM      2  C   UNL     1       7.090   6.168  18.549  0.00  0.00    +0.000 A 
ATOM      3  C   UNL     1       7.652   7.142  17.694  0.00  0.00    +0.000 A 
ATOM      4  N   UNL     1       7.632   6.749  16.414  0.00  0.00    +0.000 NA
ATOM      5  N   UNL     1       7.073   5.529  16.465  0.00  0.00    +0.000 N 
ATOM      6  H   UNL     1       6.960   5.031  15.588  0.00  0.00    +0.000 HD
ENDROOT
BRANCH   3   7
ATOM      7  C   UNL     1       8.170   8.465  18.145  0.00  0.00    +0.000 A 
ATOM      8  C   UNL     1       8.902   8.708  19.292  0.00  0.00    +0.000 A 
ATOM      9  C   UNL     1       9.239  10.087  19.282  0.00  0.00    +0.000 A 
ATOM     10  C   UNL     1       9.982  10.947  20.109  0.00  0.00    +0.000 A 
ATOM     11  C   UNL     1      10.084  12.300  19.753  0.00  0.00    +0.000 A 
ATOM     12  C   UNL     1       9.456  12.793  18.606  0.00  0.00    +0.000 A 
ATOM     13  C   UNL     1       8.720  11.949  17.766  0.00  0.00    +0.000 A 
ATOM     14  C   UNL     1       8.647  10.611  18.139  0.00  0.00    +0.000 A 
ATOM     15  O   UNL     1       8.006   9.629  17.447  0.00  0.00    +0.000 OA
ENDBRANCH   3   7
BRANCH   1  18
ATOM     16  O   UNL     1       3.978   4.604  16.994  0.00  0.00    +0.000 OA
ATOM     17  C   UNL     1       4.590   3.775  17.651  0.00  0.00    +0.000 C 
ATOM     18  N   UNL     1       5.962   3.997  18.041  0.00  0.00    +0.000 N 
ATOM     19  H   UNL     1       6.456   3.258  18.527  0.00  0.00    +0.000 HD
BRANCH  17  20
ATOM     20  C   UNL     1       3.979   2.469  18.103  0.00  0.00    +0.000 C 
BRANCH  20  21
ATOM     21  C   UNL     1       3.075   2.578  19.299  0.00  0.00    +0.000 A 
ATOM     22  C   UNL     1       1.718   2.875  19.126  0.00  0.00    +0.000 A 
ATOM     23  C   UNL     1       0.892   3.037  20.236  0.00  0.00    +0.000 A 
ATOM     24  C   UNL     1       1.450   2.900  21.493  0.00  0.00    +0.000 A 
ATOM     25  N   UNL     1       2.755   2.629  21.700  0.00  0.00    +0.000 NA
ATOM     26  C   UNL     1       3.541   2.497  20.611  0.00  0.00    +0.000 A 
ENDBRANCH  20  21
ENDBRANCH  17  20
ENDBRANCH   1  18
TORSDOF 4
ENDMDL
MODEL 3
REMARK VINA RESULT:      -8.3      1.614      2.173
REMARK  Name = 
REMARK  4 active torsions:
REMARK  status: ('A' for Active; 'I' for Inactive)
REMARK    1  A    between atoms: C_2  and  C_3
REMARK    2  A    between atoms: C_3  and  C_4
REMARK    3  A    between atoms: N_10  and  C_11
REMARK    4  A    between atoms: C_13  and  C_14
REMARK                            x       y       z     vdW  Elec       q    Type
REMARK                         _______ _______ _______ _____ _____    ______ ____
ROOT
ATOM      1  C   UNL     1       7.102   6.515  18.095  0.00  0.00    +0.000 A 
ATOM      2  C   UNL     1       8.083   7.267  18.699  0.00  0.00    +0.000 A 
ATOM      3  C   UNL     1       8.085   8.503  18.015  0.00  0.00    +0.000 A 
ATOM      4  N   UNL     1       7.202   8.513  17.008  0.00  0.00    +0.000 NA
ATOM      5  N   UNL     1       6.659   7.285  17.050  0.00  0.00    +0.000 N 
ATOM      6  H   UNL     1       5.951   7.064  16.357  0.00  0.00    +0.000 HD
ENDROOT
BRANCH   3   7
ATOM      7  C   UNL     1       8.931   9.673  18.385  0.00  0.00    +0.000 A 
ATOM      8  C   UNL     1       9.275  10.061  19.666  0.00  0.00    +0.000 A 
ATOM      9  C   UNL     1      10.143  11.177  19.541  0.00  0.00    +0.000 A 
ATOM     10  C   UNL     1      10.861  11.997  20.428  0.00  0.00    +0.000 A 
ATOM     11  C   UNL     1      11.633  13.043  19.901  0.00  0.00    +0.000 A 
ATOM     12  C   UNL     1      11.686  13.277  18.524  0.00  0.00    +0.000 A 
ATOM     13  C   UNL     1      10.985  12.464  17.626  0.00  0.00    +0.000 A 
ATOM     14  C   UNL     1      10.239  11.428  18.178  0.00  0.00    +0.000 A 
ATOM     15  O   UNL     1       9.511  10.515  17.477  0.00  0.00    +0.000 OA
ENDBRANCH   3   7
BRANCH   1  18
ATOM     16  O   UNL     1       4.381   5.817  18.460  0.00  0.00    +0.000 OA
ATOM     17  C   UNL     1       5.232   4.955  18.618  0.00  0.00    +0.000 C 
ATOM     18  N   UNL     1       6.633   5.249  18.435  0.00  0.00    +0.000 N 
ATOM     19  H   UNL     1       7.304   4.493  18.510  0.00  0.00    +0.000 HD
BRANCH  17  20
ATOM     20  C   UNL     1       4.902   3.533  19.008  0.00  0.00    +0.000 C 
BRANCH  20  21
ATOM     21  C   UNL     1       3.432   3.234  19.108  0.00  0.00    +0.000 A 
ATOM     22  C   UNL     1       2.786   3.307  20.348  0.00  0.00    +0.000 A 
ATOM     23  C   UNL     1       1.439   2.971  20.454  0.00  0.00    +0.000 A 
ATOM     24  C   UNL     1       0.773   2.565  19.312  0.00  0.00    +0.000 A 
ATOM     25  N   UNL     1       1.364   2.469  18.104  0.00  0.00    +0.000 NA
ATOM     26  C   UNL     1       2.676   2.779  18.029  0.00  0.00    +0.000 A 
ENDBRANCH  20  21
ENDBRANCH  17  20
ENDBRANCH   1  18
TORSDOF 4
ENDMDL
MODEL 4
REMARK VINA RESULT:      -8.1      0.955      1.034
REMARK  Name = 
REMARK  4 active torsions:
REMARK  status: ('A' for Active; 'I' for Inactive)
REMARK    1  A    between atoms: C_2  and  C_3
REMARK    2  A    between atoms: C_3  and  C_4
REMARK    3  A    between atoms: N_10  and  C_11
REMARK    4  A    between atoms: C_13  and  C_14
REMARK                            x       y       z     vdW  Elec       q    Type
REMARK                         _______ _______ _______ _____ _____    ______ ____
ROOT
ATOM      1  C   UNL     1       7.108   5.631  18.023  0.00  0.00    +0.000 A 
ATOM      2  C   UNL     1       7.633   6.648  18.787  0.00  0.00    +0.000 A 
ATOM      3  C   UNL     1       7.981   7.665  17.870  0.00  0.00    +0.000 A 
ATOM      4  N   UNL     1       7.745   7.294  16.606  0.00  0.00    +0.000 NA
ATOM      5  N   UNL     1       7.265   6.045  16.725  0.00  0.00    +0.000 N 
ATOM      6  H   UNL     1       7.018   5.556  15.871  0.00  0.00    +0.000 HD
ENDROOT
BRANCH   3   7
ATOM      7  C   UNL     1       8.508   9.005  18.255  0.00  0.00    +0.000 A 
ATOM      8  C   UNL     1       8.407  10.167  17.513  0.00  0.00    +0.000 A 
ATOM      9  C   UNL     1       8.982  11.205  18.291  0.00  0.00    +0.000 A 
ATOM     10  C   UNL     1       9.160  12.592  18.145  0.00  0.00    +0.000 A 
ATOM     11  C   UNL     1       9.805  13.299  19.171  0.00  0.00    +0.000 A 
ATOM     12  C   UNL     1      10.272  12.645  20.314  0.00  0.00    +0.000 A 
ATOM     13  C   UNL     1      10.094  11.267  20.481  0.00  0.00    +0.000 A 
ATOM     14  C   UNL     1       9.441  10.595  19.453  0.00  0.00    +0.000 A 
ATOM     15  O   UNL     1       9.148   9.265  19.434  0.00  0.00    +0.000 OA
ENDBRANCH   3   7
BRANCH   1  18
ATOM     16  O   UNL     1       4.575   5.358  19.261  0.00  0.00    +0.000 OA
ATOM     17  C   UNL     1       5.244   4.354  19.072  0.00  0.00    +0.000 C 
ATOM     18  N   UNL     1       6.538   4.430  18.436  0.00  0.00    +0.000 N 
ATOM     19  H   UNL     1       7.034   3.569  18.236  0.00  0.00    +0.000 HD
BRANCH  17  20
ATOM     20  C   UNL     1       4.787   2.971  19.475  0.00  0.00    +0.000 C 
BRANCH  20  21
ATOM     21  C   UNL     1       3.300   2.822  19.633  0.00  0.00    +0.000 A 
ATOM     22  C   UNL     1       2.484   2.705  18.501  0.00  0.00    +0.000 A 
ATOM     23  C   UNL     1       1.100   2.628  18.643  0.00  0.00    +0.000 A 
ATOM     24  C   UNL     1       0.569   2.676  19.919  0.00  0.00    +0.000 A 
ATOM     25  N   UNL     1       1.321   2.803  21.031  0.00  0.00    +0.000 NA
ATOM     26  C   UNL     1       2.658   2.897  20.868  0.00  0.00    +0.000 A 
ENDBRANCH  20  21
ENDBRANCH  17  20
ENDBRANCH   1  18
TORSDOF 4
ENDMDL
MODEL 5
REMARK VINA RESULT:      -8.1      0.924      1.597
REMARK  Name = 
REMARK  4 active torsions:
REMARK  status: ('A' for Active; 'I' for Inactive)
REMARK    1  A    between atoms: C_2  and  C_3
REMARK    2  A    between atoms: C_3  and  C_4
REMARK    3  A    between atoms: N_10  and  C_11
REMARK    4  A    between atoms: C_13  and  C_14
REMARK                            x       y       z     vdW  Elec       q    Type
REMARK                         _______ _______ _______ _____ _____    ______ ____
ROOT
ATOM      1  C   UNL     1       6.545   5.188  17.718  0.00  0.00    +0.000 A 
ATOM      2  C   UNL     1       6.934   6.236  18.520  0.00  0.00    +0.000 A 
ATOM      3  C   UNL     1       7.592   7.143  17.659  0.00  0.00    +0.000 A 
ATOM      4  N   UNL     1       7.665   6.673  16.407  0.00  0.00    +0.000 NA
ATOM      5  N   UNL     1       7.069   5.472  16.483  0.00  0.00    +0.000 N 
ATOM      6  H   UNL     1       7.014   4.924  15.631  0.00  0.00    +0.000 HD
ENDROOT
BRANCH   3   7
ATOM      7  C   UNL     1       8.108   8.478  18.073  0.00  0.00    +0.000 A 
ATOM      8  C   UNL     1       8.907   8.742  19.170  0.00  0.00    +0.000 A 
ATOM      9  C   UNL     1       9.212  10.128  19.135  0.00  0.00    +0.000 A 
ATOM     10  C   UNL     1       9.988  11.007  19.910  0.00  0.00    +0.000 A 
ATOM     11  C   UNL     1      10.037  12.360  19.545  0.00  0.00    +0.000 A 
ATOM     12  C   UNL     1       9.325  12.836  18.441  0.00  0.00    +0.000 A 
ATOM     13  C   UNL     1       8.556  11.972  17.652  0.00  0.00    +0.000 A 
ATOM     14  C   UNL     1       8.537  10.634  18.031  0.00  0.00    +0.000 A 
ATOM     15  O   UNL     1       7.874   9.636  17.384  0.00  0.00    +0.000 OA
ENDBRANCH   3   7
BRANCH   1  18
ATOM     16  O   UNL     1       4.259   4.278  16.315  0.00  0.00    +0.000 OA
ATOM     17  C   UNL     1       4.626   3.656  17.300  0.00  0.00    +0.000 C 
ATOM     18  N   UNL     1       5.790   4.066  18.049  0.00  0.00    +0.000 N 
ATOM     19  H   UNL     1       6.102   3.486  18.819  0.00  0.00    +0.000 HD
BRANCH  17  20
ATOM     20  C   UNL     1       3.912   2.427  17.810  0.00  0.00    +0.000 C 
BRANCH  20  21
ATOM     21  C   UNL     1       2.973   2.675  18.958  0.00  0.00    +0.000 A 
ATOM     22  C   UNL     1       3.453   2.645  20.273  0.00  0.00    +0.000 A 
ATOM     23  C   UNL     1       2.574   2.814  21.341  0.00  0.00    +0.000 A 
ATOM     24  C   UNL     1       1.233   3.006  21.061  0.00  0.00    +0.000 A 
ATOM     25  N   UNL     1       0.732   3.028  19.809  0.00  0.00    +0.000 NA
ATOM     26  C   UNL     1       1.600   2.840  18.792  0.00  0.00    +0.000 A 
ENDBRANCH  20  21
ENDBRANCH  17  20
ENDBRANCH   1  18
TORSDOF 4
ENDMDL
MODEL 6
REMARK VINA RESULT:      -8.0      2.405      9.162
REMARK  Name = 
REMARK  4 active torsions:
REMARK  status: ('A' for Active; 'I' for Inactive)
REMARK    1  A    between atoms: C_2  and  C_3
REMARK    2  A    between atoms: C_3  and  C_4
REMARK    3  A    between atoms: N_10  and  C_11
REMARK    4  A    between atoms: C_13  and  C_14
REMARK                            x       y       z     vdW  Elec       q    Type
REMARK                         _______ _______ _______ _____ _____    ______ ____
ROOT
ATOM      1  C   UNL     1       7.819   7.929  17.991  0.00  0.00    +0.000 A 
ATOM      2  C   UNL     1       6.610   7.359  17.663  0.00  0.00    +0.000 A 
ATOM      3  C   UNL     1       6.531   6.177  18.433  0.00  0.00    +0.000 A 
ATOM      4  N   UNL     1       7.640   5.982  19.157  0.00  0.00    +0.000 NA
ATOM      5  N   UNL     1       8.419   7.028  18.834  0.00  0.00    +0.000 N 
ATOM      6  H   UNL     1       9.332   7.082  19.272  0.00  0.00    +0.000 HD
ENDROOT
BRANCH   3   7
ATOM      7  C   UNL     1       5.347   5.273  18.474  0.00  0.00    +0.000 A 
ATOM      8  C   UNL     1       4.072   5.574  18.032  0.00  0.00    +0.000 A 
ATOM      9  C   UNL     1       3.289   4.402  18.199  0.00  0.00    +0.000 A 
ATOM     10  C   UNL     1       1.963   4.030  17.919  0.00  0.00    +0.000 A 
ATOM     11  C   UNL     1       1.545   2.732  18.249  0.00  0.00    +0.000 A 
ATOM     12  C   UNL     1       2.420   1.824  18.852  0.00  0.00    +0.000 A 
ATOM     13  C   UNL     1       3.747   2.175  19.129  0.00  0.00    +0.000 A 
ATOM     14  C   UNL     1       4.135   3.464  18.779  0.00  0.00    +0.000 A 
ATOM     15  O   UNL     1       5.381   3.988  18.939  0.00  0.00    +0.000 OA
ENDBRANCH   3   7
BRANCH   1  18
ATOM     16  O   UNL     1       9.134   9.794  19.669  0.00  0.00    +0.000 OA
ATOM     17  C   UNL     1       9.006  10.062  18.484  0.00  0.00    +0.000 C 
ATOM     18  N   UNL     1       8.355   9.146  17.579  0.00  0.00    +0.000 N 
ATOM     19  H   UNL     1       8.327   9.373  16.591  0.00  0.00    +0.000 HD
BRANCH  17  20
ATOM     20  C   UNL     1       9.510  11.348  17.871  0.00  0.00    +0.000 C 
BRANCH  20  21
ATOM     21  C   UNL     1       8.698  12.567  18.209  0.00  0.00    +0.000 A 
ATOM     22  C   UNL     1       7.728  13.031  17.313  0.00  0.00    +0.000 A 
ATOM     23  C   UNL     1       7.016  14.195  17.596  0.00  0.00    +0.000 A 
ATOM     24  C   UNL     1       7.300  14.867  18.771  0.00  0.00    +0.000 A 
ATOM     25  N   UNL     1       8.237  14.458  19.651  0.00  0.00    +0.000 NA
ATOM     26  C   UNL     1       8.928  13.340  19.346  0.00  0.00    +0.000 A 
ENDBRANCH  20  21
ENDBRANCH  17  20
ENDBRANCH   1  18
TORSDOF 4
ENDMDL
MODEL 7
REMARK VINA RESULT:      -8.0      1.379      1.665
REMARK  Name = 
REMARK  4 active torsions:
REMARK  status: ('A' for Active; 'I' for Inactive)
REMARK    1  A    between atoms: C_2  and  C_3
REMARK    2  A    between atoms: C_3  and  C_4
REMARK    3  A    between atoms: N_10  and  C_11
REMARK    4  A    between atoms: C_13  and  C_14
REMARK                            x       y       z     vdW  Elec       q    Type
REMARK                         _______ _______ _______ _____ _____    ______ ____
ROOT
ATOM      1  C   UNL     1       7.216   6.212  18.238  0.00  0.00    +0.000 A 
ATOM      2  C   UNL     1       7.998   7.095  18.946  0.00  0.00    +0.000 A 
ATOM      3  C   UNL     1       8.145   8.223  18.108  0.00  0.00    +0.000 A 
ATOM      4  N   UNL     1       7.543   8.043  16.926  0.00  0.00    +0.000 NA
ATOM      5  N   UNL     1       7.033   6.804  17.014  0.00  0.00    +0.000 N 
ATOM      6  H   UNL     1       6.526   6.449  16.210  0.00  0.00    +0.000 HD
ENDROOT
BRANCH   3   7
ATOM      7  C   UNL     1       8.846   9.480  18.497  0.00  0.00    +0.000 A 
ATOM      8  C   UNL     1       9.259  10.484  17.641  0.00  0.00    +0.000 A 
ATOM      9  C   UNL     1       9.813  11.512  18.448  0.00  0.00    +0.000 A 
ATOM     10  C   UNL     1      10.361  12.786  18.218  0.00  0.00    +0.000 A 
ATOM     11  C   UNL     1      10.824  13.526  19.316  0.00  0.00    +0.000 A 
ATOM     12  C   UNL     1      10.754  13.012  20.614  0.00  0.00    +0.000 A 
ATOM     13  C   UNL     1      10.202  11.749  20.862  0.00  0.00    +0.000 A 
ATOM     14  C   UNL     1       9.741  11.045  19.755  0.00  0.00    +0.000 A 
ATOM     15  O   UNL     1       9.150   9.818  19.786  0.00  0.00    +0.000 OA
ENDBRANCH   3   7
BRANCH   1  18
ATOM     16  O   UNL     1       4.467   5.600  18.543  0.00  0.00    +0.000 OA
ATOM     17  C   UNL     1       5.290   4.730  18.785  0.00  0.00    +0.000 C 
ATOM     18  N   UNL     1       6.704   4.981  18.637  0.00  0.00    +0.000 N 
ATOM     19  H   UNL     1       7.352   4.216  18.782  0.00  0.00    +0.000 HD
BRANCH  17  20
ATOM     20  C   UNL     1       4.911   3.343  19.247  0.00  0.00    +0.000 C 
BRANCH  20  21
ATOM     21  C   UNL     1       3.433   3.066  19.260  0.00  0.00    +0.000 A 
ATOM     22  C   UNL     1       2.716   3.156  20.459  0.00  0.00    +0.000 A 
ATOM     23  C   UNL     1       1.359   2.841  20.485  0.00  0.00    +0.000 A 
ATOM     24  C   UNL     1       0.757   2.439  19.307  0.00  0.00    +0.000 A 
ATOM     25  N   UNL     1       1.418   2.326  18.137  0.00  0.00    +0.000 NA
ATOM     26  C   UNL     1       2.737   2.616  18.140  0.00  0.00    +0.000 A 
ENDBRANCH  20  21
ENDBRANCH  17  20
ENDBRANCH   1  18
TORSDOF 4
ENDMDL
MODEL 8
REMARK VINA RESULT:      -8.0      2.450      9.523
REMARK  Name = 
REMARK  4 active torsions:
REMARK  status: ('A' for Active; 'I' for Inactive)
REMARK    1  A    between atoms: C_2  and  C_3
REMARK    2  A    between atoms: C_3  and  C_4
REMARK    3  A    between atoms: N_10  and  C_11
REMARK    4  A    between atoms: C_13  and  C_14
REMARK                            x       y       z     vdW  Elec       q    Type
REMARK                         _______ _______ _______ _____ _____    ______ ____
ROOT
ATOM      1  C   UNL     1       7.875   8.147  17.940  0.00  0.00    +0.000 A 
ATOM      2  C   UNL     1       6.759   7.450  17.539  0.00  0.00    +0.000 A 
ATOM      3  C   UNL     1       6.759   6.266  18.309  0.00  0.00    +0.000 A 
ATOM      4  N   UNL     1       7.834   6.192  19.105  0.00  0.00    +0.000 NA
ATOM      5  N   UNL     1       8.513   7.317  18.825  0.00  0.00    +0.000 N 
ATOM      6  H   UNL     1       9.385   7.470  19.321  0.00  0.00    +0.000 HD
ENDROOT
BRANCH   3   7
ATOM      7  C   UNL     1       5.680   5.237  18.279  0.00  0.00    +0.000 A 
ATOM      8  C   UNL     1       4.632   5.178  17.381  0.00  0.00    +0.000 A 
ATOM      9  C   UNL     1       3.895   4.002  17.681  0.00  0.00    +0.000 A 
ATOM     10  C   UNL     1       2.773   3.353  17.140  0.00  0.00    +0.000 A 
ATOM     11  C   UNL     1       2.326   2.168  17.745  0.00  0.00    +0.000 A 
ATOM     12  C   UNL     1       2.972   1.642  18.867  0.00  0.00    +0.000 A 
ATOM     13  C   UNL     1       4.098   2.271  19.412  0.00  0.00    +0.000 A 
ATOM     14  C   UNL     1       4.524   3.437  18.784  0.00  0.00    +0.000 A 
ATOM     15  O   UNL     1       5.608   4.179  19.142  0.00  0.00    +0.000 OA
ENDBRANCH   3   7
BRANCH   1  18
ATOM     16  O   UNL     1       9.313   9.960  19.575  0.00  0.00    +0.000 OA
ATOM     17  C   UNL     1       9.022  10.301  18.438  0.00  0.00    +0.000 C 
ATOM     18  N   UNL     1       8.300   9.416  17.556  0.00  0.00    +0.000 N 
ATOM     19  H   UNL     1       8.136   9.708  16.600  0.00  0.00    +0.000 HD
BRANCH  17  20
ATOM     20  C   UNL     1       9.388  11.650  17.865  0.00  0.00    +0.000 C 
BRANCH  20  21
ATOM     21  C   UNL     1       9.882  12.649  18.874  0.00  0.00    +0.000 A 
ATOM     22  C   UNL     1       8.967  13.378  19.643  0.00  0.00    +0.000 A 
ATOM     23  C   UNL     1       9.421  14.348  20.534  0.00  0.00    +0.000 A 
ATOM     24  C   UNL     1      10.783  14.565  20.628  0.00  0.00    +0.000 A 
ATOM     25  N   UNL     1      11.693  13.894  19.893  0.00  0.00    +0.000 NA
ATOM     26  C   UNL     1      11.229  12.974  19.021  0.00  0.00    +0.000 A 
ENDBRANCH  20  21
ENDBRANCH  17  20
ENDBRANCH   1  18
TORSDOF 4
ENDMDL
MODEL 9
REMARK VINA RESULT:      -8.0      2.168      9.437
REMARK  Name = 
REMARK  4 active torsions:
REMARK  status: ('A' for Active; 'I' for Inactive)
REMARK    1  A    between atoms: C_2  and  C_3
REMARK    2  A    between atoms: C_3  and  C_4
REMARK    3  A    between atoms: N_10  and  C_11
REMARK    4  A    between atoms: C_13  and  C_14
REMARK                            x       y       z     vdW  Elec       q    Type
REMARK                         _______ _______ _______ _____ _____    ______ ____
ROOT
ATOM      1  C   UNL     1       7.482   7.395  17.952  0.00  0.00    +0.000 A 
ATOM      2  C   UNL     1       6.228   6.906  17.669  0.00  0.00    +0.000 A 
ATOM      3  C   UNL     1       6.070   5.774  18.500  0.00  0.00    +0.000 A 
ATOM      4  N   UNL     1       7.172   5.530  19.219  0.00  0.00    +0.000 NA
ATOM      5  N   UNL     1       8.024   6.494  18.832  0.00  0.00    +0.000 N 
ATOM      6  H   UNL     1       8.946   6.499  19.256  0.00  0.00    +0.000 HD
ENDROOT
BRANCH   3   7
ATOM      7  C   UNL     1       4.820   4.968  18.602  0.00  0.00    +0.000 A 
ATOM      8  C   UNL     1       4.453   3.920  17.779  0.00  0.00    +0.000 A 
ATOM      9  C   UNL     1       3.230   3.406  18.284  0.00  0.00    +0.000 A 
ATOM     10  C   UNL     1       2.368   2.348  17.948  0.00  0.00    +0.000 A 
ATOM     11  C   UNL     1       1.208   2.158  18.713  0.00  0.00    +0.000 A 
ATOM     12  C   UNL     1       0.903   3.002  19.784  0.00  0.00    +0.000 A 
ATOM     13  C   UNL     1       1.756   4.054  20.139  0.00  0.00    +0.000 A 
ATOM     14  C   UNL     1       2.904   4.211  19.369  0.00  0.00    +0.000 A 
ATOM     15  O   UNL     1       3.868   5.152  19.566  0.00  0.00    +0.000 OA
ENDBRANCH   3   7
BRANCH   1  18
ATOM     16  O   UNL     1       8.868   9.294  19.533  0.00  0.00    +0.000 OA
ATOM     17  C   UNL     1       8.787   9.483  18.329  0.00  0.00    +0.000 C 
ATOM     18  N   UNL     1       8.103   8.545  17.471  0.00  0.00    +0.000 N 
ATOM     19  H   UNL     1       8.115   8.701  16.470  0.00  0.00    +0.000 HD
BRANCH  17  20
ATOM     20  C   UNL     1       9.387  10.688  17.642  0.00  0.00    +0.000 C 
BRANCH  20  21
ATOM     21  C   UNL     1      10.024  11.687  18.568  0.00  0.00    +0.000 A 
ATOM     22  C   UNL     1       9.298  12.804  18.998  0.00  0.00    +0.000 A 
ATOM     23  C   UNL     1       9.906  13.762  19.806  0.00  0.00    +0.000 A 
ATOM     24  C   UNL     1      11.230  13.577  20.159  0.00  0.00    +0.000 A 
ATOM     25  N   UNL     1      11.965  12.521  19.753  0.00  0.00    +0.000 NA
ATOM     26  C   UNL     1      11.362  11.617  18.953  0.00  0.00    +0.000 A 
ENDBRANCH  20  21
ENDBRANCH  17  20
ENDBRANCH   1  18
TORSDOF 4
ENDMDL
