MODEL 1
REMARK VINA RESULT:      -9.1      0.000      0.000
REMARK  Name = 
REMARK  1 active torsions:
REMARK  status: ('A' for Active; 'I' for Inactive)
REMARK    1  A    between atoms: C_2  and  C_17
REMARK                            x       y       z     vdW  Elec       q    Type
REMARK                         _______ _______ _______ _____ _____    ______ ____
ROOT
ATOM      1  O   UNL     1       1.461   9.217  19.153  0.00  0.00    +0.000 OA
ATOM      2  C   UNL     1       1.224   8.824  20.295  0.00  0.00    +0.000 C 
ATOM      3  N   UNL     1       1.508   7.569  20.770  0.00  0.00    +0.000 N 
ATOM      4  C   UNL     1       2.177   6.642  20.006  0.00  0.00    +0.000 A 
ATOM      5  N   UNL     1       2.878   6.798  18.909  0.00  0.00    +0.000 NA
ATOM      6  C   UNL     1       3.379   5.566  18.472  0.00  0.00    +0.000 A 
ATOM      7  C   UNL     1       2.984   4.484  19.268  0.00  0.00    +0.000 A 
ATOM      8  C   UNL     1       3.341   3.162  18.972  0.00  0.00    +0.000 A 
ATOM      9  C   UNL     1       4.153   2.923  17.863  0.00  0.00    +0.000 A 
ATOM     10  C   UNL     1       4.609   3.966  17.057  0.00  0.00    +0.000 A 
ATOM     11  C   UNL     1       5.447   3.697  15.964  0.00  0.00    +0.000 A 
ATOM     12  C   UNL     1       5.919   4.728  15.152  0.00  0.00    +0.000 A 
ATOM     13  C   UNL     1       5.547   6.045  15.421  0.00  0.00    +0.000 A 
ATOM     14  C   UNL     1       4.708   6.335  16.502  0.00  0.00    +0.000 A 
ATOM     15  C   UNL     1       4.226   5.305  17.339  0.00  0.00    +0.000 A 
ATOM     16  S   UNL     1       2.056   5.055  20.606  0.00  0.00    +0.000 S 
ATOM     17  H   UNL     1       1.162   7.258  21.668  0.00  0.00    +0.000 HD
ENDROOT
BRANCH   2  18
ATOM     18  C   UNL     1       0.534   9.779  21.212  0.00  0.00    +0.000 A 
ATOM     19  C   UNL     1      -0.106   9.245  22.346  0.00  0.00    +0.000 A 
ATOM     20  C   UNL     1      -0.848  10.058  23.206  0.00  0.00    +0.000 A 
ATOM     21  C   UNL     1      -0.956  11.422  22.951  0.00  0.00    +0.000 A 
ATOM     22  C   UNL     1      -0.303  11.973  21.848  0.00  0.00    +0.000 A 
ATOM     23  C   UNL     1       0.441  11.154  20.989  0.00  0.00    +0.000 A 
ATOM     24  F   UNL     1       1.053  11.726  19.942  0.00  0.00    +0.000 F 
ENDBRANCH   2  18
TORSDOF 1
ENDMDL
MODEL 2
REMARK VINA RESULT:      -8.8      1.007      1.416
REMARK  Name = 
REMARK  1 active torsions:
REMARK  status: ('A' for Active; 'I' for Inactive)
REMARK    1  A    between atoms: C_2  and  C_17
REMARK                            x       y       z     vdW  Elec       q    Type
REMARK                         _______ _______ _______ _____ _____    ______ ____
ROOT
ATOM      1  O   UNL     1       1.279   9.394  19.061  0.00  0.00    +0.000 OA
ATOM      2  C   UNL     1       1.060   9.044  20.220  0.00  0.00    +0.000 C 
ATOM      3  N   UNL     1       1.394   7.823  20.751  0.00  0.00    +0.000 N 
ATOM      4  C   UNL     1       2.096   6.889  20.027  0.00  0.00    +0.000 A 
ATOM      5  N   UNL     1       2.789   7.022  18.921  0.00  0.00    +0.000 NA
ATOM      6  C   UNL     1       3.336   5.792  18.539  0.00  0.00    +0.000 A 
ATOM      7  C   UNL     1       2.985   4.733  19.384  0.00  0.00    +0.000 A 
ATOM      8  C   UNL     1       3.392   3.413  19.147  0.00  0.00    +0.000 A 
ATOM      9  C   UNL     1       4.211   3.156  18.047  0.00  0.00    +0.000 A 
ATOM     10  C   UNL     1       4.625   4.178  17.192  0.00  0.00    +0.000 A 
ATOM     11  C   UNL     1       5.470   3.892  16.111  0.00  0.00    +0.000 A 
ATOM     12  C   UNL     1       5.901   4.903  15.250  0.00  0.00    +0.000 A 
ATOM     13  C   UNL     1       5.479   6.216  15.461  0.00  0.00    +0.000 A 
ATOM     14  C   UNL     1       4.631   6.522  16.531  0.00  0.00    +0.000 A 
ATOM     15  C   UNL     1       4.191   5.513  17.416  0.00  0.00    +0.000 A 
ATOM     16  S   UNL     1       2.038   5.327  20.698  0.00  0.00    +0.000 S 
ATOM     17  H   UNL     1       1.061   7.540  21.663  0.00  0.00    +0.000 HD
ENDROOT
BRANCH   2  18
ATOM     18  C   UNL     1       0.335  10.012  21.096  0.00  0.00    +0.000 A 
ATOM     19  C   UNL     1       0.505  11.383  20.829  0.00  0.00    +0.000 A 
ATOM     20  C   UNL     1      -0.066  12.355  21.654  0.00  0.00    +0.000 A 
ATOM     21  C   UNL     1      -0.824  11.971  22.756  0.00  0.00    +0.000 A 
ATOM     22  C   UNL     1      -1.027  10.616  23.018  0.00  0.00    +0.000 A 
ATOM     23  C   UNL     1      -0.453   9.645  22.188  0.00  0.00    +0.000 A 
ATOM     24  F   UNL     1      -0.676   8.354  22.476  0.00  0.00    +0.000 F 
ENDBRANCH   2  18
TORSDOF 1
ENDMDL
MODEL 3
REMARK VINA RESULT:      -8.2      1.579      1.722
REMARK  Name = 
REMARK  1 active torsions:
REMARK  status: ('A' for Active; 'I' for Inactive)
REMARK    1  A    between atoms: C_2  and  C_17
REMARK                            x       y       z     vdW  Elec       q    Type
REMARK                         _______ _______ _______ _____ _____    ______ ____
ROOT
ATOM      1  O   UNL     1       1.869   9.680  17.424  0.00  0.00    +0.000 OA
ATOM      2  C   UNL     1       1.543   9.590  18.607  0.00  0.00    +0.000 C 
ATOM      3  N   UNL     1       1.736   8.485  19.396  0.00  0.00    +0.000 N 
ATOM      4  C   UNL     1       2.405   7.376  18.933  0.00  0.00    +0.000 A 
ATOM      5  N   UNL     1       3.181   7.233  17.885  0.00  0.00    +0.000 NA
ATOM      6  C   UNL     1       3.648   5.915  17.803  0.00  0.00    +0.000 A 
ATOM      7  C   UNL     1       3.152   5.079  18.808  0.00  0.00    +0.000 A 
ATOM      8  C   UNL     1       3.463   3.713  18.873  0.00  0.00    +0.000 A 
ATOM      9  C   UNL     1       4.330   3.181  17.920  0.00  0.00    +0.000 A 
ATOM     10  C   UNL     1       4.885   3.977  16.916  0.00  0.00    +0.000 A 
ATOM     11  C   UNL     1       5.776   3.418  15.988  0.00  0.00    +0.000 A 
ATOM     12  C   UNL     1       6.348   4.200  14.983  0.00  0.00    +0.000 A 
ATOM     13  C   UNL     1       6.024   5.553  14.893  0.00  0.00    +0.000 A 
ATOM     14  C   UNL     1       5.133   6.129  15.805  0.00  0.00    +0.000 A 
ATOM     15  C   UNL     1       4.551   5.355  16.833  0.00  0.00    +0.000 A 
ATOM     16  S   UNL     1       2.171   5.992  19.895  0.00  0.00    +0.000 S 
ATOM     17  H   UNL     1       1.320   8.417  20.315  0.00  0.00    +0.000 HD
ENDROOT
BRANCH   2  18
ATOM     18  C   UNL     1       0.844  10.764  19.209  0.00  0.00    +0.000 A 
ATOM     19  C   UNL     1      -0.412  10.539  19.803  0.00  0.00    +0.000 A 
ATOM     20  C   UNL     1      -1.171  11.597  20.310  0.00  0.00    +0.000 A 
ATOM     21  C   UNL     1      -0.682  12.898  20.238  0.00  0.00    +0.000 A 
ATOM     22  C   UNL     1       0.574  13.136  19.679  0.00  0.00    +0.000 A 
ATOM     23  C   UNL     1       1.331  12.072  19.173  0.00  0.00    +0.000 A 
ATOM     24  F   UNL     1       2.534  12.346  18.646  0.00  0.00    +0.000 F 
ENDBRANCH   2  18
TORSDOF 1
ENDMDL
MODEL 4
REMARK VINA RESULT:      -8.2      2.058      3.585
REMARK  Name = 
REMARK  1 active torsions:
REMARK  status: ('A' for Active; 'I' for Inactive)
REMARK    1  A    between atoms: C_2  and  C_17
REMARK                            x       y       z     vdW  Elec       q    Type
REMARK                         _______ _______ _______ _____ _____    ______ ____
ROOT
ATOM      1  O   UNL     1       0.940   9.206  22.443  0.00  0.00    +0.000 OA
ATOM      2  C   UNL     1       0.674   9.937  21.489  0.00  0.00    +0.000 C 
ATOM      3  N   UNL     1       0.982   9.668  20.180  0.00  0.00    +0.000 N 
ATOM      4  C   UNL     1       1.565   8.480  19.805  0.00  0.00    +0.000 A 
ATOM      5  N   UNL     1       1.673   7.348  20.459  0.00  0.00    +0.000 NA
ATOM      6  C   UNL     1       2.351   6.401  19.682  0.00  0.00    +0.000 A 
ATOM      7  C   UNL     1       2.775   6.890  18.442  0.00  0.00    +0.000 A 
ATOM      8  C   UNL     1       3.511   6.113  17.537  0.00  0.00    +0.000 A 
ATOM      9  C   UNL     1       3.795   4.789  17.873  0.00  0.00    +0.000 A 
ATOM     10  C   UNL     1       3.363   4.236  19.080  0.00  0.00    +0.000 A 
ATOM     11  C   UNL     1       3.641   2.894  19.377  0.00  0.00    +0.000 A 
ATOM     12  C   UNL     1       3.210   2.321  20.574  0.00  0.00    +0.000 A 
ATOM     13  C   UNL     1       2.501   3.094  21.494  0.00  0.00    +0.000 A 
ATOM     14  C   UNL     1       2.218   4.436  21.220  0.00  0.00    +0.000 A 
ATOM     15  C   UNL     1       2.640   5.030  20.009  0.00  0.00    +0.000 A 
ATOM     16  S   UNL     1       2.235   8.517  18.243  0.00  0.00    +0.000 S 
ATOM     17  H   UNL     1       0.867  10.369  19.460  0.00  0.00    +0.000 HD
ENDROOT
BRANCH   2  18
ATOM     18  C   UNL     1       0.003  11.235  21.797  0.00  0.00    +0.000 A 
ATOM     19  C   UNL     1       0.432  12.373  21.089  0.00  0.00    +0.000 A 
ATOM     20  C   UNL     1      -0.081  13.639  21.377  0.00  0.00    +0.000 A 
ATOM     21  C   UNL     1      -1.039  13.789  22.376  0.00  0.00    +0.000 A 
ATOM     22  C   UNL     1      -1.498  12.667  23.068  0.00  0.00    +0.000 A 
ATOM     23  C   UNL     1      -0.981  11.399  22.773  0.00  0.00    +0.000 A 
ATOM     24  F   UNL     1      -1.451  10.349  23.462  0.00  0.00    +0.000 F 
ENDBRANCH   2  18
TORSDOF 1
ENDMDL
MODEL 5
REMARK VINA RESULT:      -8.2      1.581      1.681
REMARK  Name = 
REMARK  1 active torsions:
REMARK  status: ('A' for Active; 'I' for Inactive)
REMARK    1  A    between atoms: C_2  and  C_17
REMARK                            x       y       z     vdW  Elec       q    Type
REMARK                         _______ _______ _______ _____ _____    ______ ____
ROOT
ATOM      1  O   UNL     1       1.449   9.658  17.778  0.00  0.00    +0.000 OA
ATOM      2  C   UNL     1       1.171   9.555  18.972  0.00  0.00    +0.000 C 
ATOM      3  N   UNL     1       1.470   8.473  19.760  0.00  0.00    +0.000 N 
ATOM      4  C   UNL     1       2.202   7.411  19.281  0.00  0.00    +0.000 A 
ATOM      5  N   UNL     1       2.949   7.315  18.208  0.00  0.00    +0.000 NA
ATOM      6  C   UNL     1       3.507   6.035  18.117  0.00  0.00    +0.000 A 
ATOM      7  C   UNL     1       3.108   5.173  19.144  0.00  0.00    +0.000 A 
ATOM      8  C   UNL     1       3.518   3.834  19.207  0.00  0.00    +0.000 A 
ATOM      9  C   UNL     1       4.390   3.358  18.227  0.00  0.00    +0.000 A 
ATOM     10  C   UNL     1       4.851   4.183  17.200  0.00  0.00    +0.000 A 
ATOM     11  C   UNL     1       5.748   3.682  16.245  0.00  0.00    +0.000 A 
ATOM     12  C   UNL     1       6.227   4.494  15.216  0.00  0.00    +0.000 A 
ATOM     13  C   UNL     1       5.803   5.820  15.129  0.00  0.00    +0.000 A 
ATOM     14  C   UNL     1       4.905   6.338  16.068  0.00  0.00    +0.000 A 
ATOM     15  C   UNL     1       4.415   5.532  17.120  0.00  0.00    +0.000 A 
ATOM     16  S   UNL     1       2.101   6.023  20.259  0.00  0.00    +0.000 S 
ATOM     17  H   UNL     1       1.091   8.383  20.694  0.00  0.00    +0.000 HD
ENDROOT
BRANCH   2  18
ATOM     18  C   UNL     1       0.409  10.681  19.591  0.00  0.00    +0.000 A 
ATOM     19  C   UNL     1       1.113  11.550  20.445  0.00  0.00    +0.000 A 
ATOM     20  C   UNL     1       0.457  12.574  21.132  0.00  0.00    +0.000 A 
ATOM     21  C   UNL     1      -0.914  12.751  20.970  0.00  0.00    +0.000 A 
ATOM     22  C   UNL     1      -1.622  11.917  20.104  0.00  0.00    +0.000 A 
ATOM     23  C   UNL     1      -0.959  10.892  19.416  0.00  0.00    +0.000 A 
ATOM     24  F   UNL     1      -1.678  10.115  18.592  0.00  0.00    +0.000 F 
ENDBRANCH   2  18
TORSDOF 1
ENDMDL
MODEL 6
REMARK VINA RESULT:      -8.1      3.035      4.889
REMARK  Name = 
REMARK  1 active torsions:
REMARK  status: ('A' for Active; 'I' for Inactive)
REMARK    1  A    between atoms: C_2  and  C_17
REMARK                            x       y       z     vdW  Elec       q    Type
REMARK                         _______ _______ _______ _____ _____    ______ ____
ROOT
ATOM      1  O   UNL     1      -0.478  10.653  23.343  0.00  0.00    +0.000 OA
ATOM      2  C   UNL     1      -0.969  11.521  22.623  0.00  0.00    +0.000 C 
ATOM      3  N   UNL     1      -0.744  11.648  21.276  0.00  0.00    +0.000 N 
ATOM      4  C   UNL     1       0.014  10.734  20.582  0.00  0.00    +0.000 A 
ATOM      5  N   UNL     1       0.400   9.526  20.918  0.00  0.00    +0.000 NA
ATOM      6  C   UNL     1       1.166   8.958  19.893  0.00  0.00    +0.000 A 
ATOM      7  C   UNL     1       1.368   9.811  18.802  0.00  0.00    +0.000 A 
ATOM      8  C   UNL     1       2.147   9.447  17.695  0.00  0.00    +0.000 A 
ATOM      9  C   UNL     1       2.708   8.170  17.667  0.00  0.00    +0.000 A 
ATOM     10  C   UNL     1       2.509   7.264  18.709  0.00  0.00    +0.000 A 
ATOM     11  C   UNL     1       3.064   5.978  18.639  0.00  0.00    +0.000 A 
ATOM     12  C   UNL     1       2.869   5.055  19.667  0.00  0.00    +0.000 A 
ATOM     13  C   UNL     1       2.118   5.417  20.786  0.00  0.00    +0.000 A 
ATOM     14  C   UNL     1       1.560   6.696  20.879  0.00  0.00    +0.000 A 
ATOM     15  C   UNL     1       1.742   7.641  19.844  0.00  0.00    +0.000 A 
ATOM     16  S   UNL     1       0.511  11.288  19.052  0.00  0.00    +0.000 S 
ATOM     17  H   UNL     1      -1.060  12.462  20.766  0.00  0.00    +0.000 HD
ENDROOT
BRANCH   2  18
ATOM     18  C   UNL     1      -1.842  12.537  23.284  0.00  0.00    +0.000 A 
ATOM     19  C   UNL     1      -3.127  12.128  23.686  0.00  0.00    +0.000 A 
ATOM     20  C   UNL     1      -4.036  13.037  24.231  0.00  0.00    +0.000 A 
ATOM     21  C   UNL     1      -3.673  14.371  24.390  0.00  0.00    +0.000 A 
ATOM     22  C   UNL     1      -2.393  14.787  24.024  0.00  0.00    +0.000 A 
ATOM     23  C   UNL     1      -1.484  13.872  23.479  0.00  0.00    +0.000 A 
ATOM     24  F   UNL     1      -0.264  14.315  23.143  0.00  0.00    +0.000 F 
ENDBRANCH   2  18
TORSDOF 1
ENDMDL
MODEL 7
REMARK VINA RESULT:      -8.1      2.503      3.969
REMARK  Name = 
REMARK  1 active torsions:
REMARK  status: ('A' for Active; 'I' for Inactive)
REMARK    1  A    between atoms: C_2  and  C_17
REMARK                            x       y       z     vdW  Elec       q    Type
REMARK                         _______ _______ _______ _____ _____    ______ ____
ROOT
ATOM      1  O   UNL     1       0.925   9.273  20.293  0.00  0.00    +0.000 OA
ATOM      2  C   UNL     1       1.154   9.704  19.163  0.00  0.00    +0.000 C 
ATOM      3  N   UNL     1       1.934   9.077  18.224  0.00  0.00    +0.000 N 
ATOM      4  C   UNL     1       2.478   7.834  18.451  0.00  0.00    +0.000 A 
ATOM      5  N   UNL     1       2.181   6.934  19.358  0.00  0.00    +0.000 NA
ATOM      6  C   UNL     1       3.001   5.809  19.213  0.00  0.00    +0.000 A 
ATOM      7  C   UNL     1       3.945   5.929  18.188  0.00  0.00    +0.000 A 
ATOM      8  C   UNL     1       4.890   4.931  17.913  0.00  0.00    +0.000 A 
ATOM      9  C   UNL     1       4.858   3.758  18.667  0.00  0.00    +0.000 A 
ATOM     10  C   UNL     1       3.914   3.567  19.676  0.00  0.00    +0.000 A 
ATOM     11  C   UNL     1       3.890   2.365  20.399  0.00  0.00    +0.000 A 
ATOM     12  C   UNL     1       2.948   2.152  21.405  0.00  0.00    +0.000 A 
ATOM     13  C   UNL     1       2.021   3.150  21.706  0.00  0.00    +0.000 A 
ATOM     14  C   UNL     1       2.030   4.358  21.001  0.00  0.00    +0.000 A 
ATOM     15  C   UNL     1       2.973   4.588  19.974  0.00  0.00    +0.000 A 
ATOM     16  S   UNL     1       3.724   7.431  17.366  0.00  0.00    +0.000 S 
ATOM     17  H   UNL     1       2.203   9.545  17.369  0.00  0.00    +0.000 HD
ENDROOT
BRANCH   2  18
ATOM     18  C   UNL     1       0.571  11.033  18.811  0.00  0.00    +0.000 A 
ATOM     19  C   UNL     1       1.440  12.139  18.789  0.00  0.00    +0.000 A 
ATOM     20  C   UNL     1       0.960  13.430  18.556  0.00  0.00    +0.000 A 
ATOM     21  C   UNL     1      -0.399  13.635  18.335  0.00  0.00    +0.000 A 
ATOM     22  C   UNL     1      -1.270  12.545  18.324  0.00  0.00    +0.000 A 
ATOM     23  C   UNL     1      -0.783  11.253  18.557  0.00  0.00    +0.000 A 
ATOM     24  F   UNL     1      -1.656  10.235  18.535  0.00  0.00    +0.000 F 
ENDBRANCH   2  18
TORSDOF 1
ENDMDL
MODEL 8
REMARK VINA RESULT:      -8.0      1.937      3.394
REMARK  Name = 
REMARK  1 active torsions:
REMARK  status: ('A' for Active; 'I' for Inactive)
REMARK    1  A    between atoms: C_2  and  C_17
REMARK                            x       y       z     vdW  Elec       q    Type
REMARK                         _______ _______ _______ _____ _____    ______ ____
ROOT
ATOM      1  O   UNL     1       0.628   9.124  22.738  0.00  0.00    +0.000 OA
ATOM      2  C   UNL     1       0.330   9.905  21.835  0.00  0.00    +0.000 C 
ATOM      3  N   UNL     1       0.661   9.744  20.513  0.00  0.00    +0.000 N 
ATOM      4  C   UNL     1       1.307   8.617  20.063  0.00  0.00    +0.000 A 
ATOM      5  N   UNL     1       1.471   7.450  20.638  0.00  0.00    +0.000 NA
ATOM      6  C   UNL     1       2.202   6.595  19.804  0.00  0.00    +0.000 A 
ATOM      7  C   UNL     1       2.609   7.191  18.606  0.00  0.00    +0.000 A 
ATOM      8  C   UNL     1       3.391   6.518  17.657  0.00  0.00    +0.000 A 
ATOM      9  C   UNL     1       3.741   5.191  17.904  0.00  0.00    +0.000 A 
ATOM     10  C   UNL     1       3.331   4.533  19.064  0.00  0.00    +0.000 A 
ATOM     11  C   UNL     1       3.677   3.190  19.271  0.00  0.00    +0.000 A 
ATOM     12  C   UNL     1       3.269   2.513  20.421  0.00  0.00    +0.000 A 
ATOM     13  C   UNL     1       2.514   3.182  21.384  0.00  0.00    +0.000 A 
ATOM     14  C   UNL     1       2.163   4.524  21.201  0.00  0.00    +0.000 A 
ATOM     15  C   UNL     1       2.562   5.222  20.039  0.00  0.00    +0.000 A 
ATOM     16  S   UNL     1       1.986   8.798  18.514  0.00  0.00    +0.000 S 
ATOM     17  H   UNL     1       0.514  10.486  19.842  0.00  0.00    +0.000 HD
ENDROOT
BRANCH   2  18
ATOM     18  C   UNL     1      -0.410  11.142  22.225  0.00  0.00    +0.000 A 
ATOM     19  C   UNL     1      -1.522  10.994  23.075  0.00  0.00    +0.000 A 
ATOM     20  C   UNL     1      -2.320  12.088  23.416  0.00  0.00    +0.000 A 
ATOM     21  C   UNL     1      -2.016  13.352  22.917  0.00  0.00    +0.000 A 
ATOM     22  C   UNL     1      -0.900  13.521  22.097  0.00  0.00    +0.000 A 
ATOM     23  C   UNL     1      -0.102  12.421  21.759  0.00  0.00    +0.000 A 
ATOM     24  F   UNL     1       0.962  12.630  20.969  0.00  0.00    +0.000 F 
ENDBRANCH   2  18
TORSDOF 1
ENDMDL
MODEL 9
REMARK VINA RESULT:      -8.0      3.025      8.194
REMARK  Name = 
REMARK  1 active torsions:
REMARK  status: ('A' for Active; 'I' for Inactive)
REMARK    1  A    between atoms: C_2  and  C_17
REMARK                            x       y       z     vdW  Elec       q    Type
REMARK                         _______ _______ _______ _____ _____    ______ ____
ROOT
ATOM      1  O   UNL     1       1.177   5.017  20.534  0.00  0.00    +0.000 OA
ATOM      2  C   UNL     1       2.080   5.047  19.698  0.00  0.00    +0.000 C 
ATOM      3  N   UNL     1       2.500   6.171  19.034  0.00  0.00    +0.000 N 
ATOM      4  C   UNL     1       1.981   7.413  19.315  0.00  0.00    +0.000 A 
ATOM      5  N   UNL     1       1.282   7.823  20.346  0.00  0.00    +0.000 NA
ATOM      6  C   UNL     1       0.963   9.180  20.208  0.00  0.00    +0.000 A 
ATOM      7  C   UNL     1       1.418   9.746  19.012  0.00  0.00    +0.000 A 
ATOM      8  C   UNL     1       1.159  11.079  18.664  0.00  0.00    +0.000 A 
ATOM      9  C   UNL     1       0.455  11.878  19.564  0.00  0.00    +0.000 A 
ATOM     10  C   UNL     1       0.011  11.378  20.789  0.00  0.00    +0.000 A 
ATOM     11  C   UNL     1      -0.672  12.214  21.684  0.00  0.00    +0.000 A 
ATOM     12  C   UNL     1      -1.116  11.734  22.917  0.00  0.00    +0.000 A 
ATOM     13  C   UNL     1      -0.889  10.401  23.262  0.00  0.00    +0.000 A 
ATOM     14  C   UNL     1      -0.215   9.548  22.380  0.00  0.00    +0.000 A 
ATOM     15  C   UNL     1       0.248  10.020  21.132  0.00  0.00    +0.000 A 
ATOM     16  S   UNL     1       2.318   8.575  18.119  0.00  0.00    +0.000 S 
ATOM     17  H   UNL     1       3.146   6.110  18.257  0.00  0.00    +0.000 HD
ENDROOT
BRANCH   2  18
ATOM     18  C   UNL     1       2.732   3.748  19.357  0.00  0.00    +0.000 A 
ATOM     19  C   UNL     1       3.570   3.167  20.326  0.00  0.00    +0.000 A 
ATOM     20  C   UNL     1       4.287   1.999  20.054  0.00  0.00    +0.000 A 
ATOM     21  C   UNL     1       4.170   1.388  18.808  0.00  0.00    +0.000 A 
ATOM     22  C   UNL     1       3.320   1.935  17.846  0.00  0.00    +0.000 A 
ATOM     23  C   UNL     1       2.604   3.105  18.125  0.00  0.00    +0.000 A 
ATOM     24  F   UNL     1       1.797   3.595  17.171  0.00  0.00    +0.000 F 
ENDBRANCH   2  18
TORSDOF 1
ENDMDL
