MODEL 1
REMARK VINA RESULT:      -8.2      0.000      0.000
REMARK  Name = 
REMARK  6 active torsions:
REMARK  status: ('A' for Active; 'I' for Inactive)
REMARK    1  A    between atoms: C_1  and  C_2
REMARK    2  A    between atoms: C_7  and  C_8
REMARK    3  A    between atoms: C_11  and  C_12
REMARK    4  A    between atoms: C_12  and  O_13
REMARK    5  A    between atoms: O_13  and  C_14
REMARK    6  A    between atoms: C_14  and  C_16
REMARK                            x       y       z     vdW  Elec       q    Type
REMARK                         _______ _______ _______ _____ _____    ______ ____
ROOT
ATOM      1  C   UNL     1       7.958   7.598  17.861  0.00  0.00    +0.000 C 
ENDROOT
BRANCH   1   5
ATOM      2  C   UNL     1       4.872   5.928  17.228  0.00  0.00    +0.000 A 
ATOM      3  N   UNL     1       4.991   6.607  16.074  0.00  0.00    +0.000 NA
ATOM      4  O   UNL     1       6.188   7.308  16.221  0.00  0.00    +0.000 OA
ATOM      5  C   UNL     1       6.688   6.969  17.444  0.00  0.00    +0.000 A 
ATOM      6  N   UNL     1       5.935   6.112  18.085  0.00  0.00    +0.000 NA
BRANCH   2  13
ATOM      7  C   UNL     1       2.516   6.901  18.816  0.00  0.00    +0.000 C 
ATOM      8  C   UNL     1       2.659   5.477  18.339  0.00  0.00    +0.000 A 
ATOM      9  C   UNL     1       1.650   4.559  18.671  0.00  0.00    +0.000 A 
ATOM     10  C   UNL     1       1.713   3.236  18.237  0.00  0.00    +0.000 A 
ATOM     11  C   UNL     1       2.781   2.810  17.454  0.00  0.00    +0.000 A 
ATOM     12  C   UNL     1       3.795   3.708  17.116  0.00  0.00    +0.000 A 
ATOM     13  C   UNL     1       3.760   5.042  17.561  0.00  0.00    +0.000 A 
ENDBRANCH   2  13
ENDBRANCH   1   5
BRANCH   1  14
ATOM     14  O   UNL     1       7.859   9.018  17.689  0.00  0.00    +0.000 OA
BRANCH  14  15
ATOM     15  C   UNL     1       8.675   9.759  18.499  0.00  0.00    +0.000 C 
ATOM     16  O   UNL     1       9.169   9.329  19.537  0.00  0.00    +0.000 OA
BRANCH  15  17
ATOM     17  C   UNL     1       8.881  11.129  18.006  0.00  0.00    +0.000 A 
ATOM     18  N   UNL     1       7.899  11.841  17.415  0.00  0.00    +0.000 NA
ATOM     19  N   UNL     1       8.468  13.020  17.129  0.00  0.00    +0.000 N 
ATOM     20  C   UNL     1       9.775  13.124  17.512  0.00  0.00    +0.000 A 
ATOM     21  C   UNL     1      10.689  14.178  17.404  0.00  0.00    +0.000 A 
ATOM     22  C   UNL     1      11.977  13.956  17.897  0.00  0.00    +0.000 A 
ATOM     23  C   UNL     1      12.329  12.734  18.470  0.00  0.00    +0.000 A 
ATOM     24  C   UNL     1      11.395  11.694  18.572  0.00  0.00    +0.000 A 
ATOM     25  C   UNL     1      10.088  11.896  18.083  0.00  0.00    +0.000 A 
ATOM     26  H   UNL     1       7.904  13.725  16.669  0.00  0.00    +0.000 HD
ENDBRANCH  15  17
ENDBRANCH  14  15
ENDBRANCH   1  14
TORSDOF 5
ENDMDL
MODEL 2
REMARK VINA RESULT:      -8.1      1.731      2.406
REMARK  Name = 
REMARK  6 active torsions:
REMARK  status: ('A' for Active; 'I' for Inactive)
REMARK    1  A    between atoms: C_1  and  C_2
REMARK    2  A    between atoms: C_7  and  C_8
REMARK    3  A    between atoms: C_11  and  C_12
REMARK    4  A    between atoms: C_12  and  O_13
REMARK    5  A    between atoms: O_13  and  C_14
REMARK    6  A    between atoms: C_14  and  C_16
REMARK                            x       y       z     vdW  Elec       q    Type
REMARK                         _______ _______ _______ _____ _____    ______ ____
ROOT
ATOM      1  C   UNL     1       8.011   7.592  17.581  0.00  0.00    +0.000 C 
ENDROOT
BRANCH   1   5
ATOM      2  C   UNL     1       5.397   5.452  18.724  0.00  0.00    +0.000 A 
ATOM      3  N   UNL     1       6.372   5.075  19.569  0.00  0.00    +0.000 NA
ATOM      4  O   UNL     1       7.460   5.865  19.199  0.00  0.00    +0.000 OA
ATOM      5  C   UNL     1       7.032   6.660  18.178  0.00  0.00    +0.000 A 
ATOM      6  N   UNL     1       5.776   6.464  17.868  0.00  0.00    +0.000 NA
BRANCH   2  13
ATOM      7  C   UNL     1       4.445   3.710  16.471  0.00  0.00    +0.000 C 
ATOM      8  C   UNL     1       3.572   4.103  17.637  0.00  0.00    +0.000 A 
ATOM      9  C   UNL     1       2.244   3.647  17.658  0.00  0.00    +0.000 A 
ATOM     10  C   UNL     1       1.397   3.955  18.722  0.00  0.00    +0.000 A 
ATOM     11  C   UNL     1       1.866   4.716  19.788  0.00  0.00    +0.000 A 
ATOM     12  C   UNL     1       3.182   5.180  19.783  0.00  0.00    +0.000 A 
ATOM     13  C   UNL     1       4.047   4.897  18.710  0.00  0.00    +0.000 A 
ENDBRANCH   2  13
ENDBRANCH   1   5
BRANCH   1  14
ATOM     14  O   UNL     1       8.508   8.470  18.599  0.00  0.00    +0.000 OA
BRANCH  14  15
ATOM     15  C   UNL     1       8.443   9.803  18.299  0.00  0.00    +0.000 C 
ATOM     16  O   UNL     1       7.743  10.260  17.401  0.00  0.00    +0.000 OA
BRANCH  15  17
ATOM     17  C   UNL     1       9.314  10.626  19.152  0.00  0.00    +0.000 A 
ATOM     18  N   UNL     1       9.289  10.549  20.499  0.00  0.00    +0.000 NA
ATOM     19  N   UNL     1      10.220  11.426  20.899  0.00  0.00    +0.000 N 
ATOM     20  C   UNL     1      10.864  12.070  19.881  0.00  0.00    +0.000 A 
ATOM     21  C   UNL     1      11.887  13.025  19.892  0.00  0.00    +0.000 A 
ATOM     22  C   UNL     1      12.328  13.499  18.654  0.00  0.00    +0.000 A 
ATOM     23  C   UNL     1      11.768  13.035  17.464  0.00  0.00    +0.000 A 
ATOM     24  C   UNL     1      10.748  12.074  17.477  0.00  0.00    +0.000 A 
ATOM     25  C   UNL     1      10.289  11.579  18.715  0.00  0.00    +0.000 A 
ATOM     26  H   UNL     1      10.375  11.539  21.894  0.00  0.00    +0.000 HD
ENDBRANCH  15  17
ENDBRANCH  14  15
ENDBRANCH   1  14
TORSDOF 5
ENDMDL
MODEL 3
REMARK VINA RESULT:      -8.0      5.779      8.139
REMARK  Name = 
REMARK  6 active torsions:
REMARK  status: ('A' for Active; 'I' for Inactive)
REMARK    1  A    between atoms: C_1  and  C_2
REMARK    2  A    between atoms: C_7  and  C_8
REMARK    3  A    between atoms: C_11  and  C_12
REMARK    4  A    between atoms: C_12  and  O_13
REMARK    5  A    between atoms: O_13  and  C_14
REMARK    6  A    between atoms: C_14  and  C_16
REMARK                            x       y       z     vdW  Elec       q    Type
REMARK                         _______ _______ _______ _____ _____    ______ ____
ROOT
ATOM      1  C   UNL     1       2.648   6.511  19.469  0.00  0.00    +0.000 C 
ENDROOT
BRANCH   1   5
ATOM      2  C   UNL     1       1.424   9.738  18.570  0.00  0.00    +0.000 A 
ATOM      3  N   UNL     1       2.127   9.455  17.460  0.00  0.00    +0.000 NA
ATOM      4  O   UNL     1       2.659   8.191  17.713  0.00  0.00    +0.000 OA
ATOM      5  C   UNL     1       2.208   7.821  18.946  0.00  0.00    +0.000 A 
ATOM      6  N   UNL     1       1.433   8.719  19.498  0.00  0.00    +0.000 NA
BRANCH   2  13
ATOM      7  C   UNL     1      -1.439  10.015  17.706  0.00  0.00    +0.000 C 
ATOM      8  C   UNL     1      -0.661  11.132  18.357  0.00  0.00    +0.000 A 
ATOM      9  C   UNL     1      -1.301  12.366  18.550  0.00  0.00    +0.000 A 
ATOM     10  C   UNL     1      -0.643  13.427  19.169  0.00  0.00    +0.000 A 
ATOM     11  C   UNL     1       0.665  13.269  19.617  0.00  0.00    +0.000 A 
ATOM     12  C   UNL     1       1.319  12.050  19.432  0.00  0.00    +0.000 A 
ATOM     13  C   UNL     1       0.679  10.974  18.791  0.00  0.00    +0.000 A 
ENDBRANCH   2  13
ENDBRANCH   1   5
BRANCH   1  14
ATOM     14  O   UNL     1       2.437   5.508  18.467  0.00  0.00    +0.000 OA
BRANCH  14  15
ATOM     15  C   UNL     1       3.046   4.308  18.710  0.00  0.00    +0.000 C 
ATOM     16  O   UNL     1       2.451   3.322  19.134  0.00  0.00    +0.000 OA
BRANCH  15  17
ATOM     17  C   UNL     1       4.489   4.330  18.429  0.00  0.00    +0.000 A 
ATOM     18  N   UNL     1       5.417   4.166  19.395  0.00  0.00    +0.000 NA
ATOM     19  N   UNL     1       6.588   4.233  18.747  0.00  0.00    +0.000 N 
ATOM     20  C   UNL     1       6.477   4.424  17.399  0.00  0.00    +0.000 A 
ATOM     21  C   UNL     1       7.449   4.529  16.397  0.00  0.00    +0.000 A 
ATOM     22  C   UNL     1       6.996   4.733  15.091  0.00  0.00    +0.000 A 
ATOM     23  C   UNL     1       5.634   4.826  14.807  0.00  0.00    +0.000 A 
ATOM     24  C   UNL     1       4.679   4.713  15.826  0.00  0.00    +0.000 A 
ATOM     25  C   UNL     1       5.112   4.504  17.152  0.00  0.00    +0.000 A 
ATOM     26  H   UNL     1       7.440   4.137  19.286  0.00  0.00    +0.000 HD
ENDBRANCH  15  17
ENDBRANCH  14  15
ENDBRANCH   1  14
TORSDOF 5
ENDMDL
MODEL 4
REMARK VINA RESULT:      -8.0      0.816      1.050
REMARK  Name = 
REMARK  6 active torsions:
REMARK  status: ('A' for Active; 'I' for Inactive)
REMARK    1  A    between atoms: C_1  and  C_2
REMARK    2  A    between atoms: C_7  and  C_8
REMARK    3  A    between atoms: C_11  and  C_12
REMARK    4  A    between atoms: C_12  and  O_13
REMARK    5  A    between atoms: O_13  and  C_14
REMARK    6  A    between atoms: C_14  and  C_16
REMARK                            x       y       z     vdW  Elec       q    Type
REMARK                         _______ _______ _______ _____ _____    ______ ____
ROOT
ATOM      1  C   UNL     1       7.908   7.835  17.186  0.00  0.00    +0.000 C 
ENDROOT
BRANCH   1   5
ATOM      2  C   UNL     1       5.394   5.494  18.146  0.00  0.00    +0.000 A 
ATOM      3  N   UNL     1       6.267   5.299  19.149  0.00  0.00    +0.000 NA
ATOM      4  O   UNL     1       7.309   6.181  18.863  0.00  0.00    +0.000 OA
ATOM      5  C   UNL     1       6.955   6.842  17.724  0.00  0.00    +0.000 A 
ATOM      6  N   UNL     1       5.787   6.476  17.262  0.00  0.00    +0.000 NA
BRANCH   2  13
ATOM      7  C   UNL     1       2.763   6.916  18.414  0.00  0.00    +0.000 C 
ATOM      8  C   UNL     1       2.878   5.435  18.154  0.00  0.00    +0.000 A 
ATOM      9  C   UNL     1       1.698   4.682  18.053  0.00  0.00    +0.000 A 
ATOM     10  C   UNL     1       1.739   3.314  17.787  0.00  0.00    +0.000 A 
ATOM     11  C   UNL     1       2.963   2.677  17.608  0.00  0.00    +0.000 A 
ATOM     12  C   UNL     1       4.147   3.408  17.708  0.00  0.00    +0.000 A 
ATOM     13  C   UNL     1       4.127   4.785  17.995  0.00  0.00    +0.000 A 
ENDBRANCH   2  13
ENDBRANCH   1   5
BRANCH   1  14
ATOM     14  O   UNL     1       7.592   9.128  17.717  0.00  0.00    +0.000 OA
BRANCH  14  15
ATOM     15  C   UNL     1       8.598   9.727  18.424  0.00  0.00    +0.000 C 
ATOM     16  O   UNL     1       9.218   9.169  19.323  0.00  0.00    +0.000 OA
BRANCH  15  17
ATOM     17  C   UNL     1       8.845  11.116  18.005  0.00  0.00    +0.000 A 
ATOM     18  N   UNL     1       7.904  11.864  17.392  0.00  0.00    +0.000 NA
ATOM     19  N   UNL     1       8.499  13.048  17.192  0.00  0.00    +0.000 N 
ATOM     20  C   UNL     1       9.782  13.120  17.653  0.00  0.00    +0.000 A 
ATOM     21  C   UNL     1      10.710  14.168  17.645  0.00  0.00    +0.000 A 
ATOM     22  C   UNL     1      11.966  13.910  18.200  0.00  0.00    +0.000 A 
ATOM     23  C   UNL     1      12.273  12.660  18.737  0.00  0.00    +0.000 A 
ATOM     24  C   UNL     1      11.326  11.626  18.738  0.00  0.00    +0.000 A 
ATOM     25  C   UNL     1      10.051  11.864  18.185  0.00  0.00    +0.000 A 
ATOM     26  H   UNL     1       7.968  13.779  16.732  0.00  0.00    +0.000 HD
ENDBRANCH  15  17
ENDBRANCH  14  15
ENDBRANCH   1  14
TORSDOF 5
ENDMDL
MODEL 5
REMARK VINA RESULT:      -8.0      5.943      9.073
REMARK  Name = 
REMARK  6 active torsions:
REMARK  status: ('A' for Active; 'I' for Inactive)
REMARK    1  A    between atoms: C_1  and  C_2
REMARK    2  A    between atoms: C_7  and  C_8
REMARK    3  A    between atoms: C_11  and  C_12
REMARK    4  A    between atoms: C_12  and  O_13
REMARK    5  A    between atoms: O_13  and  C_14
REMARK    6  A    between atoms: C_14  and  C_16
REMARK                            x       y       z     vdW  Elec       q    Type
REMARK                         _______ _______ _______ _____ _____    ______ ____
ROOT
ATOM      1  C   UNL     1       3.373   7.539  17.458  0.00  0.00    +0.000 C 
ENDROOT
BRANCH   1   5
ATOM      2  C   UNL     1       1.148   9.480  19.459  0.00  0.00    +0.000 A 
ATOM      3  N   UNL     1       1.088  10.188  18.317  0.00  0.00    +0.000 NA
ATOM      4  O   UNL     1       1.940   9.502  17.452  0.00  0.00    +0.000 OA
ATOM      5  C   UNL     1       2.418   8.431  18.148  0.00  0.00    +0.000 A 
ATOM      6  N   UNL     1       1.947   8.361  19.367  0.00  0.00    +0.000 NA
BRANCH   2  13
ATOM      7  C   UNL     1      -0.862  11.709  19.532  0.00  0.00    +0.000 C 
ATOM      8  C   UNL     1      -0.502  10.883  20.741  0.00  0.00    +0.000 A 
ATOM      9  C   UNL     1      -1.123  11.184  21.964  0.00  0.00    +0.000 A 
ATOM     10  C   UNL     1      -0.850  10.438  23.109  0.00  0.00    +0.000 A 
ATOM     11  C   UNL     1       0.040   9.371  23.050  0.00  0.00    +0.000 A 
ATOM     12  C   UNL     1       0.669   9.058  21.844  0.00  0.00    +0.000 A 
ATOM     13  C   UNL     1       0.423   9.811  20.682  0.00  0.00    +0.000 A 
ENDBRANCH   2  13
ENDBRANCH   1   5
BRANCH   1  14
ATOM     14  O   UNL     1       3.009   6.175  17.710  0.00  0.00    +0.000 OA
BRANCH  14  15
ATOM     15  C   UNL     1       4.005   5.261  17.501  0.00  0.00    +0.000 C 
ATOM     16  O   UNL     1       4.740   5.276  16.518  0.00  0.00    +0.000 OA
BRANCH  15  17
ATOM     17  C   UNL     1       4.090   4.251  18.566  0.00  0.00    +0.000 A 
ATOM     18  N   UNL     1       5.221   3.560  18.819  0.00  0.00    +0.000 NA
ATOM     19  N   UNL     1       4.902   2.767  19.851  0.00  0.00    +0.000 N 
ATOM     20  C   UNL     1       3.618   2.907  20.296  0.00  0.00    +0.000 A 
ATOM     21  C   UNL     1       2.928   2.281  21.339  0.00  0.00    +0.000 A 
ATOM     22  C   UNL     1       1.594   2.652  21.533  0.00  0.00    +0.000 A 
ATOM     23  C   UNL     1       0.987   3.606  20.717  0.00  0.00    +0.000 A 
ATOM     24  C   UNL     1       1.700   4.224  19.681  0.00  0.00    +0.000 A 
ATOM     25  C   UNL     1       3.047   3.867  19.469  0.00  0.00    +0.000 A 
ATOM     26  H   UNL     1       5.614   2.144  20.215  0.00  0.00    +0.000 HD
ENDBRANCH  15  17
ENDBRANCH  14  15
ENDBRANCH   1  14
TORSDOF 5
ENDMDL
MODEL 6
REMARK VINA RESULT:      -8.0      5.038      8.688
REMARK  Name = 
REMARK  6 active torsions:
REMARK  status: ('A' for Active; 'I' for Inactive)
REMARK    1  A    between atoms: C_1  and  C_2
REMARK    2  A    between atoms: C_7  and  C_8
REMARK    3  A    between atoms: C_11  and  C_12
REMARK    4  A    between atoms: C_12  and  O_13
REMARK    5  A    between atoms: O_13  and  C_14
REMARK    6  A    between atoms: C_14  and  C_16
REMARK                            x       y       z     vdW  Elec       q    Type
REMARK                         _______ _______ _______ _____ _____    ______ ____
ROOT
ATOM      1  C   UNL     1       7.529   5.559  18.538  0.00  0.00    +0.000 C 
ENDROOT
BRANCH   1   5
ATOM      2  C   UNL     1       6.587   5.225  15.115  0.00  0.00    +0.000 A 
ATOM      3  N   UNL     1       6.002   6.404  15.387  0.00  0.00    +0.000 NA
ATOM      4  O   UNL     1       6.313   6.630  16.728  0.00  0.00    +0.000 OA
ATOM      5  C   UNL     1       7.076   5.575  17.132  0.00  0.00    +0.000 A 
ATOM      6  N   UNL     1       7.292   4.705  16.179  0.00  0.00    +0.000 NA
BRANCH   2  13
ATOM      7  C   UNL     1       8.608   5.804  12.971  0.00  0.00    +0.000 C 
ATOM      8  C   UNL     1       7.463   4.840  12.787  0.00  0.00    +0.000 A 
ATOM      9  C   UNL     1       7.325   4.197  11.547  0.00  0.00    +0.000 A 
ATOM     10  C   UNL     1       6.303   3.276  11.325  0.00  0.00    +0.000 A 
ATOM     11  C   UNL     1       5.406   2.973  12.345  0.00  0.00    +0.000 A 
ATOM     12  C   UNL     1       5.526   3.603  13.584  0.00  0.00    +0.000 A 
ATOM     13  C   UNL     1       6.538   4.551  13.821  0.00  0.00    +0.000 A 
ENDBRANCH   2  13
ENDBRANCH   1   5
BRANCH   1  14
ATOM     14  O   UNL     1       6.698   4.665  19.290  0.00  0.00    +0.000 OA
BRANCH  14  15
ATOM     15  C   UNL     1       5.376   5.009  19.344  0.00  0.00    +0.000 C 
ATOM     16  O   UNL     1       4.977   6.100  19.740  0.00  0.00    +0.000 OA
BRANCH  15  17
ATOM     17  C   UNL     1       4.483   3.929  18.897  0.00  0.00    +0.000 A 
ATOM     18  N   UNL     1       4.889   2.958  18.052  0.00  0.00    +0.000 NA
ATOM     19  N   UNL     1       3.813   2.174  17.905  0.00  0.00    +0.000 N 
ATOM     20  C   UNL     1       2.720   2.575  18.619  0.00  0.00    +0.000 A 
ATOM     21  C   UNL     1       1.440   2.022  18.738  0.00  0.00    +0.000 A 
ATOM     22  C   UNL     1       0.531   2.693  19.561  0.00  0.00    +0.000 A 
ATOM     23  C   UNL     1       0.892   3.862  20.230  0.00  0.00    +0.000 A 
ATOM     24  C   UNL     1       2.182   4.394  20.100  0.00  0.00    +0.000 A 
ATOM     25  C   UNL     1       3.117   3.733  19.277  0.00  0.00    +0.000 A 
ATOM     26  H   UNL     1       3.888   1.366  17.298  0.00  0.00    +0.000 HD
ENDBRANCH  15  17
ENDBRANCH  14  15
ENDBRANCH   1  14
TORSDOF 5
ENDMDL
MODEL 7
REMARK VINA RESULT:      -7.9      1.791      9.094
REMARK  Name = 
REMARK  6 active torsions:
REMARK  status: ('A' for Active; 'I' for Inactive)
REMARK    1  A    between atoms: C_1  and  C_2
REMARK    2  A    between atoms: C_7  and  C_8
REMARK    3  A    between atoms: C_11  and  C_12
REMARK    4  A    between atoms: C_12  and  O_13
REMARK    5  A    between atoms: O_13  and  C_14
REMARK    6  A    between atoms: C_14  and  C_16
REMARK                            x       y       z     vdW  Elec       q    Type
REMARK                         _______ _______ _______ _____ _____    ______ ____
ROOT
ATOM      1  C   UNL     1       8.105   7.675  18.150  0.00  0.00    +0.000 C 
ENDROOT
BRANCH   1   5
ATOM      2  C   UNL     1       8.999  11.083  18.700  0.00  0.00    +0.000 A 
ATOM      3  N   UNL     1       8.208  11.237  17.624  0.00  0.00    +0.000 NA
ATOM      4  O   UNL     1       7.799   9.938  17.321  0.00  0.00    +0.000 OA
ATOM      5  C   UNL     1       8.366   9.125  18.257  0.00  0.00    +0.000 A 
ATOM      6  N   UNL     1       9.087   9.778  19.133  0.00  0.00    +0.000 NA
BRANCH   2  13
ATOM      7  C   UNL     1      11.726  12.009  17.849  0.00  0.00    +0.000 C 
ATOM      8  C   UNL     1      10.985  12.596  19.025  0.00  0.00    +0.000 A 
ATOM      9  C   UNL     1      11.609  13.610  19.768  0.00  0.00    +0.000 A 
ATOM     10  C   UNL     1      10.963  14.208  20.849  0.00  0.00    +0.000 A 
ATOM     11  C   UNL     1       9.677  13.810  21.198  0.00  0.00    +0.000 A 
ATOM     12  C   UNL     1       9.041  12.802  20.473  0.00  0.00    +0.000 A 
ATOM     13  C   UNL     1       9.683  12.171  19.392  0.00  0.00    +0.000 A 
ENDBRANCH   2  13
ENDBRANCH   1   5
BRANCH   1  14
ATOM     14  O   UNL     1       7.334   7.421  16.968  0.00  0.00    +0.000 OA
BRANCH  14  15
ATOM     15  C   UNL     1       7.140   6.099  16.676  0.00  0.00    +0.000 C 
ATOM     16  O   UNL     1       7.590   5.556  15.672  0.00  0.00    +0.000 OA
BRANCH  15  17
ATOM     17  C   UNL     1       6.319   5.404  17.679  0.00  0.00    +0.000 A 
ATOM     18  N   UNL     1       6.785   4.362  18.399  0.00  0.00    +0.000 NA
ATOM     19  N   UNL     1       5.763   4.025  19.197  0.00  0.00    +0.000 N 
ATOM     20  C   UNL     1       4.648   4.800  19.045  0.00  0.00    +0.000 A 
ATOM     21  C   UNL     1       3.408   4.773  19.692  0.00  0.00    +0.000 A 
ATOM     22  C   UNL     1       2.460   5.717  19.291  0.00  0.00    +0.000 A 
ATOM     23  C   UNL     1       2.746   6.643  18.287  0.00  0.00    +0.000 A 
ATOM     24  C   UNL     1       3.997   6.654  17.656  0.00  0.00    +0.000 A 
ATOM     25  C   UNL     1       4.970   5.712  18.046  0.00  0.00    +0.000 A 
ATOM     26  H   UNL     1       5.889   3.248  19.835  0.00  0.00    +0.000 HD
ENDBRANCH  15  17
ENDBRANCH  14  15
ENDBRANCH   1  14
TORSDOF 5
ENDMDL
MODEL 8
REMARK VINA RESULT:      -7.9      5.852      9.268
REMARK  Name = 
REMARK  6 active torsions:
REMARK  status: ('A' for Active; 'I' for Inactive)
REMARK    1  A    between atoms: C_1  and  C_2
REMARK    2  A    between atoms: C_7  and  C_8
REMARK    3  A    between atoms: C_11  and  C_12
REMARK    4  A    between atoms: C_12  and  O_13
REMARK    5  A    between atoms: O_13  and  C_14
REMARK    6  A    between atoms: C_14  and  C_16
REMARK                            x       y       z     vdW  Elec       q    Type
REMARK                         _______ _______ _______ _____ _____    ______ ____
ROOT
ATOM      1  C   UNL     1       3.689   7.239  17.442  0.00  0.00    +0.000 C 
ENDROOT
BRANCH   1   5
ATOM      2  C   UNL     1       1.405   9.643  18.755  0.00  0.00    +0.000 A 
ATOM      3  N   UNL     1       1.360   8.736  19.746  0.00  0.00    +0.000 NA
ATOM      4  O   UNL     1       2.234   7.734  19.323  0.00  0.00    +0.000 OA
ATOM      5  C   UNL     1       2.740   8.142  18.125  0.00  0.00    +0.000 A 
ATOM      6  N   UNL     1       2.285   9.309  17.748  0.00  0.00    +0.000 NA
BRANCH   2  13
ATOM      7  C   UNL     1      -1.357   9.765  17.585  0.00  0.00    +0.000 C 
ATOM      8  C   UNL     1      -0.646  10.969  18.151  0.00  0.00    +0.000 A 
ATOM      9  C   UNL     1      -1.301  12.210  18.110  0.00  0.00    +0.000 A 
ATOM     10  C   UNL     1      -0.706  13.353  18.641  0.00  0.00    +0.000 A 
ATOM     11  C   UNL     1       0.550  13.273  19.232  0.00  0.00    +0.000 A 
ATOM     12  C   UNL     1       1.218  12.049  19.280  0.00  0.00    +0.000 A 
ATOM     13  C   UNL     1       0.644  10.888  18.731  0.00  0.00    +0.000 A 
ENDBRANCH   2  13
ENDBRANCH   1   5
BRANCH   1  14
ATOM     14  O   UNL     1       3.142   5.914  17.412  0.00  0.00    +0.000 OA
BRANCH  14  15
ATOM     15  C   UNL     1       4.061   4.909  17.294  0.00  0.00    +0.000 C 
ATOM     16  O   UNL     1       4.767   4.752  16.302  0.00  0.00    +0.000 OA
BRANCH  15  17
ATOM     17  C   UNL     1       4.101   4.026  18.469  0.00  0.00    +0.000 A 
ATOM     18  N   UNL     1       5.222   3.379  18.850  0.00  0.00    +0.000 NA
ATOM     19  N   UNL     1       4.859   2.705  19.950  0.00  0.00    +0.000 N 
ATOM     20  C   UNL     1       3.556   2.883  20.318  0.00  0.00    +0.000 A 
ATOM     21  C   UNL     1       2.821   2.373  21.394  0.00  0.00    +0.000 A 
ATOM     22  C   UNL     1       1.479   2.751  21.484  0.00  0.00    +0.000 A 
ATOM     23  C   UNL     1       0.905   3.601  20.538  0.00  0.00    +0.000 A 
ATOM     24  C   UNL     1       1.662   4.104  19.472  0.00  0.00    +0.000 A 
ATOM     25  C   UNL     1       3.019   3.738  19.362  0.00  0.00    +0.000 A 
ATOM     26  H   UNL     1       5.556   2.134  20.414  0.00  0.00    +0.000 HD
ENDBRANCH  15  17
ENDBRANCH  14  15
ENDBRANCH   1  14
TORSDOF 5
ENDMDL
MODEL 9
REMARK VINA RESULT:      -7.9      6.016      8.767
REMARK  Name = 
REMARK  6 active torsions:
REMARK  status: ('A' for Active; 'I' for Inactive)
REMARK    1  A    between atoms: C_1  and  C_2
REMARK    2  A    between atoms: C_7  and  C_8
REMARK    3  A    between atoms: C_11  and  C_12
REMARK    4  A    between atoms: C_12  and  O_13
REMARK    5  A    between atoms: O_13  and  C_14
REMARK    6  A    between atoms: C_14  and  C_16
REMARK                            x       y       z     vdW  Elec       q    Type
REMARK                         _______ _______ _______ _____ _____    ______ ____
ROOT
ATOM      1  C   UNL     1       2.180   9.433  17.867  0.00  0.00    +0.000 C 
ENDROOT
BRANCH   1   5
ATOM      2  C   UNL     1       2.705   6.033  18.810  0.00  0.00    +0.000 A 
ATOM      3  N   UNL     1       3.776   6.206  18.015  0.00  0.00    +0.000 NA
ATOM      4  O   UNL     1       3.662   7.528  17.584  0.00  0.00    +0.000 OA
ATOM      5  C   UNL     1       2.544   8.034  18.178  0.00  0.00    +0.000 A 
ATOM      6  N   UNL     1       1.940   7.171  18.953  0.00  0.00    +0.000 NA
BRANCH   2  13
ATOM      7  C   UNL     1       2.084   3.516  17.297  0.00  0.00    +0.000 C 
ATOM      8  C   UNL     1       2.045   3.605  18.802  0.00  0.00    +0.000 A 
ATOM      9  C   UNL     1       1.682   2.460  19.528  0.00  0.00    +0.000 A 
ATOM     10  C   UNL     1       1.653   2.473  20.922  0.00  0.00    +0.000 A 
ATOM     11  C   UNL     1       1.999   3.629  21.614  0.00  0.00    +0.000 A 
ATOM     12  C   UNL     1       2.360   4.778  20.909  0.00  0.00    +0.000 A 
ATOM     13  C   UNL     1       2.375   4.791  19.503  0.00  0.00    +0.000 A 
ENDBRANCH   2  13
ENDBRANCH   1   5
BRANCH   1  14
ATOM     14  O   UNL     1       0.758   9.582  17.968  0.00  0.00    +0.000 OA
BRANCH  14  15
ATOM     15  C   UNL     1       0.324  10.279  19.062  0.00  0.00    +0.000 C 
ATOM     16  O   UNL     1       0.948  10.338  20.117  0.00  0.00    +0.000 OA
BRANCH  15  17
ATOM     17  C   UNL     1      -0.975  10.934  18.847  0.00  0.00    +0.000 A 
ATOM     18  N   UNL     1      -1.436  11.910  19.657  0.00  0.00    +0.000 NA
ATOM     19  N   UNL     1      -2.620  12.250  19.128  0.00  0.00    +0.000 N 
ATOM     20  C   UNL     1      -2.957  11.553  18.003  0.00  0.00    +0.000 A 
ATOM     21  C   UNL     1      -4.079  11.628  17.170  0.00  0.00    +0.000 A 
ATOM     22  C   UNL     1      -4.123  10.752  16.082  0.00  0.00    +0.000 A 
ATOM     23  C   UNL     1      -3.090   9.846  15.844  0.00  0.00    +0.000 A 
ATOM     24  C   UNL     1      -1.973   9.793  16.688  0.00  0.00    +0.000 A 
ATOM     25  C   UNL     1      -1.905  10.669  17.791  0.00  0.00    +0.000 A 
ATOM     26  H   UNL     1      -3.157  12.978  19.584  0.00  0.00    +0.000 HD
ENDBRANCH  15  17
ENDBRANCH  14  15
ENDBRANCH   1  14
TORSDOF 5
ENDMDL
