MODEL 1
REMARK VINA RESULT:      -7.4      0.000      0.000
REMARK  Name = 
REMARK  3 active torsions:
REMARK  status: ('A' for Active; 'I' for Inactive)
REMARK    1  A    between atoms: C_1  and  C_2
REMARK    2  A    between atoms: C_5  and  C_6
REMARK    3  A    between atoms: C_12  and  C_13
REMARK                            x       y       z     vdW  Elec       q    Type
REMARK                         _______ _______ _______ _____ _____    ______ ____
ROOT
ATOM      1  C   UNL     1       5.064   3.300  16.032  0.00  0.00    +0.000 C 
ATOM      2  O   UNL     1       5.234   2.096  16.164  0.00  0.00    +0.000 OA
ATOM      3  N   UNL     1       4.129   4.045  16.800  0.00  0.00    +0.000 N 
ATOM      4  C   UNL     1       3.982   5.461  16.577  0.00  0.00    +0.000 C 
ATOM      5  C   UNL     1       3.818   6.243  17.859  0.00  0.00    +0.000 C 
ATOM      6  C   UNL     1       4.136   7.701  17.556  0.00  0.00    +0.000 C 
ATOM      7  C   UNL     1       3.050   8.727  17.708  0.00  0.00    +0.000 C 
ATOM      8  C   UNL     1       1.801   8.306  18.462  0.00  0.00    +0.000 C 
ATOM      9  C   UNL     1       1.767   6.914  19.109  0.00  0.00    +0.000 C 
ATOM     10  N   UNL     1       2.488   5.912  18.333  0.00  0.00    +0.000 N 
ATOM     11  C   UNL     1       2.490   4.513  18.668  0.00  0.00    +0.000 A 
ATOM     12  C   UNL     1       1.754   4.024  19.764  0.00  0.00    +0.000 A 
ATOM     13  C   UNL     1       1.828   2.680  20.150  0.00  0.00    +0.000 A 
ATOM     14  C   UNL     1       2.598   1.780  19.423  0.00  0.00    +0.000 A 
ATOM     15  C   UNL     1       3.307   2.211  18.301  0.00  0.00    +0.000 A 
ATOM     16  C   UNL     1       3.298   3.560  17.904  0.00  0.00    +0.000 A 
ENDROOT
BRANCH   1  22
ATOM     17  C   UNL     1       5.606   3.199  12.574  0.00  0.00    +0.000 C 
ATOM     18  C   UNL     1       6.152   3.955  13.728  0.00  0.00    +0.000 A 
ATOM     19  O   UNL     1       7.088   4.856  13.344  0.00  0.00    +0.000 OA
ATOM     20  N   UNL     1       7.592   5.505  14.425  0.00  0.00    +0.000 NA
ATOM     21  C   UNL     1       6.975   5.004  15.505  0.00  0.00    +0.000 A 
ATOM     22  C   UNL     1       5.977   4.030  15.113  0.00  0.00    +0.000 A 
BRANCH  21  23
ATOM     23  C   UNL     1       7.392   5.498  16.819  0.00  0.00    +0.000 A 
ATOM     24  C   UNL     1       7.635   4.658  17.903  0.00  0.00    +0.000 A 
ATOM     25  C   UNL     1       8.027   5.234  19.104  0.00  0.00    +0.000 A 
ATOM     26  N   UNL     1       8.166   6.561  19.300  0.00  0.00    +0.000 NA
ATOM     27  C   UNL     1       7.906   7.359  18.244  0.00  0.00    +0.000 A 
ATOM     28  C   UNL     1       7.520   6.881  17.006  0.00  0.00    +0.000 A 
ENDBRANCH  21  23
ENDBRANCH   1  22
TORSDOF 2
ENDMDL
MODEL 2
REMARK VINA RESULT:      -7.3      8.308     11.330
REMARK  Name = 
REMARK  3 active torsions:
REMARK  status: ('A' for Active; 'I' for Inactive)
REMARK    1  A    between atoms: C_1  and  C_2
REMARK    2  A    between atoms: C_5  and  C_6
REMARK    3  A    between atoms: C_12  and  C_13
REMARK                            x       y       z     vdW  Elec       q    Type
REMARK                         _______ _______ _______ _____ _____    ______ ____
ROOT
ATOM      1  C   UNL     1      -1.505  12.667  19.058  0.00  0.00    +0.000 C 
ATOM      2  O   UNL     1      -1.390  12.187  17.939  0.00  0.00    +0.000 OA
ATOM      3  N   UNL     1      -2.746  12.760  19.745  0.00  0.00    +0.000 N 
ATOM      4  C   UNL     1      -2.797  13.348  21.059  0.00  0.00    +0.000 C 
ATOM      5  C   UNL     1      -3.721  12.607  21.997  0.00  0.00    +0.000 C 
ATOM      6  C   UNL     1      -3.353  13.006  23.420  0.00  0.00    +0.000 C 
ATOM      7  C   UNL     1      -4.365  13.737  24.254  0.00  0.00    +0.000 C 
ATOM      8  C   UNL     1      -5.797  13.749  23.750  0.00  0.00    +0.000 C 
ATOM      9  C   UNL     1      -6.143  12.934  22.496  0.00  0.00    +0.000 C 
ATOM     10  N   UNL     1      -5.058  12.907  21.522  0.00  0.00    +0.000 N 
ATOM     11  C   UNL     1      -5.190  12.317  20.217  0.00  0.00    +0.000 A 
ATOM     12  C   UNL     1      -6.407  11.753  19.791  0.00  0.00    +0.000 A 
ATOM     13  C   UNL     1      -6.514  11.093  18.560  0.00  0.00    +0.000 A 
ATOM     14  C   UNL     1      -5.423  11.024  17.702  0.00  0.00    +0.000 A 
ATOM     15  C   UNL     1      -4.209  11.611  18.063  0.00  0.00    +0.000 A 
ATOM     16  C   UNL     1      -4.044  12.244  19.307  0.00  0.00    +0.000 A 
ENDROOT
BRANCH   1  22
ATOM     17  C   UNL     1       0.678  15.396  18.842  0.00  0.00    +0.000 C 
ATOM     18  C   UNL     1       0.577  14.159  19.655  0.00  0.00    +0.000 A 
ATOM     19  O   UNL     1       1.578  14.071  20.566  0.00  0.00    +0.000 OA
ATOM     20  N   UNL     1       1.477  12.913  21.268  0.00  0.00    +0.000 NA
ATOM     21  C   UNL     1       0.409  12.258  20.792  0.00  0.00    +0.000 A 
ATOM     22  C   UNL     1      -0.260  13.047  19.777  0.00  0.00    +0.000 A 
BRANCH  21  23
ATOM     23  C   UNL     1       0.119  10.934  21.345  0.00  0.00    +0.000 A 
ATOM     24  C   UNL     1       0.350   9.751  20.646  0.00  0.00    +0.000 A 
ATOM     25  C   UNL     1       0.039   8.550  21.268  0.00  0.00    +0.000 A 
ATOM     26  N   UNL     1      -0.498   8.450  22.501  0.00  0.00    +0.000 NA
ATOM     27  C   UNL     1      -0.734   9.607  23.155  0.00  0.00    +0.000 A 
ATOM     28  C   UNL     1      -0.449  10.851  22.624  0.00  0.00    +0.000 A 
ENDBRANCH  21  23
ENDBRANCH   1  22
TORSDOF 2
ENDMDL
MODEL 3
REMARK VINA RESULT:      -7.1      9.152     13.086
REMARK  Name = 
REMARK  3 active torsions:
REMARK  status: ('A' for Active; 'I' for Inactive)
REMARK    1  A    between atoms: C_1  and  C_2
REMARK    2  A    between atoms: C_5  and  C_6
REMARK    3  A    between atoms: C_12  and  C_13
REMARK                            x       y       z     vdW  Elec       q    Type
REMARK                         _______ _______ _______ _____ _____    ______ ____
ROOT
ATOM      1  C   UNL     1      -3.050  12.675  23.255  0.00  0.00    +0.000 C 
ATOM      2  O   UNL     1      -3.421  11.765  23.984  0.00  0.00    +0.000 OA
ATOM      3  N   UNL     1      -1.842  12.634  22.507  0.00  0.00    +0.000 N 
ATOM      4  C   UNL     1      -1.473  13.753  21.678  0.00  0.00    +0.000 C 
ATOM      5  C   UNL     1      -0.883  13.332  20.353  0.00  0.00    +0.000 C 
ATOM      6  C   UNL     1      -0.967  14.524  19.409  0.00  0.00    +0.000 C 
ATOM      7  C   UNL     1       0.307  15.133  18.895  0.00  0.00    +0.000 C 
ATOM      8  C   UNL     1       1.582  14.331  19.083  0.00  0.00    +0.000 C 
ATOM      9  C   UNL     1       1.482  12.919  19.679  0.00  0.00    +0.000 C 
ATOM     10  N   UNL     1       0.426  12.800  20.677  0.00  0.00    +0.000 N 
ATOM     11  C   UNL     1       0.223  11.614  21.465  0.00  0.00    +0.000 A 
ATOM     12  C   UNL     1       1.070  10.498  21.335  0.00  0.00    +0.000 A 
ATOM     13  C   UNL     1       0.819   9.307  22.030  0.00  0.00    +0.000 A 
ATOM     14  C   UNL     1      -0.252   9.219  22.911  0.00  0.00    +0.000 A 
ATOM     15  C   UNL     1      -1.090  10.318  23.107  0.00  0.00    +0.000 A 
ATOM     16  C   UNL     1      -0.903  11.517  22.397  0.00  0.00    +0.000 A 
ENDROOT
BRANCH   1  22
ATOM     17  C   UNL     1      -3.543  15.723  24.907  0.00  0.00    +0.000 C 
ATOM     18  C   UNL     1      -4.134  15.022  23.740  0.00  0.00    +0.000 A 
ATOM     19  O   UNL     1      -5.102  15.762  23.144  0.00  0.00    +0.000 OA
ATOM     20  N   UNL     1      -5.645  15.079  22.104  0.00  0.00    +0.000 NA
ATOM     21  C   UNL     1      -5.022  13.893  22.045  0.00  0.00    +0.000 A 
ATOM     22  C   UNL     1      -3.981  13.817  23.049  0.00  0.00    +0.000 A 
BRANCH  21  23
ATOM     23  C   UNL     1      -5.476  12.933  21.037  0.00  0.00    +0.000 A 
ATOM     24  C   UNL     1      -6.637  12.178  21.176  0.00  0.00    +0.000 A 
ATOM     25  C   UNL     1      -6.974  11.297  20.157  0.00  0.00    +0.000 A 
ATOM     26  N   UNL     1      -6.235  11.105  19.045  0.00  0.00    +0.000 NA
ATOM     27  C   UNL     1      -5.103  11.831  18.938  0.00  0.00    +0.000 A 
ATOM     28  C   UNL     1      -4.688  12.739  19.893  0.00  0.00    +0.000 A 
ENDBRANCH  21  23
ENDBRANCH   1  22
TORSDOF 2
ENDMDL
MODEL 4
REMARK VINA RESULT:      -6.8      9.300     12.583
REMARK  Name = 
REMARK  3 active torsions:
REMARK  status: ('A' for Active; 'I' for Inactive)
REMARK    1  A    between atoms: C_1  and  C_2
REMARK    2  A    between atoms: C_5  and  C_6
REMARK    3  A    between atoms: C_12  and  C_13
REMARK                            x       y       z     vdW  Elec       q    Type
REMARK                         _______ _______ _______ _____ _____    ______ ____
ROOT
ATOM      1  C   UNL     1       6.975  16.516  18.697  0.00  0.00    +0.000 C 
ATOM      2  O   UNL     1       6.884  17.736  18.678  0.00  0.00    +0.000 OA
ATOM      3  N   UNL     1       8.145  15.814  18.299  0.00  0.00    +0.000 N 
ATOM      4  C   UNL     1       8.169  14.375  18.343  0.00  0.00    +0.000 C 
ATOM      5  C   UNL     1       9.482  13.824  18.848  0.00  0.00    +0.000 C 
ATOM      6  C   UNL     1       9.244  12.386  19.285  0.00  0.00    +0.000 C 
ATOM      7  C   UNL     1       9.955  11.279  18.559  0.00  0.00    +0.000 C 
ATOM      8  C   UNL     1      11.109  11.675  17.655  0.00  0.00    +0.000 C 
ATOM      9  C   UNL     1      11.545  13.146  17.621  0.00  0.00    +0.000 C 
ATOM     10  N   UNL     1      10.429  14.072  17.777  0.00  0.00    +0.000 N 
ATOM     11  C   UNL     1      10.569  15.497  17.650  0.00  0.00    +0.000 A 
ATOM     12  C   UNL     1      11.807  16.083  17.330  0.00  0.00    +0.000 A 
ATOM     13  C   UNL     1      11.970  17.474  17.299  0.00  0.00    +0.000 A 
ATOM     14  C   UNL     1      10.888  18.314  17.536  0.00  0.00    +0.000 A 
ATOM     15  C   UNL     1       9.630  17.776  17.812  0.00  0.00    +0.000 A 
ATOM     16  C   UNL     1       9.432  16.387  17.897  0.00  0.00    +0.000 A 
ENDROOT
BRANCH   1  22
ATOM     17  C   UNL     1       3.811  15.570  17.534  0.00  0.00    +0.000 C 
ATOM     18  C   UNL     1       4.599  15.392  18.779  0.00  0.00    +0.000 A 
ATOM     19  O   UNL     1       3.930  14.653  19.698  0.00  0.00    +0.000 OA
ATOM     20  N   UNL     1       4.662  14.538  20.836  0.00  0.00    +0.000 NA
ATOM     21  C   UNL     1       5.801  15.218  20.639  0.00  0.00    +0.000 A 
ATOM     22  C   UNL     1       5.849  15.749  19.292  0.00  0.00    +0.000 A 
BRANCH  21  23
ATOM     23  C   UNL     1       6.745  15.304  21.755  0.00  0.00    +0.000 A 
ATOM     24  C   UNL     1       7.579  14.251  22.126  0.00  0.00    +0.000 A 
ATOM     25  C   UNL     1       8.436  14.441  23.201  0.00  0.00    +0.000 A 
ATOM     26  N   UNL     1       8.500  15.574  23.930  0.00  0.00    +0.000 NA
ATOM     27  C   UNL     1       7.670  16.575  23.568  0.00  0.00    +0.000 A 
ATOM     28  C   UNL     1       6.789  16.485  22.508  0.00  0.00    +0.000 A 
ENDBRANCH  21  23
ENDBRANCH   1  22
TORSDOF 2
ENDMDL
MODEL 5
REMARK VINA RESULT:      -6.8      8.895     12.358
REMARK  Name = 
REMARK  3 active torsions:
REMARK  status: ('A' for Active; 'I' for Inactive)
REMARK    1  A    between atoms: C_1  and  C_2
REMARK    2  A    between atoms: C_5  and  C_6
REMARK    3  A    between atoms: C_12  and  C_13
REMARK                            x       y       z     vdW  Elec       q    Type
REMARK                         _______ _______ _______ _____ _____    ______ ____
ROOT
ATOM      1  C   UNL     1      -2.403  13.086  20.035  0.00  0.00    +0.000 C 
ATOM      2  O   UNL     1      -1.919  12.645  19.002  0.00  0.00    +0.000 OA
ATOM      3  N   UNL     1      -3.781  12.971  20.363  0.00  0.00    +0.000 N 
ATOM      4  C   UNL     1      -4.274  13.526  21.597  0.00  0.00    +0.000 C 
ATOM      5  C   UNL     1      -5.287  12.635  22.278  0.00  0.00    +0.000 C 
ATOM      6  C   UNL     1      -5.380  13.069  23.735  0.00  0.00    +0.000 C 
ATOM      7  C   UNL     1      -6.682  13.619  24.246  0.00  0.00    +0.000 C 
ATOM      8  C   UNL     1      -7.910  13.408  23.379  0.00  0.00    +0.000 C 
ATOM      9  C   UNL     1      -7.774  12.564  22.103  0.00  0.00    +0.000 C 
ATOM     10  N   UNL     1      -6.478  12.724  21.455  0.00  0.00    +0.000 N 
ATOM     11  C   UNL     1      -6.161  12.136  20.181  0.00  0.00    +0.000 A 
ATOM     12  C   UNL     1      -7.115  11.391  19.464  0.00  0.00    +0.000 A 
ATOM     13  C   UNL     1      -6.783  10.738  18.269  0.00  0.00    +0.000 A 
ATOM     14  C   UNL     1      -5.506  10.856  17.735  0.00  0.00    +0.000 A 
ATOM     15  C   UNL     1      -4.541  11.625  18.388  0.00  0.00    +0.000 A 
ATOM     16  C   UNL     1      -4.817  12.260  19.611  0.00  0.00    +0.000 A 
ENDROOT
BRANCH   1  22
ATOM     17  C   UNL     1      -1.623  16.344  21.054  0.00  0.00    +0.000 C 
ATOM     18  C   UNL     1      -1.200  14.970  21.422  0.00  0.00    +0.000 A 
ATOM     19  O   UNL     1      -0.291  14.974  22.428  0.00  0.00    +0.000 OA
ATOM     20  N   UNL     1       0.101  13.706  22.715  0.00  0.00    +0.000 NA
ATOM     21  C   UNL     1      -0.559  12.892  21.878  0.00  0.00    +0.000 A 
ATOM     22  C   UNL     1      -1.472  13.651  21.048  0.00  0.00    +0.000 A 
BRANCH  21  23
ATOM     23  C   UNL     1      -0.260  11.460  21.942  0.00  0.00    +0.000 A 
ATOM     24  C   UNL     1       0.502  10.800  20.981  0.00  0.00    +0.000 A 
ATOM     25  C   UNL     1       0.724   9.439  21.140  0.00  0.00    +0.000 A 
ATOM     26  N   UNL     1       0.229   8.703  22.157  0.00  0.00    +0.000 NA
ATOM     27  C   UNL     1      -0.524   9.356  23.066  0.00  0.00    +0.000 A 
ATOM     28  C   UNL     1      -0.793  10.710  22.999  0.00  0.00    +0.000 A 
ENDBRANCH  21  23
ENDBRANCH   1  22
TORSDOF 2
ENDMDL
MODEL 6
REMARK VINA RESULT:      -6.8      9.068     11.675
REMARK  Name = 
REMARK  3 active torsions:
REMARK  status: ('A' for Active; 'I' for Inactive)
REMARK    1  A    between atoms: C_1  and  C_2
REMARK    2  A    between atoms: C_5  and  C_6
REMARK    3  A    between atoms: C_12  and  C_13
REMARK                            x       y       z     vdW  Elec       q    Type
REMARK                         _______ _______ _______ _____ _____    ______ ____
ROOT
ATOM      1  C   UNL     1      -1.249  12.345  19.123  0.00  0.00    +0.000 C 
ATOM      2  O   UNL     1      -1.135  11.919  17.981  0.00  0.00    +0.000 OA
ATOM      3  N   UNL     1      -2.503  12.544  19.761  0.00  0.00    +0.000 N 
ATOM      4  C   UNL     1      -2.551  13.058  21.106  0.00  0.00    +0.000 C 
ATOM      5  C   UNL     1      -3.598  12.378  21.957  0.00  0.00    +0.000 C 
ATOM      6  C   UNL     1      -3.256  12.649  23.416  0.00  0.00    +0.000 C 
ATOM      7  C   UNL     1      -4.218  13.446  24.251  0.00  0.00    +0.000 C 
ATOM      8  C   UNL     1      -5.612  13.655  23.689  0.00  0.00    +0.000 C 
ATOM      9  C   UNL     1      -5.988  12.959  22.373  0.00  0.00    +0.000 C 
ATOM     10  N   UNL     1      -4.867  12.860  21.445  0.00  0.00    +0.000 N 
ATOM     11  C   UNL     1      -5.002  12.365  20.102  0.00  0.00    +0.000 A 
ATOM     12  C   UNL     1      -6.254  11.974  19.591  0.00  0.00    +0.000 A 
ATOM     13  C   UNL     1      -6.375  11.402  18.318  0.00  0.00    +0.000 A 
ATOM     14  C   UNL     1      -5.259  11.255  17.503  0.00  0.00    +0.000 A 
ATOM     15  C   UNL     1      -4.005  11.673  17.951  0.00  0.00    +0.000 A 
ATOM     16  C   UNL     1      -3.829  12.210  19.238  0.00  0.00    +0.000 A 
ENDROOT
BRANCH   1  22
ATOM     17  C   UNL     1       0.467  10.361  21.443  0.00  0.00    +0.000 C 
ATOM     18  C   UNL     1       0.645  11.702  20.831  0.00  0.00    +0.000 A 
ATOM     19  O   UNL     1       1.776  12.308  21.267  0.00  0.00    +0.000 OA
ATOM     20  N   UNL     1       1.891  13.545  20.716  0.00  0.00    +0.000 NA
ATOM     21  C   UNL     1       0.818  13.725  19.932  0.00  0.00    +0.000 A 
ATOM     22  C   UNL     1      -0.005  12.534  19.915  0.00  0.00    +0.000 A 
BRANCH  21  23
ATOM     23  C   UNL     1       0.670  15.022  19.268  0.00  0.00    +0.000 A 
ATOM     24  C   UNL     1      -0.557  15.662  19.117  0.00  0.00    +0.000 A 
ATOM     25  C   UNL     1      -0.582  16.890  18.470  0.00  0.00    +0.000 A 
ATOM     26  N   UNL     1       0.506  17.498  17.953  0.00  0.00    +0.000 NA
ATOM     27  C   UNL     1       1.683  16.852  18.090  0.00  0.00    +0.000 A 
ATOM     28  C   UNL     1       1.811  15.632  18.726  0.00  0.00    +0.000 A 
ENDBRANCH  21  23
ENDBRANCH   1  22
TORSDOF 2
ENDMDL
MODEL 7
REMARK VINA RESULT:      -6.7      8.964     11.593
REMARK  Name = 
REMARK  3 active torsions:
REMARK  status: ('A' for Active; 'I' for Inactive)
REMARK    1  A    between atoms: C_1  and  C_2
REMARK    2  A    between atoms: C_5  and  C_6
REMARK    3  A    between atoms: C_12  and  C_13
REMARK                            x       y       z     vdW  Elec       q    Type
REMARK                         _______ _______ _______ _____ _____    ______ ____
ROOT
ATOM      1  C   UNL     1      -1.471  11.946  19.192  0.00  0.00    +0.000 C 
ATOM      2  O   UNL     1      -1.367  11.482  18.065  0.00  0.00    +0.000 OA
ATOM      3  N   UNL     1      -2.711  12.346  19.760  0.00  0.00    +0.000 N 
ATOM      4  C   UNL     1      -2.748  12.892  21.093  0.00  0.00    +0.000 C 
ATOM      5  C   UNL     1      -3.926  12.397  21.898  0.00  0.00    +0.000 C 
ATOM      6  C   UNL     1      -3.621  12.648  23.368  0.00  0.00    +0.000 C 
ATOM      7  C   UNL     1      -4.492  13.599  24.139  0.00  0.00    +0.000 C 
ATOM      8  C   UNL     1      -5.810  14.001  23.501  0.00  0.00    +0.000 C 
ATOM      9  C   UNL     1      -6.220  13.338  22.178  0.00  0.00    +0.000 C 
ATOM     10  N   UNL     1      -5.081  13.051  21.313  0.00  0.00    +0.000 N 
ATOM     11  C   UNL     1      -5.223  12.550  19.972  0.00  0.00    +0.000 A 
ATOM     12  C   UNL     1      -6.492  12.337  19.403  0.00  0.00    +0.000 A 
ATOM     13  C   UNL     1      -6.635  11.761  18.134  0.00  0.00    +0.000 A 
ATOM     14  C   UNL     1      -5.515  11.429  17.382  0.00  0.00    +0.000 A 
ATOM     15  C   UNL     1      -4.236  11.666  17.888  0.00  0.00    +0.000 A 
ATOM     16  C   UNL     1      -4.046  12.201  19.174  0.00  0.00    +0.000 A 
ENDROOT
BRANCH   1  22
ATOM     17  C   UNL     1      -0.136   9.733  21.554  0.00  0.00    +0.000 C 
ATOM     18  C   UNL     1       0.239  11.048  20.976  0.00  0.00    +0.000 A 
ATOM     19  O   UNL     1       1.415  11.500  21.475  0.00  0.00    +0.000 OA
ATOM     20  N   UNL     1       1.712  12.719  20.954  0.00  0.00    +0.000 NA
ATOM     21  C   UNL     1       0.711  13.044  20.123  0.00  0.00    +0.000 A 
ATOM     22  C   UNL     1      -0.254  11.966  20.046  0.00  0.00    +0.000 A 
BRANCH  21  23
ATOM     23  C   UNL     1       0.761  14.356  19.476  0.00  0.00    +0.000 A 
ATOM     24  C   UNL     1       1.924  14.886  18.923  0.00  0.00    +0.000 A 
ATOM     25  C   UNL     1       1.859  16.141  18.334  0.00  0.00    +0.000 A 
ATOM     26  N   UNL     1       0.743  16.897  18.280  0.00  0.00    +0.000 NA
ATOM     27  C   UNL     1      -0.369  16.376  18.839  0.00  0.00    +0.000 A 
ATOM     28  C   UNL     1      -0.406  15.132  19.441  0.00  0.00    +0.000 A 
ENDBRANCH  21  23
ENDBRANCH   1  22
TORSDOF 2
ENDMDL
MODEL 8
REMARK VINA RESULT:      -6.7      8.780     13.297
REMARK  Name = 
REMARK  3 active torsions:
REMARK  status: ('A' for Active; 'I' for Inactive)
REMARK    1  A    between atoms: C_1  and  C_2
REMARK    2  A    between atoms: C_5  and  C_6
REMARK    3  A    between atoms: C_12  and  C_13
REMARK                            x       y       z     vdW  Elec       q    Type
REMARK                         _______ _______ _______ _____ _____    ______ ____
ROOT
ATOM      1  C   UNL     1      -3.066  14.121  21.266  0.00  0.00    +0.000 C 
ATOM      2  O   UNL     1      -3.151  15.253  20.809  0.00  0.00    +0.000 OA
ATOM      3  N   UNL     1      -1.974  13.251  21.000  0.00  0.00    +0.000 N 
ATOM      4  C   UNL     1      -1.953  11.929  21.571  0.00  0.00    +0.000 C 
ATOM      5  C   UNL     1      -0.583  11.521  22.060  0.00  0.00    +0.000 C 
ATOM      6  C   UNL     1      -0.763  10.360  23.028  0.00  0.00    +0.000 C 
ATOM      7  C   UNL     1      -0.176   9.023  22.674  0.00  0.00    +0.000 C 
ATOM      8  C   UNL     1       0.832   8.989  21.539  0.00  0.00    +0.000 C 
ATOM      9  C   UNL     1       1.268  10.315  20.902  0.00  0.00    +0.000 C 
ATOM     10  N   UNL     1       0.194  11.301  20.855  0.00  0.00    +0.000 N 
ATOM     11  C   UNL     1       0.323  12.569  20.190  0.00  0.00    +0.000 A 
ATOM     12  C   UNL     1       1.503  12.920  19.509  0.00  0.00    +0.000 A 
ATOM     13  C   UNL     1       1.668  14.190  18.942  0.00  0.00    +0.000 A 
ATOM     14  C   UNL     1       0.641  15.124  18.997  0.00  0.00    +0.000 A 
ATOM     15  C   UNL     1      -0.565  14.803  19.621  0.00  0.00    +0.000 A 
ATOM     16  C   UNL     1      -0.758  13.556  20.242  0.00  0.00    +0.000 A 
ENDROOT
BRANCH   1  22
ATOM     17  C   UNL     1      -3.411  14.516  24.728  0.00  0.00    +0.000 C 
ATOM     18  C   UNL     1      -4.189  13.885  23.633  0.00  0.00    +0.000 A 
ATOM     19  O   UNL     1      -5.343  13.337  24.085  0.00  0.00    +0.000 OA
ATOM     20  N   UNL     1      -6.013  12.738  23.066  0.00  0.00    +0.000 NA
ATOM     21  C   UNL     1      -5.271  12.901  21.961  0.00  0.00    +0.000 A 
ATOM     22  C   UNL     1      -4.095  13.696  22.251  0.00  0.00    +0.000 A 
BRANCH  21  23
ATOM     23  C   UNL     1      -5.748  12.283  20.722  0.00  0.00    +0.000 A 
ATOM     24  C   UNL     1      -5.107  12.444  19.497  0.00  0.00    +0.000 A 
ATOM     25  C   UNL     1      -5.647  11.812  18.385  0.00  0.00    +0.000 A 
ATOM     26  N   UNL     1      -6.771  11.066  18.407  0.00  0.00    +0.000 NA
ATOM     27  C   UNL     1      -7.389  10.939  19.599  0.00  0.00    +0.000 A 
ATOM     28  C   UNL     1      -6.925  11.522  20.763  0.00  0.00    +0.000 A 
ENDBRANCH  21  23
ENDBRANCH   1  22
TORSDOF 2
ENDMDL
MODEL 9
REMARK VINA RESULT:      -6.7      9.712     12.000
REMARK  Name = 
REMARK  3 active torsions:
REMARK  status: ('A' for Active; 'I' for Inactive)
REMARK    1  A    between atoms: C_1  and  C_2
REMARK    2  A    between atoms: C_5  and  C_6
REMARK    3  A    between atoms: C_12  and  C_13
REMARK                            x       y       z     vdW  Elec       q    Type
REMARK                         _______ _______ _______ _____ _____    ______ ____
ROOT
ATOM      1  C   UNL     1      -0.975  12.282  19.927  0.00  0.00    +0.000 C 
ATOM      2  O   UNL     1      -0.021  11.741  19.386  0.00  0.00    +0.000 OA
ATOM      3  N   UNL     1      -2.287  12.285  19.378  0.00  0.00    +0.000 N 
ATOM      4  C   UNL     1      -3.355  12.954  20.074  0.00  0.00    +0.000 C 
ATOM      5  C   UNL     1      -4.654  12.183  20.037  0.00  0.00    +0.000 C 
ATOM      6  C   UNL     1      -5.543  12.719  21.150  0.00  0.00    +0.000 C 
ATOM      7  C   UNL     1      -6.837  13.389  20.786  0.00  0.00    +0.000 C 
ATOM      8  C   UNL     1      -7.334  13.206  19.363  0.00  0.00    +0.000 C 
ATOM      9  C   UNL     1      -6.556  12.270  18.426  0.00  0.00    +0.000 C 
ATOM     10  N   UNL     1      -5.118  12.297  18.668  0.00  0.00    +0.000 N 
ATOM     11  C   UNL     1      -4.171  11.605  17.835  0.00  0.00    +0.000 A 
ATOM     12  C   UNL     1      -4.588  10.880  16.704  0.00  0.00    +0.000 A 
ATOM     13  C   UNL     1      -3.681  10.127  15.946  0.00  0.00    +0.000 A 
ATOM     14  C   UNL     1      -2.330  10.120  16.268  0.00  0.00    +0.000 A 
ATOM     15  C   UNL     1      -1.865  10.863  17.355  0.00  0.00    +0.000 A 
ATOM     16  C   UNL     1      -2.745  11.597  18.169  0.00  0.00    +0.000 A 
ENDROOT
BRANCH   1  22
ATOM     17  C   UNL     1      -1.323  10.994  23.164  0.00  0.00    +0.000 C 
ATOM     18  C   UNL     1      -0.917  12.286  22.556  0.00  0.00    +0.000 A 
ATOM     19  O   UNL     1      -0.571  13.199  23.497  0.00  0.00    +0.000 OA
ATOM     20  N   UNL     1      -0.240  14.379  22.910  0.00  0.00    +0.000 NA
ATOM     21  C   UNL     1      -0.387  14.213  21.587  0.00  0.00    +0.000 A 
ATOM     22  C   UNL     1      -0.768  12.849  21.286  0.00  0.00    +0.000 A 
BRANCH  21  23
ATOM     23  C   UNL     1      -0.151  15.373  20.726  0.00  0.00    +0.000 A 
ATOM     24  C   UNL     1      -1.166  16.011  20.017  0.00  0.00    +0.000 A 
ATOM     25  C   UNL     1      -0.830  17.103  19.229  0.00  0.00    +0.000 A 
ATOM     26  N   UNL     1       0.425  17.577  19.084  0.00  0.00    +0.000 NA
ATOM     27  C   UNL     1       1.397  16.934  19.762  0.00  0.00    +0.000 A 
ATOM     28  C   UNL     1       1.161  15.844  20.579  0.00  0.00    +0.000 A 
ENDBRANCH  21  23
ENDBRANCH   1  22
TORSDOF 2
ENDMDL
