MODEL 1
REMARK VINA RESULT:      -8.9      0.000      0.000
REMARK  Name = 
REMARK  6 active torsions:
REMARK  status: ('A' for Active; 'I' for Inactive)
REMARK    1  A    between atoms: C_1  and  C_2
REMARK    2  A    between atoms: C_5  and  C_7
REMARK    3  A    between atoms: C_7  and  C_8
REMARK    4  A    between atoms: C_12  and  O_13
REMARK    5  A    between atoms: O_13  and  C_14
REMARK    6  A    between atoms: C_14  and  C_15
REMARK                            x       y       z     vdW  Elec       q    Type
REMARK                         _______ _______ _______ _____ _____    ______ ____
ROOT
ATOM      1  C   UNL     1       2.905   7.839  17.700  0.00  0.00    +0.000 C 
ENDROOT
BRANCH   1   6
ATOM      2  C   UNL     1       2.000  12.925  17.971  0.00  0.00    +0.000 C 
ATOM      3  C   UNL     1       1.870  11.778  18.965  0.00  0.00    +0.000 C 
ATOM      4  C   UNL     1       1.671  10.447  18.244  0.00  0.00    +0.000 C 
ATOM      5  N   UNL     1       1.562   9.338  19.209  0.00  0.00    +0.000 N 
ATOM      6  C   UNL     1       2.161   8.080  19.018  0.00  0.00    +0.000 C 
ATOM      7  O   UNL     1       2.182   7.205  19.888  0.00  0.00    +0.000 OA
ATOM      8  C   UNL     1       0.772   9.668  20.373  0.00  0.00    +0.000 A 
ATOM      9  C   UNL     1       0.313   8.707  21.290  0.00  0.00    +0.000 A 
ATOM     10  C   UNL     1      -0.450   9.068  22.406  0.00  0.00    +0.000 A 
ATOM     11  C   UNL     1      -0.779  10.397  22.613  0.00  0.00    +0.000 A 
ATOM     12  F   UNL     1      -1.506  10.741  23.685  0.00  0.00    +0.000 F 
ATOM     13  C   UNL     1      -0.369  11.372  21.721  0.00  0.00    +0.000 A 
ATOM     14  C   UNL     1       0.405  11.012  20.613  0.00  0.00    +0.000 A 
ATOM     15  O   UNL     1       0.751  12.067  19.803  0.00  0.00    +0.000 OA
ENDBRANCH   1   6
BRANCH   1  16
ATOM     16  C   UNL     1       3.752   6.579  17.634  0.00  0.00    +0.000 A 
ATOM     17  C   UNL     1       5.147   6.689  17.749  0.00  0.00    +0.000 A 
ATOM     18  C   UNL     1       5.956   5.554  17.727  0.00  0.00    +0.000 A 
ATOM     19  C   UNL     1       5.387   4.294  17.566  0.00  0.00    +0.000 A 
ATOM     20  C   UNL     1       4.007   4.164  17.412  0.00  0.00    +0.000 A 
ATOM     21  C   UNL     1       3.190   5.298  17.499  0.00  0.00    +0.000 A 
BRANCH  20  22
ATOM     22  O   UNL     1       3.365   2.977  17.166  0.00  0.00    +0.000 OA
BRANCH  22  23
ATOM     23  C   UNL     1       3.557   1.983  18.177  0.00  0.00    +0.000 C 
BRANCH  23  24
ATOM     24  C   UNL     1       2.807   2.364  19.420  0.00  0.00    +0.000 A 
ATOM     25  C   UNL     1       1.441   2.659  19.381  0.00  0.00    +0.000 A 
ATOM     26  C   UNL     1       0.767   2.955  20.560  0.00  0.00    +0.000 A 
ATOM     27  C   UNL     1       1.484   2.942  21.744  0.00  0.00    +0.000 A 
ATOM     28  N   UNL     1       2.802   2.652  21.826  0.00  0.00    +0.000 NA
ATOM     29  C   UNL     1       3.430   2.371  20.662  0.00  0.00    +0.000 A 
ENDBRANCH  23  24
ENDBRANCH  22  23
ENDBRANCH  20  22
ENDBRANCH   1  16
TORSDOF 5
ENDMDL
MODEL 2
REMARK VINA RESULT:      -8.8      3.984      5.430
REMARK  Name = 
REMARK  6 active torsions:
REMARK  status: ('A' for Active; 'I' for Inactive)
REMARK    1  A    between atoms: C_1  and  C_2
REMARK    2  A    between atoms: C_5  and  C_7
REMARK    3  A    between atoms: C_7  and  C_8
REMARK    4  A    between atoms: C_12  and  O_13
REMARK    5  A    between atoms: O_13  and  C_14
REMARK    6  A    between atoms: C_14  and  C_15
REMARK                            x       y       z     vdW  Elec       q    Type
REMARK                         _______ _______ _______ _____ _____    ______ ____
ROOT
ATOM      1  C   UNL     1       0.125  11.535  18.707  0.00  0.00    +0.000 C 
ENDROOT
BRANCH   1   6
ATOM      2  C   UNL     1      -2.854  10.125  14.719  0.00  0.00    +0.000 C 
ATOM      3  C   UNL     1      -3.079  11.005  15.942  0.00  0.00    +0.000 C 
ATOM      4  C   UNL     1      -2.139  10.614  17.080  0.00  0.00    +0.000 C 
ATOM      5  N   UNL     1      -2.349  11.478  18.255  0.00  0.00    +0.000 N 
ATOM      6  C   UNL     1      -1.302  11.977  19.050  0.00  0.00    +0.000 C 
ATOM      7  O   UNL     1      -1.473  12.808  19.946  0.00  0.00    +0.000 OA
ATOM      8  C   UNL     1      -3.743  11.759  18.517  0.00  0.00    +0.000 A 
ATOM      9  C   UNL     1      -4.200  12.333  19.715  0.00  0.00    +0.000 A 
ATOM     10  C   UNL     1      -5.559  12.590  19.930  0.00  0.00    +0.000 A 
ATOM     11  C   UNL     1      -6.483  12.263  18.952  0.00  0.00    +0.000 A 
ATOM     12  F   UNL     1      -7.783  12.514  19.158  0.00  0.00    +0.000 F 
ATOM     13  C   UNL     1      -6.078  11.673  17.768  0.00  0.00    +0.000 A 
ATOM     14  C   UNL     1      -4.718  11.429  17.549  0.00  0.00    +0.000 A 
ATOM     15  O   UNL     1      -4.441  10.843  16.337  0.00  0.00    +0.000 OA
ENDBRANCH   1   6
BRANCH   1  16
ATOM     16  C   UNL     1       0.631  10.298  19.430  0.00  0.00    +0.000 A 
ATOM     17  C   UNL     1       0.383  10.164  20.806  0.00  0.00    +0.000 A 
ATOM     18  C   UNL     1       0.801   9.029  21.498  0.00  0.00    +0.000 A 
ATOM     19  C   UNL     1       1.494   8.021  20.833  0.00  0.00    +0.000 A 
ATOM     20  C   UNL     1       1.784   8.150  19.475  0.00  0.00    +0.000 A 
ATOM     21  C   UNL     1       1.307   9.260  18.767  0.00  0.00    +0.000 A 
BRANCH  20  22
ATOM     22  O   UNL     1       2.530   7.251  18.756  0.00  0.00    +0.000 OA
BRANCH  22  23
ATOM     23  C   UNL     1       3.076   6.183  19.535  0.00  0.00    +0.000 C 
BRANCH  23  24
ATOM     24  C   UNL     1       2.285   4.927  19.309  0.00  0.00    +0.000 A 
ATOM     25  C   UNL     1       1.569   4.324  20.348  0.00  0.00    +0.000 A 
ATOM     26  C   UNL     1       0.804   3.193  20.090  0.00  0.00    +0.000 A 
ATOM     27  C   UNL     1       0.776   2.703  18.795  0.00  0.00    +0.000 A 
ATOM     28  N   UNL     1       1.443   3.263  17.762  0.00  0.00    +0.000 NA
ATOM     29  C   UNL     1       2.181   4.360  18.045  0.00  0.00    +0.000 A 
ENDBRANCH  23  24
ENDBRANCH  22  23
ENDBRANCH  20  22
ENDBRANCH   1  16
TORSDOF 5
ENDMDL
MODEL 3
REMARK VINA RESULT:      -8.7      3.317      5.009
REMARK  Name = 
REMARK  6 active torsions:
REMARK  status: ('A' for Active; 'I' for Inactive)
REMARK    1  A    between atoms: C_1  and  C_2
REMARK    2  A    between atoms: C_5  and  C_7
REMARK    3  A    between atoms: C_7  and  C_8
REMARK    4  A    between atoms: C_12  and  O_13
REMARK    5  A    between atoms: O_13  and  C_14
REMARK    6  A    between atoms: C_14  and  C_15
REMARK                            x       y       z     vdW  Elec       q    Type
REMARK                         _______ _______ _______ _____ _____    ______ ____
ROOT
ATOM      1  C   UNL     1       1.431  10.231  18.164  0.00  0.00    +0.000 C 
ENDROOT
BRANCH   1   6
ATOM      2  C   UNL     1      -2.914   9.834  15.384  0.00  0.00    +0.000 C 
ATOM      3  C   UNL     1      -2.487  10.716  16.551  0.00  0.00    +0.000 C 
ATOM      4  C   UNL     1      -1.391  10.044  17.374  0.00  0.00    +0.000 C 
ATOM      5  N   UNL     1      -0.970  10.906  18.492  0.00  0.00    +0.000 N 
ATOM      6  C   UNL     1       0.369  11.062  18.892  0.00  0.00    +0.000 C 
ATOM      7  O   UNL     1       0.729  11.889  19.736  0.00  0.00    +0.000 OA
ATOM      8  C   UNL     1      -2.072  11.576  19.145  0.00  0.00    +0.000 A 
ATOM      9  C   UNL     1      -1.951  12.233  20.381  0.00  0.00    +0.000 A 
ATOM     10  C   UNL     1      -3.044  12.871  20.979  0.00  0.00    +0.000 A 
ATOM     11  C   UNL     1      -4.280  12.847  20.356  0.00  0.00    +0.000 A 
ATOM     12  F   UNL     1      -5.323  13.461  20.929  0.00  0.00    +0.000 F 
ATOM     13  C   UNL     1      -4.448  12.189  19.150  0.00  0.00    +0.000 A 
ATOM     14  C   UNL     1      -3.352  11.565  18.545  0.00  0.00    +0.000 A 
ATOM     15  O   UNL     1      -3.645  10.949  17.352  0.00  0.00    +0.000 OA
ENDBRANCH   1   6
BRANCH   1  16
ATOM     16  C   UNL     1       1.738   8.869  18.764  0.00  0.00    +0.000 A 
ATOM     17  C   UNL     1       1.391   8.620  20.102  0.00  0.00    +0.000 A 
ATOM     18  C   UNL     1       1.624   7.374  20.679  0.00  0.00    +0.000 A 
ATOM     19  C   UNL     1       2.230   6.363  19.937  0.00  0.00    +0.000 A 
ATOM     20  C   UNL     1       2.617   6.600  18.618  0.00  0.00    +0.000 A 
ATOM     21  C   UNL     1       2.323   7.831  18.020  0.00  0.00    +0.000 A 
BRANCH  20  22
ATOM     22  O   UNL     1       3.292   5.696  17.838  0.00  0.00    +0.000 OA
BRANCH  22  23
ATOM     23  C   UNL     1       4.660   5.502  18.209  0.00  0.00    +0.000 C 
BRANCH  23  24
ATOM     24  C   UNL     1       5.486   5.212  16.991  0.00  0.00    +0.000 A 
ATOM     25  C   UNL     1       5.056   4.300  16.023  0.00  0.00    +0.000 A 
ATOM     26  C   UNL     1       5.822   4.095  14.881  0.00  0.00    +0.000 A 
ATOM     27  C   UNL     1       6.995   4.818  14.742  0.00  0.00    +0.000 A 
ATOM     28  N   UNL     1       7.440   5.716  15.649  0.00  0.00    +0.000 NA
ATOM     29  C   UNL     1       6.675   5.890  16.750  0.00  0.00    +0.000 A 
ENDBRANCH  23  24
ENDBRANCH  22  23
ENDBRANCH  20  22
ENDBRANCH   1  16
TORSDOF 5
ENDMDL
MODEL 4
REMARK VINA RESULT:      -8.7      4.007      8.472
REMARK  Name = 
REMARK  6 active torsions:
REMARK  status: ('A' for Active; 'I' for Inactive)
REMARK    1  A    between atoms: C_1  and  C_2
REMARK    2  A    between atoms: C_5  and  C_7
REMARK    3  A    between atoms: C_7  and  C_8
REMARK    4  A    between atoms: C_12  and  O_13
REMARK    5  A    between atoms: O_13  and  C_14
REMARK    6  A    between atoms: C_14  and  C_15
REMARK                            x       y       z     vdW  Elec       q    Type
REMARK                         _______ _______ _______ _____ _____    ______ ____
ROOT
ATOM      1  C   UNL     1       4.519   3.449  19.063  0.00  0.00    +0.000 C 
ENDROOT
BRANCH   1   6
ATOM      2  C   UNL     1       7.973   7.204  18.205  0.00  0.00    +0.000 C 
ATOM      3  C   UNL     1       7.064   6.381  17.300  0.00  0.00    +0.000 C 
ATOM      4  C   UNL     1       6.717   5.041  17.942  0.00  0.00    +0.000 C 
ATOM      5  N   UNL     1       5.826   4.256  17.070  0.00  0.00    +0.000 N 
ATOM      6  C   UNL     1       4.737   3.503  17.546  0.00  0.00    +0.000 C 
ATOM      7  O   UNL     1       3.915   2.962  16.802  0.00  0.00    +0.000 OA
ATOM      8  C   UNL     1       6.183   4.329  15.671  0.00  0.00    +0.000 A 
ATOM      9  C   UNL     1       5.652   3.470  14.695  0.00  0.00    +0.000 A 
ATOM     10  C   UNL     1       6.024   3.574  13.350  0.00  0.00    +0.000 A 
ATOM     11  C   UNL     1       6.946   4.532  12.964  0.00  0.00    +0.000 A 
ATOM     12  F   UNL     1       7.297   4.633  11.675  0.00  0.00    +0.000 F 
ATOM     13  C   UNL     1       7.512   5.382  13.898  0.00  0.00    +0.000 A 
ATOM     14  C   UNL     1       7.130   5.286  15.240  0.00  0.00    +0.000 A 
ATOM     15  O   UNL     1       7.759   6.183  16.069  0.00  0.00    +0.000 OA
ENDBRANCH   1   6
BRANCH   1  16
ATOM     16  C   UNL     1       3.305   4.196  19.589  0.00  0.00    +0.000 A 
ATOM     17  C   UNL     1       2.201   3.464  20.052  0.00  0.00    +0.000 A 
ATOM     18  C   UNL     1       1.083   4.111  20.574  0.00  0.00    +0.000 A 
ATOM     19  C   UNL     1       1.040   5.502  20.618  0.00  0.00    +0.000 A 
ATOM     20  C   UNL     1       2.109   6.251  20.128  0.00  0.00    +0.000 A 
ATOM     21  C   UNL     1       3.258   5.599  19.665  0.00  0.00    +0.000 A 
BRANCH  20  22
ATOM     22  O   UNL     1       2.123   7.621  20.054  0.00  0.00    +0.000 OA
BRANCH  22  23
ATOM     23  C   UNL     1       1.344   8.273  21.061  0.00  0.00    +0.000 C 
BRANCH  23  24
ATOM     24  C   UNL     1       0.606   9.436  20.467  0.00  0.00    +0.000 A 
ATOM     25  C   UNL     1       0.658   9.704  19.096  0.00  0.00    +0.000 A 
ATOM     26  C   UNL     1      -0.082  10.758  18.572  0.00  0.00    +0.000 A 
ATOM     27  C   UNL     1      -0.856  11.509  19.440  0.00  0.00    +0.000 A 
ATOM     28  N   UNL     1      -0.942  11.276  20.769  0.00  0.00    +0.000 NA
ATOM     29  C   UNL     1      -0.209  10.247  21.248  0.00  0.00    +0.000 A 
ENDBRANCH  23  24
ENDBRANCH  22  23
ENDBRANCH  20  22
ENDBRANCH   1  16
TORSDOF 5
ENDMDL
MODEL 5
REMARK VINA RESULT:      -8.6      4.046      8.478
REMARK  Name = 
REMARK  6 active torsions:
REMARK  status: ('A' for Active; 'I' for Inactive)
REMARK    1  A    between atoms: C_1  and  C_2
REMARK    2  A    between atoms: C_5  and  C_7
REMARK    3  A    between atoms: C_7  and  C_8
REMARK    4  A    between atoms: C_12  and  O_13
REMARK    5  A    between atoms: O_13  and  C_14
REMARK    6  A    between atoms: C_14  and  C_15
REMARK                            x       y       z     vdW  Elec       q    Type
REMARK                         _______ _______ _______ _____ _____    ______ ____
ROOT
ATOM      1  C   UNL     1       3.800   3.943  18.862  0.00  0.00    +0.000 C 
ENDROOT
BRANCH   1   6
ATOM      2  C   UNL     1       7.915   7.019  18.252  0.00  0.00    +0.000 C 
ATOM      3  C   UNL     1       6.953   6.342  17.283  0.00  0.00    +0.000 C 
ATOM      4  C   UNL     1       6.326   5.100  17.911  0.00  0.00    +0.000 C 
ATOM      5  N   UNL     1       5.385   4.457  16.977  0.00  0.00    +0.000 N 
ATOM      6  C   UNL     1       4.146   3.918  17.369  0.00  0.00    +0.000 C 
ATOM      7  O   UNL     1       3.305   3.507  16.565  0.00  0.00    +0.000 OA
ATOM      8  C   UNL     1       5.862   4.429  15.613  0.00  0.00    +0.000 A 
ATOM      9  C   UNL     1       5.269   3.648  14.606  0.00  0.00    +0.000 A 
ATOM     10  C   UNL     1       5.762   3.649  13.296  0.00  0.00    +0.000 A 
ATOM     11  C   UNL     1       6.866   4.422  12.977  0.00  0.00    +0.000 A 
ATOM     12  F   UNL     1       7.333   4.425  11.721  0.00  0.00    +0.000 F 
ATOM     13  C   UNL     1       7.494   5.186  13.945  0.00  0.00    +0.000 A 
ATOM     14  C   UNL     1       6.993   5.195  15.250  0.00  0.00    +0.000 A 
ATOM     15  O   UNL     1       7.700   5.992  16.118  0.00  0.00    +0.000 OA
ENDBRANCH   1   6
BRANCH   1  16
ATOM     16  C   UNL     1       3.029   5.160  19.346  0.00  0.00    +0.000 A 
ATOM     17  C   UNL     1       2.189   5.034  20.464  0.00  0.00    +0.000 A 
ATOM     18  C   UNL     1       1.492   6.134  20.960  0.00  0.00    +0.000 A 
ATOM     19  C   UNL     1       1.602   7.371  20.332  0.00  0.00    +0.000 A 
ATOM     20  C   UNL     1       2.400   7.511  19.196  0.00  0.00    +0.000 A 
ATOM     21  C   UNL     1       3.151   6.421  18.739  0.00  0.00    +0.000 A 
BRANCH  20  22
ATOM     22  O   UNL     1       2.506   8.666  18.464  0.00  0.00    +0.000 OA
BRANCH  22  23
ATOM     23  C   UNL     1       1.393   8.920  17.601  0.00  0.00    +0.000 C 
BRANCH  23  24
ATOM     24  C   UNL     1       0.498   9.958  18.210  0.00  0.00    +0.000 A 
ATOM     25  C   UNL     1      -0.881   9.952  17.981  0.00  0.00    +0.000 A 
ATOM     26  C   UNL     1      -1.687  10.897  18.605  0.00  0.00    +0.000 A 
ATOM     27  C   UNL     1      -1.084  11.817  19.446  0.00  0.00    +0.000 A 
ATOM     28  N   UNL     1       0.242  11.850  19.703  0.00  0.00    +0.000 NA
ATOM     29  C   UNL     1       0.999  10.921  19.078  0.00  0.00    +0.000 A 
ENDBRANCH  23  24
ENDBRANCH  22  23
ENDBRANCH  20  22
ENDBRANCH   1  16
TORSDOF 5
ENDMDL
MODEL 6
REMARK VINA RESULT:      -8.6      4.002      8.275
REMARK  Name = 
REMARK  6 active torsions:
REMARK  status: ('A' for Active; 'I' for Inactive)
REMARK    1  A    between atoms: C_1  and  C_2
REMARK    2  A    between atoms: C_5  and  C_7
REMARK    3  A    between atoms: C_7  and  C_8
REMARK    4  A    between atoms: C_12  and  O_13
REMARK    5  A    between atoms: O_13  and  C_14
REMARK    6  A    between atoms: C_14  and  C_15
REMARK                            x       y       z     vdW  Elec       q    Type
REMARK                         _______ _______ _______ _____ _____    ______ ____
ROOT
ATOM      1  C   UNL     1       4.824   3.655  19.206  0.00  0.00    +0.000 C 
ENDROOT
BRANCH   1   6
ATOM      2  C   UNL     1       8.032   7.545  18.051  0.00  0.00    +0.000 C 
ATOM      3  C   UNL     1       7.151   6.624  17.217  0.00  0.00    +0.000 C 
ATOM      4  C   UNL     1       6.897   5.304  17.941  0.00  0.00    +0.000 C 
ATOM      5  N   UNL     1       6.032   4.423  17.138  0.00  0.00    +0.000 N 
ATOM      6  C   UNL     1       5.000   3.637  17.684  0.00  0.00    +0.000 C 
ATOM      7  O   UNL     1       4.193   3.010  16.993  0.00  0.00    +0.000 OA
ATOM      8  C   UNL     1       6.350   4.438  15.727  0.00  0.00    +0.000 A 
ATOM      9  C   UNL     1       5.845   3.497  14.814  0.00  0.00    +0.000 A 
ATOM     10  C   UNL     1       6.177   3.547  13.455  0.00  0.00    +0.000 A 
ATOM     11  C   UNL     1       7.033   4.532  12.993  0.00  0.00    +0.000 A 
ATOM     12  F   UNL     1       7.346   4.580  11.691  0.00  0.00    +0.000 F 
ATOM     13  C   UNL     1       7.572   5.463  13.863  0.00  0.00    +0.000 A 
ATOM     14  C   UNL     1       7.228   5.421  15.218  0.00  0.00    +0.000 A 
ATOM     15  O   UNL     1       7.825   6.397  15.980  0.00  0.00    +0.000 OA
ENDBRANCH   1   6
BRANCH   1  16
ATOM     16  C   UNL     1       3.393   3.753  19.710  0.00  0.00    +0.000 A 
ATOM     17  C   UNL     1       2.632   2.579  19.831  0.00  0.00    +0.000 A 
ATOM     18  C   UNL     1       1.328   2.622  20.321  0.00  0.00    +0.000 A 
ATOM     19  C   UNL     1       0.755   3.841  20.674  0.00  0.00    +0.000 A 
ATOM     20  C   UNL     1       1.479   5.023  20.526  0.00  0.00    +0.000 A 
ATOM     21  C   UNL     1       2.810   4.971  20.096  0.00  0.00    +0.000 A 
BRANCH  20  22
ATOM     22  O   UNL     1       0.973   6.275  20.769  0.00  0.00    +0.000 OA
BRANCH  22  23
ATOM     23  C   UNL     1       1.908   7.338  20.568  0.00  0.00    +0.000 C 
BRANCH  23  24
ATOM     24  C   UNL     1       1.265   8.655  20.889  0.00  0.00    +0.000 A 
ATOM     25  C   UNL     1       0.641   9.419  19.899  0.00  0.00    +0.000 A 
ATOM     26  C   UNL     1       0.009  10.608  20.243  0.00  0.00    +0.000 A 
ATOM     27  C   UNL     1       0.017  10.993  21.572  0.00  0.00    +0.000 A 
ATOM     28  N   UNL     1       0.599  10.278  22.561  0.00  0.00    +0.000 NA
ATOM     29  C   UNL     1       1.209   9.129  22.195  0.00  0.00    +0.000 A 
ENDBRANCH  23  24
ENDBRANCH  22  23
ENDBRANCH  20  22
ENDBRANCH   1  16
TORSDOF 5
ENDMDL
MODEL 7
REMARK VINA RESULT:      -8.6      2.865      4.570
REMARK  Name = 
REMARK  6 active torsions:
REMARK  status: ('A' for Active; 'I' for Inactive)
REMARK    1  A    between atoms: C_1  and  C_2
REMARK    2  A    between atoms: C_5  and  C_7
REMARK    3  A    between atoms: C_7  and  C_8
REMARK    4  A    between atoms: C_12  and  O_13
REMARK    5  A    between atoms: O_13  and  C_14
REMARK    6  A    between atoms: C_14  and  C_15
REMARK                            x       y       z     vdW  Elec       q    Type
REMARK                         _______ _______ _______ _____ _____    ______ ____
ROOT
ATOM      1  C   UNL     1       1.584   9.777  18.120  0.00  0.00    +0.000 C 
ENDROOT
BRANCH   1   6
ATOM      2  C   UNL     1      -2.954  10.087  15.655  0.00  0.00    +0.000 C 
ATOM      3  C   UNL     1      -2.333  10.852  16.817  0.00  0.00    +0.000 C 
ATOM      4  C   UNL     1      -1.285  10.004  17.534  0.00  0.00    +0.000 C 
ATOM      5  N   UNL     1      -0.675  10.752  18.647  0.00  0.00    +0.000 N 
ATOM      6  C   UNL     1       0.698  10.710  18.953  0.00  0.00    +0.000 C 
ATOM      7  O   UNL     1       1.223  11.443  19.796  0.00  0.00    +0.000 OA
ATOM      8  C   UNL     1      -1.628  11.534  19.402  0.00  0.00    +0.000 A 
ATOM      9  C   UNL     1      -1.334  12.113  20.647  0.00  0.00    +0.000 A 
ATOM     10  C   UNL     1      -2.287  12.864  21.346  0.00  0.00    +0.000 A 
ATOM     11  C   UNL     1      -3.554  13.033  20.815  0.00  0.00    +0.000 A 
ATOM     12  F   UNL     1      -4.462  13.756  21.484  0.00  0.00    +0.000 F 
ATOM     13  C   UNL     1      -3.892  12.458  19.602  0.00  0.00    +0.000 A 
ATOM     14  C   UNL     1      -2.936  11.720  18.898  0.00  0.00    +0.000 A 
ATOM     15  O   UNL     1      -3.390  11.202  17.709  0.00  0.00    +0.000 OA
ENDBRANCH   1   6
BRANCH   1  16
ATOM     16  C   UNL     1       1.872   8.414  18.728  0.00  0.00    +0.000 A 
ATOM     17  C   UNL     1       1.513   8.174  20.064  0.00  0.00    +0.000 A 
ATOM     18  C   UNL     1       1.729   6.928  20.648  0.00  0.00    +0.000 A 
ATOM     19  C   UNL     1       2.331   5.909  19.914  0.00  0.00    +0.000 A 
ATOM     20  C   UNL     1       2.731   6.137  18.598  0.00  0.00    +0.000 A 
ATOM     21  C   UNL     1       2.454   7.368  17.993  0.00  0.00    +0.000 A 
BRANCH  20  22
ATOM     22  O   UNL     1       3.404   5.224  17.826  0.00  0.00    +0.000 OA
BRANCH  22  23
ATOM     23  C   UNL     1       4.435   5.788  17.010  0.00  0.00    +0.000 C 
BRANCH  23  24
ATOM     24  C   UNL     1       5.717   5.868  17.786  0.00  0.00    +0.000 A 
ATOM     25  C   UNL     1       6.711   6.791  17.451  0.00  0.00    +0.000 A 
ATOM     26  C   UNL     1       7.863   6.874  18.224  0.00  0.00    +0.000 A 
ATOM     27  C   UNL     1       7.980   6.030  19.316  0.00  0.00    +0.000 A 
ATOM     28  N   UNL     1       7.037   5.132  19.680  0.00  0.00    +0.000 NA
ATOM     29  C   UNL     1       5.931   5.073  18.906  0.00  0.00    +0.000 A 
ENDBRANCH  23  24
ENDBRANCH  22  23
ENDBRANCH  20  22
ENDBRANCH   1  16
TORSDOF 5
ENDMDL
MODEL 8
REMARK VINA RESULT:      -8.5      3.510      5.205
REMARK  Name = 
REMARK  6 active torsions:
REMARK  status: ('A' for Active; 'I' for Inactive)
REMARK    1  A    between atoms: C_1  and  C_2
REMARK    2  A    between atoms: C_5  and  C_7
REMARK    3  A    between atoms: C_7  and  C_8
REMARK    4  A    between atoms: C_12  and  O_13
REMARK    5  A    between atoms: O_13  and  C_14
REMARK    6  A    between atoms: C_14  and  C_15
REMARK                            x       y       z     vdW  Elec       q    Type
REMARK                         _______ _______ _______ _____ _____    ______ ____
ROOT
ATOM      1  C   UNL     1       0.855  10.199  17.945  0.00  0.00    +0.000 C 
ENDROOT
BRANCH   1   6
ATOM      2  C   UNL     1      -3.201   9.997  14.739  0.00  0.00    +0.000 C 
ATOM      3  C   UNL     1      -2.882  10.815  15.984  0.00  0.00    +0.000 C 
ATOM      4  C   UNL     1      -1.878  10.090  16.876  0.00  0.00    +0.000 C 
ATOM      5  N   UNL     1      -1.560  10.892  18.070  0.00  0.00    +0.000 N 
ATOM      6  C   UNL     1      -0.265  11.010  18.606  0.00  0.00    +0.000 C 
ATOM      7  O   UNL     1       0.018  11.789  19.520  0.00  0.00    +0.000 OA
ATOM      8  C   UNL     1      -2.715  11.545  18.645  0.00  0.00    +0.000 A 
ATOM      9  C   UNL     1      -2.709  12.139  19.918  0.00  0.00    +0.000 A 
ATOM     10  C   UNL     1      -3.849  12.763  20.438  0.00  0.00    +0.000 A 
ATOM     11  C   UNL     1      -5.018  12.786  19.698  0.00  0.00    +0.000 A 
ATOM     12  F   UNL     1      -6.107  13.387  20.196  0.00  0.00    +0.000 F 
ATOM     13  C   UNL     1      -5.074  12.190  18.450  0.00  0.00    +0.000 A 
ATOM     14  C   UNL     1      -3.930  11.580  17.925  0.00  0.00    +0.000 A 
ATOM     15  O   UNL     1      -4.111  11.026  16.680  0.00  0.00    +0.000 OA
ENDBRANCH   1   6
BRANCH   1  16
ATOM     16  C   UNL     1       1.343   8.984  18.716  0.00  0.00    +0.000 A 
ATOM     17  C   UNL     1       1.126   8.924  20.102  0.00  0.00    +0.000 A 
ATOM     18  C   UNL     1       1.528   7.813  20.839  0.00  0.00    +0.000 A 
ATOM     19  C   UNL     1       2.176   6.754  20.209  0.00  0.00    +0.000 A 
ATOM     20  C   UNL     1       2.436   6.808  18.840  0.00  0.00    +0.000 A 
ATOM     21  C   UNL     1       1.974   7.896  18.090  0.00  0.00    +0.000 A 
BRANCH  20  22
ATOM     22  O   UNL     1       3.138   5.854  18.149  0.00  0.00    +0.000 OA
BRANCH  22  23
ATOM     23  C   UNL     1       4.153   6.379  17.287  0.00  0.00    +0.000 C 
BRANCH  23  24
ATOM     24  C   UNL     1       5.503   6.204  17.919  0.00  0.00    +0.000 A 
ATOM     25  C   UNL     1       6.605   6.951  17.494  0.00  0.00    +0.000 A 
ATOM     26  C   UNL     1       7.828   6.801  18.138  0.00  0.00    +0.000 A 
ATOM     27  C   UNL     1       7.907   5.909  19.193  0.00  0.00    +0.000 A 
ATOM     28  N   UNL     1       6.863   5.176  19.641  0.00  0.00    +0.000 NA
ATOM     29  C   UNL     1       5.689   5.341  18.993  0.00  0.00    +0.000 A 
ENDBRANCH  23  24
ENDBRANCH  22  23
ENDBRANCH  20  22
ENDBRANCH   1  16
TORSDOF 5
ENDMDL
MODEL 9
REMARK VINA RESULT:      -8.5      4.008      8.732
REMARK  Name = 
REMARK  6 active torsions:
REMARK  status: ('A' for Active; 'I' for Inactive)
REMARK    1  A    between atoms: C_1  and  C_2
REMARK    2  A    between atoms: C_5  and  C_7
REMARK    3  A    between atoms: C_7  and  C_8
REMARK    4  A    between atoms: C_12  and  O_13
REMARK    5  A    between atoms: O_13  and  C_14
REMARK    6  A    between atoms: C_14  and  C_15
REMARK                            x       y       z     vdW  Elec       q    Type
REMARK                         _______ _______ _______ _____ _____    ______ ____
ROOT
ATOM      1  C   UNL     1       3.674   4.006  18.724  0.00  0.00    +0.000 C 
ENDROOT
BRANCH   1   6
ATOM      2  C   UNL     1       7.862   6.992  18.164  0.00  0.00    +0.000 C 
ATOM      3  C   UNL     1       6.907   6.323  17.184  0.00  0.00    +0.000 C 
ATOM      4  C   UNL     1       6.242   5.101  17.812  0.00  0.00    +0.000 C 
ATOM      5  N   UNL     1       5.307   4.467  16.866  0.00  0.00    +0.000 N 
ATOM      6  C   UNL     1       4.050   3.957  17.239  0.00  0.00    +0.000 C 
ATOM      7  O   UNL     1       3.217   3.553  16.422  0.00  0.00    +0.000 OA
ATOM      8  C   UNL     1       5.811   4.414  15.512  0.00  0.00    +0.000 A 
ATOM      9  C   UNL     1       5.223   3.633  14.502  0.00  0.00    +0.000 A 
ATOM     10  C   UNL     1       5.742   3.610  13.202  0.00  0.00    +0.000 A 
ATOM     11  C   UNL     1       6.867   4.357  12.898  0.00  0.00    +0.000 A 
ATOM     12  F   UNL     1       7.360   4.336  11.652  0.00  0.00    +0.000 F 
ATOM     13  C   UNL     1       7.491   5.119  13.870  0.00  0.00    +0.000 A 
ATOM     14  C   UNL     1       6.964   5.153  15.165  0.00  0.00    +0.000 A 
ATOM     15  O   UNL     1       7.670   5.945  16.038  0.00  0.00    +0.000 OA
ENDBRANCH   1   6
BRANCH   1  16
ATOM     16  C   UNL     1       2.959   5.264  19.189  0.00  0.00    +0.000 A 
ATOM     17  C   UNL     1       2.203   5.221  20.371  0.00  0.00    +0.000 A 
ATOM     18  C   UNL     1       1.561   6.361  20.848  0.00  0.00    +0.000 A 
ATOM     19  C   UNL     1       1.643   7.557  20.140  0.00  0.00    +0.000 A 
ATOM     20  C   UNL     1       2.356   7.613  18.944  0.00  0.00    +0.000 A 
ATOM     21  C   UNL     1       3.055   6.485  18.500  0.00  0.00    +0.000 A 
BRANCH  20  22
ATOM     22  O   UNL     1       2.425   8.721  18.137  0.00  0.00    +0.000 OA
BRANCH  22  23
ATOM     23  C   UNL     1       1.237   9.519  18.130  0.00  0.00    +0.000 C 
BRANCH  23  24
ATOM     24  C   UNL     1       1.537  10.889  18.665  0.00  0.00    +0.000 A 
ATOM     25  C   UNL     1       2.359  11.777  17.965  0.00  0.00    +0.000 A 
ATOM     26  C   UNL     1       2.570  13.057  18.464  0.00  0.00    +0.000 A 
ATOM     27  C   UNL     1       1.946  13.409  19.648  0.00  0.00    +0.000 A 
ATOM     28  N   UNL     1       1.136  12.584  20.349  0.00  0.00    +0.000 NA
ATOM     29  C   UNL     1       0.952  11.346  19.840  0.00  0.00    +0.000 A 
ENDBRANCH  23  24
ENDBRANCH  22  23
ENDBRANCH  20  22
ENDBRANCH   1  16
TORSDOF 5
ENDMDL
