MODEL 1
REMARK VINA RESULT:      -8.2      0.000      0.000
REMARK  Name = 
REMARK  4 active torsions:
REMARK  status: ('A' for Active; 'I' for Inactive)
REMARK    1  A    between atoms: C_2  and  C_11
REMARK    2  A    between atoms: N_3  and  C_4
REMARK    3  A    between atoms: C_14  and  C_15
REMARK    4  A    between atoms: N_17  and  C_18
REMARK                            x       y       z     vdW  Elec       q    Type
REMARK                         _______ _______ _______ _____ _____    ______ ____
ROOT
ATOM      1  C   UNL     1       0.339   9.885  21.522  0.00  0.00    +0.000 A 
ATOM      2  C   UNL     1       0.893   8.620  21.704  0.00  0.00    +0.000 A 
ATOM      3  C   UNL     1       1.555   8.024  20.635  0.00  0.00    +0.000 A 
ATOM      4  C   UNL     1       1.651   8.718  19.426  0.00  0.00    +0.000 A 
ATOM      5  N   UNL     1       1.115   9.950  19.216  0.00  0.00    +0.000 NA
ATOM      6  C   UNL     1       0.450  10.490  20.271  0.00  0.00    +0.000 A 
ENDROOT
BRANCH   1   8
ATOM      7  O   UNL     1      -0.398  10.074  23.697  0.00  0.00    +0.000 OA
ATOM      8  C   UNL     1      -0.405  10.581  22.582  0.00  0.00    +0.000 C 
ATOM      9  N   UNL     1      -1.094  11.714  22.189  0.00  0.00    +0.000 N 
ATOM     10  H   UNL     1      -1.189  11.910  21.196  0.00  0.00    +0.000 HD
BRANCH   9  11
ATOM     11  C   UNL     1      -1.882  12.532  23.036  0.00  0.00    +0.000 A 
ATOM     12  C   UNL     1      -3.140  12.154  23.510  0.00  0.00    +0.000 A 
ATOM     13  C   UNL     1      -3.887  13.021  24.313  0.00  0.00    +0.000 A 
ATOM     14  C   UNL     1      -3.381  14.274  24.655  0.00  0.00    +0.000 A 
ATOM     15  C   UNL     1      -2.116  14.654  24.209  0.00  0.00    +0.000 A 
ATOM     16  C   UNL     1      -1.376  13.780  23.415  0.00  0.00    +0.000 A 
ATOM     17  F   UNL     1      -0.164  14.163  22.983  0.00  0.00    +0.000 F 
ENDBRANCH   9  11
ENDBRANCH   1   8
BRANCH   4  18
ATOM     18  C   UNL     1       2.377   8.076  18.292  0.00  0.00    +0.000 C 
ATOM     19  O   UNL     1       2.265   8.579  17.176  0.00  0.00    +0.000 OA
ATOM     20  N   UNL     1       3.086   6.930  18.605  0.00  0.00    +0.000 N 
ATOM     21  H   UNL     1       2.974   6.571  19.553  0.00  0.00    +0.000 HD
BRANCH  20  22
ATOM     22  C   UNL     1       3.847   6.160  17.695  0.00  0.00    +0.000 A 
ATOM     23  C   UNL     1       4.880   6.702  16.928  0.00  0.00    +0.000 A 
ATOM     24  C   UNL     1       5.589   5.916  16.015  0.00  0.00    +0.000 A 
ATOM     25  C   UNL     1       5.274   4.570  15.861  0.00  0.00    +0.000 A 
ATOM     26  C   UNL     1       4.259   4.007  16.635  0.00  0.00    +0.000 A 
ATOM     27  C   UNL     1       3.562   4.799  17.549  0.00  0.00    +0.000 A 
ATOM     28  F   UNL     1       2.579   4.239  18.270  0.00  0.00    +0.000 F 
ENDBRANCH  20  22
ENDBRANCH   4  18
TORSDOF 4
ENDMDL
MODEL 2
REMARK VINA RESULT:      -8.2      0.382     10.107
REMARK  Name = 
REMARK  4 active torsions:
REMARK  status: ('A' for Active; 'I' for Inactive)
REMARK    1  A    between atoms: C_2  and  C_11
REMARK    2  A    between atoms: N_3  and  C_4
REMARK    3  A    between atoms: C_14  and  C_15
REMARK    4  A    between atoms: N_17  and  C_18
REMARK                            x       y       z     vdW  Elec       q    Type
REMARK                         _______ _______ _______ _____ _____    ______ ____
ROOT
ATOM      1  C   UNL     1       1.646   8.644  19.435  0.00  0.00    +0.000 A 
ATOM      2  C   UNL     1       1.578   8.043  20.690  0.00  0.00    +0.000 A 
ATOM      3  C   UNL     1       0.890   8.700  21.706  0.00  0.00    +0.000 A 
ATOM      4  C   UNL     1       0.286   9.928  21.429  0.00  0.00    +0.000 A 
ATOM      5  N   UNL     1       0.341  10.544  20.218  0.00  0.00    +0.000 NA
ATOM      6  C   UNL     1       1.044   9.890  19.257  0.00  0.00    +0.000 A 
ENDROOT
BRANCH   1   8
ATOM      7  O   UNL     1       2.254   8.580  17.214  0.00  0.00    +0.000 OA
ATOM      8  C   UNL     1       2.374   8.043  18.309  0.00  0.00    +0.000 C 
ATOM      9  N   UNL     1       3.075   6.885  18.594  0.00  0.00    +0.000 N 
ATOM     10  H   UNL     1       2.924   6.430  19.490  0.00  0.00    +0.000 HD
BRANCH   9  11
ATOM     11  C   UNL     1       3.836   6.135  17.665  0.00  0.00    +0.000 A 
ATOM     12  C   UNL     1       4.840   6.693  16.871  0.00  0.00    +0.000 A 
ATOM     13  C   UNL     1       5.532   5.907  15.944  0.00  0.00    +0.000 A 
ATOM     14  C   UNL     1       5.231   4.553  15.805  0.00  0.00    +0.000 A 
ATOM     15  C   UNL     1       4.248   3.978  16.609  0.00  0.00    +0.000 A 
ATOM     16  C   UNL     1       3.569   4.767  17.536  0.00  0.00    +0.000 A 
ATOM     17  F   UNL     1       2.617   4.202  18.296  0.00  0.00    +0.000 F 
ENDBRANCH   9  11
ENDBRANCH   1   8
BRANCH   4  18
ATOM     18  C   UNL     1      -0.462  10.616  22.522  0.00  0.00    +0.000 C 
ATOM     19  O   UNL     1      -0.443  10.112  23.642  0.00  0.00    +0.000 OA
ATOM     20  N   UNL     1      -1.152  11.758  22.151  0.00  0.00    +0.000 N 
ATOM     21  H   UNL     1      -1.170  11.974  21.155  0.00  0.00    +0.000 HD
BRANCH  20  22
ATOM     22  C   UNL     1      -1.922  12.569  23.016  0.00  0.00    +0.000 A 
ATOM     23  C   UNL     1      -3.178  12.187  23.491  0.00  0.00    +0.000 A 
ATOM     24  C   UNL     1      -3.924  13.030  24.319  0.00  0.00    +0.000 A 
ATOM     25  C   UNL     1      -3.417  14.273  24.686  0.00  0.00    +0.000 A 
ATOM     26  C   UNL     1      -2.155  14.663  24.237  0.00  0.00    +0.000 A 
ATOM     27  C   UNL     1      -1.415  13.809  23.417  0.00  0.00    +0.000 A 
ATOM     28  F   UNL     1      -0.211  14.213  22.985  0.00  0.00    +0.000 F 
ENDBRANCH  20  22
ENDBRANCH   4  18
TORSDOF 4
ENDMDL
MODEL 3
REMARK VINA RESULT:      -8.0      2.051      9.983
REMARK  Name = 
REMARK  4 active torsions:
REMARK  status: ('A' for Active; 'I' for Inactive)
REMARK    1  A    between atoms: C_2  and  C_11
REMARK    2  A    between atoms: N_3  and  C_4
REMARK    3  A    between atoms: C_14  and  C_15
REMARK    4  A    between atoms: N_17  and  C_18
REMARK                            x       y       z     vdW  Elec       q    Type
REMARK                         _______ _______ _______ _____ _____    ______ ____
ROOT
ATOM      1  C   UNL     1       2.395   7.746  18.533  0.00  0.00    +0.000 A 
ATOM      2  C   UNL     1       1.966   8.773  17.696  0.00  0.00    +0.000 A 
ATOM      3  C   UNL     1       1.141   9.761  18.225  0.00  0.00    +0.000 A 
ATOM      4  C   UNL     1       0.784   9.695  19.574  0.00  0.00    +0.000 A 
ATOM      5  N   UNL     1       1.181   8.702  20.414  0.00  0.00    +0.000 NA
ATOM      6  C   UNL     1       1.961   7.738  19.858  0.00  0.00    +0.000 A 
ENDROOT
BRANCH   1   8
ATOM      7  O   UNL     1       2.946   5.511  18.428  0.00  0.00    +0.000 OA
ATOM      8  C   UNL     1       3.242   6.642  18.059  0.00  0.00    +0.000 C 
ATOM      9  N   UNL     1       4.331   7.006  17.290  0.00  0.00    +0.000 N 
ATOM     10  H   UNL     1       4.582   7.989  17.231  0.00  0.00    +0.000 HD
BRANCH   9  11
ATOM     11  C   UNL     1       5.283   6.114  16.737  0.00  0.00    +0.000 A 
ATOM     12  C   UNL     1       5.294   5.745  15.390  0.00  0.00    +0.000 A 
ATOM     13  C   UNL     1       6.238   4.831  14.912  0.00  0.00    +0.000 A 
ATOM     14  C   UNL     1       7.183   4.278  15.775  0.00  0.00    +0.000 A 
ATOM     15  C   UNL     1       7.198   4.657  17.116  0.00  0.00    +0.000 A 
ATOM     16  C   UNL     1       6.259   5.575  17.583  0.00  0.00    +0.000 A 
ATOM     17  F   UNL     1       6.279   5.922  18.880  0.00  0.00    +0.000 F 
ENDBRANCH   9  11
ENDBRANCH   1   8
BRANCH   4  18
ATOM     18  C   UNL     1      -0.087  10.768  20.134  0.00  0.00    +0.000 C 
ATOM     19  O   UNL     1      -1.079  11.102  19.490  0.00  0.00    +0.000 OA
ATOM     20  N   UNL     1       0.337  11.324  21.329  0.00  0.00    +0.000 N 
ATOM     21  H   UNL     1       1.250  11.024  21.670  0.00  0.00    +0.000 HD
BRANCH  20  22
ATOM     22  C   UNL     1      -0.329  12.348  22.041  0.00  0.00    +0.000 A 
ATOM     23  C   UNL     1      -0.022  13.700  21.882  0.00  0.00    +0.000 A 
ATOM     24  C   UNL     1      -0.681  14.682  22.628  0.00  0.00    +0.000 A 
ATOM     25  C   UNL     1      -1.664  14.319  23.544  0.00  0.00    +0.000 A 
ATOM     26  C   UNL     1      -1.997  12.974  23.700  0.00  0.00    +0.000 A 
ATOM     27  C   UNL     1      -1.339  12.003  22.945  0.00  0.00    +0.000 A 
ATOM     28  F   UNL     1      -1.666  10.714  23.125  0.00  0.00    +0.000 F 
ENDBRANCH  20  22
ENDBRANCH   4  18
TORSDOF 4
ENDMDL
MODEL 4
REMARK VINA RESULT:      -8.0      1.891      2.352
REMARK  Name = 
REMARK  4 active torsions:
REMARK  status: ('A' for Active; 'I' for Inactive)
REMARK    1  A    between atoms: C_2  and  C_11
REMARK    2  A    between atoms: N_3  and  C_4
REMARK    3  A    between atoms: C_14  and  C_15
REMARK    4  A    between atoms: N_17  and  C_18
REMARK                            x       y       z     vdW  Elec       q    Type
REMARK                         _______ _______ _______ _____ _____    ______ ____
ROOT
ATOM      1  C   UNL     1       0.638   9.769  19.583  0.00  0.00    +0.000 A 
ATOM      2  C   UNL     1       1.006   9.741  18.239  0.00  0.00    +0.000 A 
ATOM      3  C   UNL     1       1.844   8.721  17.801  0.00  0.00    +0.000 A 
ATOM      4  C   UNL     1       2.276   7.759  18.717  0.00  0.00    +0.000 A 
ATOM      5  N   UNL     1       1.940   7.763  20.035  0.00  0.00    +0.000 NA
ATOM      6  C   UNL     1       1.144   8.789  20.436  0.00  0.00    +0.000 A 
ENDROOT
BRANCH   1   8
ATOM      7  O   UNL     1      -0.907  11.464  19.360  0.00  0.00    +0.000 OA
ATOM      8  C   UNL     1      -0.218  10.824  20.146  0.00  0.00    +0.000 C 
ATOM      9  N   UNL     1      -0.108  11.025  21.509  0.00  0.00    +0.000 N 
ATOM     10  H   UNL     1       0.650  10.571  22.011  0.00  0.00    +0.000 HD
BRANCH   9  11
ATOM     11  C   UNL     1      -0.826  11.989  22.258  0.00  0.00    +0.000 A 
ATOM     12  C   UNL     1      -2.014  11.703  22.934  0.00  0.00    +0.000 A 
ATOM     13  C   UNL     1      -2.698  12.707  23.627  0.00  0.00    +0.000 A 
ATOM     14  C   UNL     1      -2.197  14.008  23.656  0.00  0.00    +0.000 A 
ATOM     15  C   UNL     1      -0.999  14.301  23.007  0.00  0.00    +0.000 A 
ATOM     16  C   UNL     1      -0.321  13.292  22.325  0.00  0.00    +0.000 A 
ATOM     17  F   UNL     1       0.827  13.592  21.695  0.00  0.00    +0.000 F 
ENDBRANCH   9  11
ENDBRANCH   1   8
BRANCH   4  18
ATOM     18  C   UNL     1       3.162   6.661  18.232  0.00  0.00    +0.000 C 
ATOM     19  O   UNL     1       2.879   5.508  18.548  0.00  0.00    +0.000 OA
ATOM     20  N   UNL     1       4.263   7.059  17.494  0.00  0.00    +0.000 N 
ATOM     21  H   UNL     1       4.426   8.064  17.428  0.00  0.00    +0.000 HD
BRANCH  20  22
ATOM     22  C   UNL     1       5.232   6.197  16.933  0.00  0.00    +0.000 A 
ATOM     23  C   UNL     1       5.274   5.890  15.572  0.00  0.00    +0.000 A 
ATOM     24  C   UNL     1       6.229   5.007  15.059  0.00  0.00    +0.000 A 
ATOM     25  C   UNL     1       7.161   4.420  15.909  0.00  0.00    +0.000 A 
ATOM     26  C   UNL     1       7.148   4.730  17.268  0.00  0.00    +0.000 A 
ATOM     27  C   UNL     1       6.195   5.619  17.768  0.00  0.00    +0.000 A 
ATOM     28  F   UNL     1       6.191   5.890  19.082  0.00  0.00    +0.000 F 
ENDBRANCH  20  22
ENDBRANCH   4  18
TORSDOF 4
ENDMDL
MODEL 5
REMARK VINA RESULT:      -7.9      1.876     10.033
REMARK  Name = 
REMARK  4 active torsions:
REMARK  status: ('A' for Active; 'I' for Inactive)
REMARK    1  A    between atoms: C_2  and  C_11
REMARK    2  A    between atoms: N_3  and  C_4
REMARK    3  A    between atoms: C_14  and  C_15
REMARK    4  A    between atoms: N_17  and  C_18
REMARK                            x       y       z     vdW  Elec       q    Type
REMARK                         _______ _______ _______ _____ _____    ______ ____
ROOT
ATOM      1  C   UNL     1       2.308   7.734  18.677  0.00  0.00    +0.000 A 
ATOM      2  C   UNL     1       1.844   8.735  17.828  0.00  0.00    +0.000 A 
ATOM      3  C   UNL     1       0.985   9.701  18.346  0.00  0.00    +0.000 A 
ATOM      4  C   UNL     1       0.632   9.638  19.695  0.00  0.00    +0.000 A 
ATOM      5  N   UNL     1       1.063   8.669  20.547  0.00  0.00    +0.000 NA
ATOM      6  C   UNL     1       1.875   7.726  20.003  0.00  0.00    +0.000 A 
ENDROOT
BRANCH   1   8
ATOM      7  O   UNL     1       2.920   5.515  18.576  0.00  0.00    +0.000 OA
ATOM      8  C   UNL     1       3.193   6.654  18.216  0.00  0.00    +0.000 C 
ATOM      9  N   UNL     1       4.287   7.050  17.468  0.00  0.00    +0.000 N 
ATOM     10  H   UNL     1       4.512   8.039  17.416  0.00  0.00    +0.000 HD
BRANCH   9  11
ATOM     11  C   UNL     1       5.272   6.185  16.931  0.00  0.00    +0.000 A 
ATOM     12  C   UNL     1       5.338   5.849  15.577  0.00  0.00    +0.000 A 
ATOM     13  C   UNL     1       6.313   4.959  15.113  0.00  0.00    +0.000 A 
ATOM     14  C   UNL     1       7.234   4.401  15.997  0.00  0.00    +0.000 A 
ATOM     15  C   UNL     1       7.194   4.748  17.346  0.00  0.00    +0.000 A 
ATOM     16  C   UNL     1       6.225   5.641  17.799  0.00  0.00    +0.000 A 
ATOM     17  F   UNL     1       6.191   5.958  19.104  0.00  0.00    +0.000 F 
ENDBRANCH   9  11
ENDBRANCH   1   8
BRANCH   4  18
ATOM     18  C   UNL     1      -0.277  10.687  20.243  0.00  0.00    +0.000 C 
ATOM     19  O   UNL     1      -1.141  11.148  19.502  0.00  0.00    +0.000 OA
ATOM     20  N   UNL     1      -0.026  11.077  21.547  0.00  0.00    +0.000 N 
ATOM     21  H   UNL     1       0.810  10.689  21.985  0.00  0.00    +0.000 HD
BRANCH  20  22
ATOM     22  C   UNL     1      -0.757  12.048  22.269  0.00  0.00    +0.000 A 
ATOM     23  C   UNL     1      -1.952  11.757  22.930  0.00  0.00    +0.000 A 
ATOM     24  C   UNL     1      -2.664  12.751  23.608  0.00  0.00    +0.000 A 
ATOM     25  C   UNL     1      -2.182  14.056  23.635  0.00  0.00    +0.000 A 
ATOM     26  C   UNL     1      -0.980  14.361  22.998  0.00  0.00    +0.000 A 
ATOM     27  C   UNL     1      -0.274  13.359  22.330  0.00  0.00    +0.000 A 
ATOM     28  F   UNL     1       0.872  13.680  21.712  0.00  0.00    +0.000 F 
ENDBRANCH  20  22
ENDBRANCH   4  18
TORSDOF 4
ENDMDL
MODEL 6
REMARK VINA RESULT:      -7.9      2.038      2.676
REMARK  Name = 
REMARK  4 active torsions:
REMARK  status: ('A' for Active; 'I' for Inactive)
REMARK    1  A    between atoms: C_2  and  C_11
REMARK    2  A    between atoms: N_3  and  C_4
REMARK    3  A    between atoms: C_14  and  C_15
REMARK    4  A    between atoms: N_17  and  C_18
REMARK                            x       y       z     vdW  Elec       q    Type
REMARK                         _______ _______ _______ _____ _____    ______ ____
ROOT
ATOM      1  C   UNL     1       0.653   9.813  19.527  0.00  0.00    +0.000 A 
ATOM      2  C   UNL     1       0.945   9.761  18.165  0.00  0.00    +0.000 A 
ATOM      3  C   UNL     1       1.754   8.730  17.698  0.00  0.00    +0.000 A 
ATOM      4  C   UNL     1       2.233   7.781  18.603  0.00  0.00    +0.000 A 
ATOM      5  N   UNL     1       1.972   7.809  19.938  0.00  0.00    +0.000 NA
ATOM      6  C   UNL     1       1.204   8.844  20.366  0.00  0.00    +0.000 A 
ENDROOT
BRANCH   1   8
ATOM      7  O   UNL     1      -1.187  11.199  19.521  0.00  0.00    +0.000 OA
ATOM      8  C   UNL     1      -0.166  10.880  20.119  0.00  0.00    +0.000 C 
ATOM      9  N   UNL     1       0.339  11.460  21.268  0.00  0.00    +0.000 N 
ATOM     10  H   UNL     1       1.294  11.248  21.544  0.00  0.00    +0.000 HD
BRANCH   9  11
ATOM     11  C   UNL     1      -0.274  12.507  21.999  0.00  0.00    +0.000 A 
ATOM     12  C   UNL     1       0.102  13.847  21.877  0.00  0.00    +0.000 A 
ATOM     13  C   UNL     1      -0.517  14.831  22.653  0.00  0.00    +0.000 A 
ATOM     14  C   UNL     1      -1.522  14.488  23.556  0.00  0.00    +0.000 A 
ATOM     15  C   UNL     1      -1.923  13.158  23.669  0.00  0.00    +0.000 A 
ATOM     16  C   UNL     1      -1.306  12.184  22.886  0.00  0.00    +0.000 A 
ATOM     17  F   UNL     1      -1.696  10.905  23.014  0.00  0.00    +0.000 F 
ENDBRANCH   9  11
ENDBRANCH   1   8
BRANCH   4  18
ATOM     18  C   UNL     1       3.087   6.672  18.088  0.00  0.00    +0.000 C 
ATOM     19  O   UNL     1       2.700   5.518  18.256  0.00  0.00    +0.000 OA
ATOM     20  N   UNL     1       4.277   7.056  17.494  0.00  0.00    +0.000 N 
ATOM     21  H   UNL     1       4.511   8.048  17.546  0.00  0.00    +0.000 HD
BRANCH  20  22
ATOM     22  C   UNL     1       5.236   6.181  16.935  0.00  0.00    +0.000 A 
ATOM     23  C   UNL     1       5.287   5.889  15.570  0.00  0.00    +0.000 A 
ATOM     24  C   UNL     1       6.231   4.993  15.059  0.00  0.00    +0.000 A 
ATOM     25  C   UNL     1       7.143   4.379  15.912  0.00  0.00    +0.000 A 
ATOM     26  C   UNL     1       7.120   4.675  17.275  0.00  0.00    +0.000 A 
ATOM     27  C   UNL     1       6.178   5.577  17.774  0.00  0.00    +0.000 A 
ATOM     28  F   UNL     1       6.165   5.833  19.090  0.00  0.00    +0.000 F 
ENDBRANCH  20  22
ENDBRANCH   4  18
TORSDOF 4
ENDMDL
MODEL 7
REMARK VINA RESULT:      -7.9      1.905     10.053
REMARK  Name = 
REMARK  4 active torsions:
REMARK  status: ('A' for Active; 'I' for Inactive)
REMARK    1  A    between atoms: C_2  and  C_11
REMARK    2  A    between atoms: N_3  and  C_4
REMARK    3  A    between atoms: C_14  and  C_15
REMARK    4  A    between atoms: N_17  and  C_18
REMARK                            x       y       z     vdW  Elec       q    Type
REMARK                         _______ _______ _______ _____ _____    ______ ____
ROOT
ATOM      1  C   UNL     1       2.229   7.871  18.673  0.00  0.00    +0.000 A 
ATOM      2  C   UNL     1       1.743   8.848  17.807  0.00  0.00    +0.000 A 
ATOM      3  C   UNL     1       0.922   9.846  18.325  0.00  0.00    +0.000 A 
ATOM      4  C   UNL     1       0.626   9.839  19.690  0.00  0.00    +0.000 A 
ATOM      5  N   UNL     1       1.080   8.896  20.558  0.00  0.00    +0.000 NA
ATOM      6  C   UNL     1       1.854   7.920  20.015  0.00  0.00    +0.000 A 
ENDROOT
BRANCH   1   8
ATOM      7  O   UNL     1       2.622   5.629  18.323  0.00  0.00    +0.000 OA
ATOM      8  C   UNL     1       3.077   6.761  18.215  0.00  0.00    +0.000 C 
ATOM      9  N   UNL     1       4.336   7.112  17.764  0.00  0.00    +0.000 N 
ATOM     10  H   UNL     1       4.666   8.060  17.921  0.00  0.00    +0.000 HD
BRANCH   9  11
ATOM     11  C   UNL     1       5.319   6.209  17.288  0.00  0.00    +0.000 A 
ATOM     12  C   UNL     1       6.108   5.423  18.130  0.00  0.00    +0.000 A 
ATOM     13  C   UNL     1       7.088   4.578  17.601  0.00  0.00    +0.000 A 
ATOM     14  C   UNL     1       7.287   4.507  16.223  0.00  0.00    +0.000 A 
ATOM     15  C   UNL     1       6.490   5.268  15.370  0.00  0.00    +0.000 A 
ATOM     16  C   UNL     1       5.510   6.102  15.906  0.00  0.00    +0.000 A 
ATOM     17  F   UNL     1       4.756   6.838  15.072  0.00  0.00    +0.000 F 
ENDBRANCH   9  11
ENDBRANCH   1   8
BRANCH   4  18
ATOM     18  C   UNL     1      -0.242  10.923  20.236  0.00  0.00    +0.000 C 
ATOM     19  O   UNL     1      -0.876  11.611  19.441  0.00  0.00    +0.000 OA
ATOM     20  N   UNL     1      -0.216  11.077  21.611  0.00  0.00    +0.000 N 
ATOM     21  H   UNL     1       0.461  10.508  22.119  0.00  0.00    +0.000 HD
BRANCH  20  22
ATOM     22  C   UNL     1      -0.957  12.031  22.345  0.00  0.00    +0.000 A 
ATOM     23  C   UNL     1      -2.169  11.730  22.969  0.00  0.00    +0.000 A 
ATOM     24  C   UNL     1      -2.889  12.709  23.659  0.00  0.00    +0.000 A 
ATOM     25  C   UNL     1      -2.399  14.009  23.737  0.00  0.00    +0.000 A 
ATOM     26  C   UNL     1      -1.180  14.323  23.137  0.00  0.00    +0.000 A 
ATOM     27  C   UNL     1      -0.465  13.336  22.457  0.00  0.00    +0.000 A 
ATOM     28  F   UNL     1       0.697  13.666  21.874  0.00  0.00    +0.000 F 
ENDBRANCH  20  22
ENDBRANCH   4  18
TORSDOF 4
ENDMDL
MODEL 8
REMARK VINA RESULT:      -7.8      0.978      1.325
REMARK  Name = 
REMARK  4 active torsions:
REMARK  status: ('A' for Active; 'I' for Inactive)
REMARK    1  A    between atoms: C_2  and  C_11
REMARK    2  A    between atoms: N_3  and  C_4
REMARK    3  A    between atoms: C_14  and  C_15
REMARK    4  A    between atoms: N_17  and  C_18
REMARK                            x       y       z     vdW  Elec       q    Type
REMARK                         _______ _______ _______ _____ _____    ______ ____
ROOT
ATOM      1  C   UNL     1       0.119  10.228  21.526  0.00  0.00    +0.000 A 
ATOM      2  C   UNL     1       0.652   8.966  21.780  0.00  0.00    +0.000 A 
ATOM      3  C   UNL     1       1.329   8.312  20.755  0.00  0.00    +0.000 A 
ATOM      4  C   UNL     1       1.460   8.946  19.518  0.00  0.00    +0.000 A 
ATOM      5  N   UNL     1       0.945  10.173  19.237  0.00  0.00    +0.000 NA
ATOM      6  C   UNL     1       0.265  10.771  20.250  0.00  0.00    +0.000 A 
ENDROOT
BRANCH   1   8
ATOM      7  O   UNL     1      -0.860  10.424  23.602  0.00  0.00    +0.000 OA
ATOM      8  C   UNL     1      -0.639  10.983  22.534  0.00  0.00    +0.000 C 
ATOM      9  N   UNL     1      -1.080  12.233  22.143  0.00  0.00    +0.000 N 
ATOM     10  H   UNL     1      -1.010  12.494  21.164  0.00  0.00    +0.000 HD
BRANCH   9  11
ATOM     11  C   UNL     1      -1.833  13.127  22.945  0.00  0.00    +0.000 A 
ATOM     12  C   UNL     1      -1.251  14.108  23.750  0.00  0.00    +0.000 A 
ATOM     13  C   UNL     1      -2.047  14.936  24.548  0.00  0.00    +0.000 A 
ATOM     14  C   UNL     1      -3.433  14.796  24.545  0.00  0.00    +0.000 A 
ATOM     15  C   UNL     1      -4.028  13.837  23.727  0.00  0.00    +0.000 A 
ATOM     16  C   UNL     1      -3.228  13.021  22.930  0.00  0.00    +0.000 A 
ATOM     17  F   UNL     1      -3.815  12.094  22.154  0.00  0.00    +0.000 F 
ENDBRANCH   9  11
ENDBRANCH   1   8
BRANCH   4  18
ATOM     18  C   UNL     1       2.202   8.242  18.431  0.00  0.00    +0.000 C 
ATOM     19  O   UNL     1       2.207   8.749  17.312  0.00  0.00    +0.000 OA
ATOM     20  N   UNL     1       2.789   7.040  18.787  0.00  0.00    +0.000 N 
ATOM     21  H   UNL     1       2.585   6.694  19.724  0.00  0.00    +0.000 HD
BRANCH  20  22
ATOM     22  C   UNL     1       3.540   6.206  17.927  0.00  0.00    +0.000 A 
ATOM     23  C   UNL     1       4.670   6.653  17.239  0.00  0.00    +0.000 A 
ATOM     24  C   UNL     1       5.369   5.808  16.372  0.00  0.00    +0.000 A 
ATOM     25  C   UNL     1       4.944   4.496  16.185  0.00  0.00    +0.000 A 
ATOM     26  C   UNL     1       3.829   4.027  16.879  0.00  0.00    +0.000 A 
ATOM     27  C   UNL     1       3.144   4.877  17.748  0.00  0.00    +0.000 A 
ATOM     28  F   UNL     1       2.065   4.408  18.393  0.00  0.00    +0.000 F 
ENDBRANCH  20  22
ENDBRANCH   4  18
TORSDOF 4
ENDMDL
MODEL 9
REMARK VINA RESULT:      -7.8      1.987     10.041
REMARK  Name = 
REMARK  4 active torsions:
REMARK  status: ('A' for Active; 'I' for Inactive)
REMARK    1  A    between atoms: C_2  and  C_11
REMARK    2  A    between atoms: N_3  and  C_4
REMARK    3  A    between atoms: C_14  and  C_15
REMARK    4  A    between atoms: N_17  and  C_18
REMARK                            x       y       z     vdW  Elec       q    Type
REMARK                         _______ _______ _______ _____ _____    ______ ____
ROOT
ATOM      1  C   UNL     1       2.430   7.915  18.552  0.00  0.00    +0.000 A 
ATOM      2  C   UNL     1       2.107   9.091  17.878  0.00  0.00    +0.000 A 
ATOM      3  C   UNL     1       1.435  10.091  18.574  0.00  0.00    +0.000 A 
ATOM      4  C   UNL     1       1.121   9.887  19.919  0.00  0.00    +0.000 A 
ATOM      5  N   UNL     1       1.417   8.748  20.601  0.00  0.00    +0.000 NA
ATOM      6  C   UNL     1       2.047   7.780  19.885  0.00  0.00    +0.000 A 
ENDROOT
BRANCH   1   8
ATOM      7  O   UNL     1       2.527   5.713  17.881  0.00  0.00    +0.000 OA
ATOM      8  C   UNL     1       3.112   6.790  17.894  0.00  0.00    +0.000 C 
ATOM      9  N   UNL     1       4.380   7.053  17.412  0.00  0.00    +0.000 N 
ATOM     10  H   UNL     1       4.832   7.926  17.671  0.00  0.00    +0.000 HD
BRANCH   9  11
ATOM     11  C   UNL     1       5.220   6.120  16.755  0.00  0.00    +0.000 A 
ATOM     12  C   UNL     1       5.114   5.820  15.395  0.00  0.00    +0.000 A 
ATOM     13  C   UNL     1       5.948   4.862  14.811  0.00  0.00    +0.000 A 
ATOM     14  C   UNL     1       6.901   4.196  15.581  0.00  0.00    +0.000 A 
ATOM     15  C   UNL     1       7.034   4.504  16.933  0.00  0.00    +0.000 A 
ATOM     16  C   UNL     1       6.203   5.466  17.505  0.00  0.00    +0.000 A 
ATOM     17  F   UNL     1       6.336   5.745  18.812  0.00  0.00    +0.000 F 
ENDBRANCH   9  11
ENDBRANCH   1   8
BRANCH   4  18
ATOM     18  C   UNL     1       0.415  10.973  20.659  0.00  0.00    +0.000 C 
ATOM     19  O   UNL     1       1.095  11.824  21.226  0.00  0.00    +0.000 OA
ATOM     20  N   UNL     1      -0.967  10.892  20.669  0.00  0.00    +0.000 N 
ATOM     21  H   UNL     1      -1.376  10.053  20.258  0.00  0.00    +0.000 HD
BRANCH  20  22
ATOM     22  C   UNL     1      -1.839  11.808  21.301  0.00  0.00    +0.000 A 
ATOM     23  C   UNL     1      -2.535  12.795  20.600  0.00  0.00    +0.000 A 
ATOM     24  C   UNL     1      -3.364  13.703  21.265  0.00  0.00    +0.000 A 
ATOM     25  C   UNL     1      -3.511  13.631  22.647  0.00  0.00    +0.000 A 
ATOM     26  C   UNL     1      -2.840  12.638  23.360  0.00  0.00    +0.000 A 
ATOM     27  C   UNL     1      -2.020  11.732  22.686  0.00  0.00    +0.000 A 
ATOM     28  F   UNL     1      -1.372  10.796  23.396  0.00  0.00    +0.000 F 
ENDBRANCH  20  22
ENDBRANCH   4  18
TORSDOF 4
ENDMDL
