MODEL 1
REMARK VINA RESULT:      -8.2      0.000      0.000
REMARK  Name = 
REMARK  6 active torsions:
REMARK  status: ('A' for Active; 'I' for Inactive)
REMARK    1  A    between atoms: C_1  and  C_2
REMARK    2  A    between atoms: C_2  and  C_3
REMARK    3  A    between atoms: C_2  and  C_24
REMARK    4  A    between atoms: C_7  and  N_8
REMARK    5  A    between atoms: C_16  and  C_17
REMARK    6  A    between atoms: N_28  and  C_29
REMARK                            x       y       z     vdW  Elec       q    Type
REMARK                         _______ _______ _______ _____ _____    ______ ____
ROOT
ATOM      1  N   UNL     1      -1.814  12.470  19.050  0.00  0.00    +0.000 N 
ATOM      2  C   UNL     1      -0.428  12.117  18.648  0.00  0.00    +0.000 C 
ATOM      3  C   UNL     1       0.011  11.231  19.774  0.00  0.00    +0.000 A 
ATOM      4  C   UNL     1      -0.718  11.608  20.908  0.00  0.00    +0.000 A 
ATOM      5  C   UNL     1      -0.690  10.894  22.093  0.00  0.00    +0.000 A 
ATOM      6  C   UNL     1       0.093   9.750  22.107  0.00  0.00    +0.000 A 
ATOM      7  F   UNL     1       0.082   8.963  23.193  0.00  0.00    +0.000 F 
ATOM      8  C   UNL     1       0.822   9.339  20.980  0.00  0.00    +0.000 A 
ATOM      9  C   UNL     1       0.800  10.084  19.781  0.00  0.00    +0.000 A 
ATOM     10  C   UNL     1      -1.788  12.525  20.471  0.00  0.00    +0.000 C 
ATOM     11  O   UNL     1      -2.609  13.024  21.229  0.00  0.00    +0.000 OA
ENDROOT
BRANCH   1  16
ATOM     12  C   UNL     1      -5.042  11.522  17.649  0.00  0.00    +0.000 A 
ATOM     13  C   UNL     1      -4.570  10.986  16.440  0.00  0.00    +0.000 A 
ATOM     14  C   UNL     1      -3.254  10.550  16.328  0.00  0.00    +0.000 A 
ATOM     15  C   UNL     1      -2.369  10.742  17.380  0.00  0.00    +0.000 A 
ATOM     16  C   UNL     1      -2.764  11.525  18.474  0.00  0.00    +0.000 A 
ATOM     17  C   UNL     1      -4.126  11.769  18.680  0.00  0.00    +0.000 A 
BRANCH  12  19
ATOM     18  C   UNL     1      -6.715  13.317  17.115  0.00  0.00    +0.000 C 
ATOM     19  C   UNL     1      -6.506  11.939  17.751  0.00  0.00    +0.000 C 
BRANCH  19  20
ATOM     20  C   UNL     1      -7.031  11.907  19.157  0.00  0.00    +0.000 A 
ATOM     21  N   UNL     1      -7.335  12.946  19.912  0.00  0.00    +0.000 NA
ATOM     22  N   UNL     1      -7.780  12.485  21.122  0.00  0.00    +0.000 NA
ATOM     23  C   UNL     1      -7.744  11.173  21.090  0.00  0.00    +0.000 A 
ATOM     24  N   UNL     1      -7.278  10.765  19.880  0.00  0.00    +0.000 N 
ATOM     25  C   UNL     1      -7.093   9.402  19.460  0.00  0.00    +0.000 C 
ENDBRANCH  19  20
ENDBRANCH  12  19
ENDBRANCH   1  16
BRANCH   9  26
ATOM     26  C   UNL     1       1.520   9.547  18.571  0.00  0.00    +0.000 C 
ATOM     27  F   UNL     1       0.696   9.163  17.558  0.00  0.00    +0.000 F 
ATOM     28  F   UNL     1       2.367  10.459  18.032  0.00  0.00    +0.000 F 
ATOM     29  F   UNL     1       2.279   8.452  18.864  0.00  0.00    +0.000 F 
ENDBRANCH   9  26
TORSDOF 4
ENDMDL
MODEL 2
REMARK VINA RESULT:      -8.0      6.078      9.382
REMARK  Name = 
REMARK  6 active torsions:
REMARK  status: ('A' for Active; 'I' for Inactive)
REMARK    1  A    between atoms: C_1  and  C_2
REMARK    2  A    between atoms: C_2  and  C_3
REMARK    3  A    between atoms: C_2  and  C_24
REMARK    4  A    between atoms: C_7  and  N_8
REMARK    5  A    between atoms: C_16  and  C_17
REMARK    6  A    between atoms: N_28  and  C_29
REMARK                            x       y       z     vdW  Elec       q    Type
REMARK                         _______ _______ _______ _____ _____    ______ ____
ROOT
ATOM      1  N   UNL     1       4.153   3.040  19.011  0.00  0.00    +0.000 N 
ATOM      2  C   UNL     1       5.609   3.329  19.064  0.00  0.00    +0.000 C 
ATOM      3  C   UNL     1       5.770   4.341  17.969  0.00  0.00    +0.000 A 
ATOM      4  C   UNL     1       4.751   4.109  17.037  0.00  0.00    +0.000 A 
ATOM      5  C   UNL     1       4.493   4.960  15.978  0.00  0.00    +0.000 A 
ATOM      6  C   UNL     1       5.290   6.091  15.884  0.00  0.00    +0.000 A 
ATOM      7  F   UNL     1       5.024   7.003  14.937  0.00  0.00    +0.000 F 
ATOM      8  C   UNL     1       6.308   6.356  16.814  0.00  0.00    +0.000 A 
ATOM      9  C   UNL     1       6.574   5.474  17.881  0.00  0.00    +0.000 A 
ATOM     10  C   UNL     1       3.799   3.155  17.639  0.00  0.00    +0.000 C 
ATOM     11  O   UNL     1       2.787   2.758  17.076  0.00  0.00    +0.000 OA
ENDROOT
BRANCH   1  16
ATOM     12  C   UNL     1       2.069   5.919  19.815  0.00  0.00    +0.000 A 
ATOM     13  C   UNL     1       1.055   5.230  20.498  0.00  0.00    +0.000 A 
ATOM     14  C   UNL     1       1.302   3.978  21.051  0.00  0.00    +0.000 A 
ATOM     15  C   UNL     1       2.524   3.355  20.836  0.00  0.00    +0.000 A 
ATOM     16  C   UNL     1       3.429   3.917  19.924  0.00  0.00    +0.000 A 
ATOM     17  C   UNL     1       3.274   5.256  19.550  0.00  0.00    +0.000 A 
BRANCH  12  19
ATOM     18  C   UNL     1       2.910   7.778  18.349  0.00  0.00    +0.000 C 
ATOM     19  C   UNL     1       1.777   7.314  19.271  0.00  0.00    +0.000 C 
BRANCH  19  20
ATOM     20  C   UNL     1       1.509   8.323  20.349  0.00  0.00    +0.000 A 
ATOM     21  N   UNL     1       1.856   8.234  21.620  0.00  0.00    +0.000 NA
ATOM     22  N   UNL     1       1.426   9.363  22.265  0.00  0.00    +0.000 NA
ATOM     23  C   UNL     1       0.826  10.126  21.382  0.00  0.00    +0.000 A 
ATOM     24  N   UNL     1       0.850   9.515  20.168  0.00  0.00    +0.000 N 
ATOM     25  C   UNL     1       0.294  10.034  18.948  0.00  0.00    +0.000 C 
ENDBRANCH  19  20
ENDBRANCH  12  19
ENDBRANCH   1  16
BRANCH   9  26
ATOM     26  C   UNL     1       7.610   5.854  18.907  0.00  0.00    +0.000 C 
ATOM     27  F   UNL     1       8.188   7.067  18.691  0.00  0.00    +0.000 F 
ATOM     28  F   UNL     1       7.095   5.909  20.161  0.00  0.00    +0.000 F 
ATOM     29  F   UNL     1       8.639   4.960  18.960  0.00  0.00    +0.000 F 
ENDBRANCH   9  26
TORSDOF 4
ENDMDL
MODEL 3
REMARK VINA RESULT:      -8.0      5.346      8.490
REMARK  Name = 
REMARK  6 active torsions:
REMARK  status: ('A' for Active; 'I' for Inactive)
REMARK    1  A    between atoms: C_1  and  C_2
REMARK    2  A    between atoms: C_2  and  C_3
REMARK    3  A    between atoms: C_2  and  C_24
REMARK    4  A    between atoms: C_7  and  N_8
REMARK    5  A    between atoms: C_16  and  C_17
REMARK    6  A    between atoms: N_28  and  C_29
REMARK                            x       y       z     vdW  Elec       q    Type
REMARK                         _______ _______ _______ _____ _____    ______ ____
ROOT
ATOM      1  N   UNL     1       3.666   5.120  19.323  0.00  0.00    +0.000 N 
ATOM      2  C   UNL     1       5.063   5.616  19.424  0.00  0.00    +0.000 C 
ATOM      3  C   UNL     1       5.646   5.187  18.111  0.00  0.00    +0.000 A 
ATOM      4  C   UNL     1       4.931   4.060  17.688  0.00  0.00    +0.000 A 
ATOM      5  C   UNL     1       5.090   3.496  16.435  0.00  0.00    +0.000 A 
ATOM      6  C   UNL     1       5.993   4.118  15.586  0.00  0.00    +0.000 A 
ATOM      7  F   UNL     1       6.116   3.677  14.325  0.00  0.00    +0.000 F 
ATOM      8  C   UNL     1       6.710   5.259  15.978  0.00  0.00    +0.000 A 
ATOM      9  C   UNL     1       6.554   5.817  17.265  0.00  0.00    +0.000 A 
ATOM     10  C   UNL     1       3.750   3.922  18.561  0.00  0.00    +0.000 C 
ATOM     11  O   UNL     1       2.915   3.035  18.440  0.00  0.00    +0.000 OA
ENDROOT
BRANCH   1  16
ATOM     12  C   UNL     1       1.836   8.267  19.468  0.00  0.00    +0.000 A 
ATOM     13  C   UNL     1       2.401   8.864  18.329  0.00  0.00    +0.000 A 
ATOM     14  C   UNL     1       2.985   8.081  17.339  0.00  0.00    +0.000 A 
ATOM     15  C   UNL     1       3.107   6.710  17.523  0.00  0.00    +0.000 A 
ATOM     16  C   UNL     1       2.800   6.156  18.774  0.00  0.00    +0.000 A 
ATOM     17  C   UNL     1       2.022   6.895  19.672  0.00  0.00    +0.000 A 
BRANCH  12  19
ATOM     18  C   UNL     1       0.434   8.299  21.551  0.00  0.00    +0.000 C 
ATOM     19  C   UNL     1       1.156   9.155  20.506  0.00  0.00    +0.000 C 
BRANCH  19  20
ATOM     20  C   UNL     1       0.227  10.166  19.899  0.00  0.00    +0.000 A 
ATOM     21  N   UNL     1      -0.894   9.920  19.247  0.00  0.00    +0.000 NA
ATOM     22  N   UNL     1      -1.440  11.114  18.859  0.00  0.00    +0.000 NA
ATOM     23  C   UNL     1      -0.648  12.072  19.280  0.00  0.00    +0.000 A 
ATOM     24  N   UNL     1       0.412  11.527  19.934  0.00  0.00    +0.000 N 
ATOM     25  C   UNL     1       1.497  12.250  20.539  0.00  0.00    +0.000 C 
ENDBRANCH  19  20
ENDBRANCH  12  19
ENDBRANCH   1  16
BRANCH   9  26
ATOM     26  C   UNL     1       7.272   7.098  17.601  0.00  0.00    +0.000 C 
ATOM     27  F   UNL     1       8.150   7.511  16.647  0.00  0.00    +0.000 F 
ATOM     28  F   UNL     1       6.416   8.133  17.789  0.00  0.00    +0.000 F 
ATOM     29  F   UNL     1       8.000   6.997  18.751  0.00  0.00    +0.000 F 
ENDBRANCH   9  26
TORSDOF 4
ENDMDL
MODEL 4
REMARK VINA RESULT:      -8.0      4.402      7.766
REMARK  Name = 
REMARK  6 active torsions:
REMARK  status: ('A' for Active; 'I' for Inactive)
REMARK    1  A    between atoms: C_1  and  C_2
REMARK    2  A    between atoms: C_2  and  C_3
REMARK    3  A    between atoms: C_2  and  C_24
REMARK    4  A    between atoms: C_7  and  N_8
REMARK    5  A    between atoms: C_16  and  C_17
REMARK    6  A    between atoms: N_28  and  C_29
REMARK                            x       y       z     vdW  Elec       q    Type
REMARK                         _______ _______ _______ _____ _____    ______ ____
ROOT
ATOM      1  N   UNL     1       0.032   9.229  20.803  0.00  0.00    +0.000 N 
ATOM      2  C   UNL     1      -1.141   9.160  19.895  0.00  0.00    +0.000 C 
ATOM      3  C   UNL     1      -1.239  10.572  19.399  0.00  0.00    +0.000 A 
ATOM      4  C   UNL     1      -0.688  11.398  20.386  0.00  0.00    +0.000 A 
ATOM      5  C   UNL     1      -0.462  12.749  20.195  0.00  0.00    +0.000 A 
ATOM      6  C   UNL     1      -0.792  13.262  18.950  0.00  0.00    +0.000 A 
ATOM      7  F   UNL     1      -0.504  14.542  18.672  0.00  0.00    +0.000 F 
ATOM      8  C   UNL     1      -1.330  12.454  17.937  0.00  0.00    +0.000 A 
ATOM      9  C   UNL     1      -1.573  11.080  18.146  0.00  0.00    +0.000 A 
ATOM     10  C   UNL     1      -0.011  10.533  21.370  0.00  0.00    +0.000 C 
ATOM     11  O   UNL     1       0.582  10.956  22.354  0.00  0.00    +0.000 OA
ENDROOT
BRANCH   1  16
ATOM     12  C   UNL     1       2.499   6.921  19.436  0.00  0.00    +0.000 A 
ATOM     13  C   UNL     1       2.444   7.359  18.103  0.00  0.00    +0.000 A 
ATOM     14  C   UNL     1       1.976   8.633  17.798  0.00  0.00    +0.000 A 
ATOM     15  C   UNL     1       1.458   9.439  18.802  0.00  0.00    +0.000 A 
ATOM     16  C   UNL     1       1.253   8.898  20.080  0.00  0.00    +0.000 A 
ATOM     17  C   UNL     1       1.915   7.716  20.431  0.00  0.00    +0.000 A 
BRANCH  12  19
ATOM     18  C   UNL     1       4.477   5.401  19.148  0.00  0.00    +0.000 C 
ATOM     19  C   UNL     1       3.069   5.539  19.737  0.00  0.00    +0.000 C 
BRANCH  19  20
ATOM     20  C   UNL     1       2.179   4.422  19.276  0.00  0.00    +0.000 A 
ATOM     21  N   UNL     1       1.779   4.187  18.040  0.00  0.00    +0.000 NA
ATOM     22  N   UNL     1       0.982   3.074  18.048  0.00  0.00    +0.000 NA
ATOM     23  C   UNL     1       0.905   2.643  19.285  0.00  0.00    +0.000 A 
ATOM     24  N   UNL     1       1.637   3.458  20.092  0.00  0.00    +0.000 N 
ATOM     25  C   UNL     1       1.801   3.317  21.513  0.00  0.00    +0.000 C 
ENDBRANCH  19  20
ENDBRANCH  12  19
ENDBRANCH   1  16
BRANCH   9  26
ATOM     26  C   UNL     1      -2.058  10.237  16.996  0.00  0.00    +0.000 C 
ATOM     27  F   UNL     1      -1.182   9.273  16.603  0.00  0.00    +0.000 F 
ATOM     28  F   UNL     1      -3.214   9.588  17.286  0.00  0.00    +0.000 F 
ATOM     29  F   UNL     1      -2.312  10.980  15.880  0.00  0.00    +0.000 F 
ENDBRANCH   9  26
TORSDOF 4
ENDMDL
MODEL 5
REMARK VINA RESULT:      -7.9      4.797      7.625
REMARK  Name = 
REMARK  6 active torsions:
REMARK  status: ('A' for Active; 'I' for Inactive)
REMARK    1  A    between atoms: C_1  and  C_2
REMARK    2  A    between atoms: C_2  and  C_3
REMARK    3  A    between atoms: C_2  and  C_24
REMARK    4  A    between atoms: C_7  and  N_8
REMARK    5  A    between atoms: C_16  and  C_17
REMARK    6  A    between atoms: N_28  and  C_29
REMARK                            x       y       z     vdW  Elec       q    Type
REMARK                         _______ _______ _______ _____ _____    ______ ____
ROOT
ATOM      1  N   UNL     1       3.272   6.178  20.141  0.00  0.00    +0.000 N 
ATOM      2  C   UNL     1       4.452   5.978  19.261  0.00  0.00    +0.000 C 
ATOM      3  C   UNL     1       4.085   4.727  18.521  0.00  0.00    +0.000 A 
ATOM      4  C   UNL     1       3.219   3.997  19.344  0.00  0.00    +0.000 A 
ATOM      5  C   UNL     1       2.549   2.865  18.916  0.00  0.00    +0.000 A 
ATOM      6  C   UNL     1       2.760   2.483  17.599  0.00  0.00    +0.000 A 
ATOM      7  F   UNL     1       2.063   1.453  17.097  0.00  0.00    +0.000 F 
ATOM      8  C   UNL     1       3.610   3.206  16.747  0.00  0.00    +0.000 A 
ATOM      9  C   UNL     1       4.301   4.350  17.199  0.00  0.00    +0.000 A 
ATOM     10  C   UNL     1       2.822   4.869  20.467  0.00  0.00    +0.000 C 
ATOM     11  O   UNL     1       2.057   4.525  21.358  0.00  0.00    +0.000 OA
ENDROOT
BRANCH   1  16
ATOM     12  C   UNL     1       1.212   9.171  19.866  0.00  0.00    +0.000 A 
ATOM     13  C   UNL     1       1.651   9.583  18.597  0.00  0.00    +0.000 A 
ATOM     14  C   UNL     1       2.228   8.671  17.720  0.00  0.00    +0.000 A 
ATOM     15  C   UNL     1       2.471   7.368  18.136  0.00  0.00    +0.000 A 
ATOM     16  C   UNL     1       2.292   7.036  19.487  0.00  0.00    +0.000 A 
ATOM     17  C   UNL     1       1.520   7.875  20.297  0.00  0.00    +0.000 A 
BRANCH  12  19
ATOM     18  C   UNL     1      -0.302   9.477  21.846  0.00  0.00    +0.000 C 
ATOM     19  C   UNL     1       0.536  10.189  20.779  0.00  0.00    +0.000 C 
BRANCH  19  20
ATOM     20  C   UNL     1      -0.286  11.197  20.030  0.00  0.00    +0.000 A 
ATOM     21  N   UNL     1      -1.416  10.975  19.384  0.00  0.00    +0.000 NA
ATOM     22  N   UNL     1      -1.842  12.157  18.840  0.00  0.00    +0.000 NA
ATOM     23  C   UNL     1      -0.971  13.084  19.162  0.00  0.00    +0.000 A 
ATOM     24  N   UNL     1       0.023  12.530  19.905  0.00  0.00    +0.000 N 
ATOM     25  C   UNL     1       1.162  13.221  20.445  0.00  0.00    +0.000 C 
ENDBRANCH  19  20
ENDBRANCH  12  19
ENDBRANCH   1  16
BRANCH   9  26
ATOM     26  C   UNL     1       5.122   5.145  16.218  0.00  0.00    +0.000 C 
ATOM     27  F   UNL     1       4.668   6.411  16.008  0.00  0.00    +0.000 F 
ATOM     28  F   UNL     1       6.412   5.278  16.617  0.00  0.00    +0.000 F 
ATOM     29  F   UNL     1       5.166   4.561  14.986  0.00  0.00    +0.000 F 
ENDBRANCH   9  26
TORSDOF 4
ENDMDL
MODEL 6
REMARK VINA RESULT:      -7.9      5.073      7.848
REMARK  Name = 
REMARK  6 active torsions:
REMARK  status: ('A' for Active; 'I' for Inactive)
REMARK    1  A    between atoms: C_1  and  C_2
REMARK    2  A    between atoms: C_2  and  C_3
REMARK    3  A    between atoms: C_2  and  C_24
REMARK    4  A    between atoms: C_7  and  N_8
REMARK    5  A    between atoms: C_16  and  C_17
REMARK    6  A    between atoms: N_28  and  C_29
REMARK                            x       y       z     vdW  Elec       q    Type
REMARK                         _______ _______ _______ _____ _____    ______ ____
ROOT
ATOM      1  N   UNL     1       2.673   6.260  17.573  0.00  0.00    +0.000 N 
ATOM      2  C   UNL     1       1.686   5.177  17.817  0.00  0.00    +0.000 C 
ATOM      3  C   UNL     1       2.510   4.156  18.543  0.00  0.00    +0.000 A 
ATOM      4  C   UNL     1       3.839   4.332  18.137  0.00  0.00    +0.000 A 
ATOM      5  C   UNL     1       4.899   3.670  18.729  0.00  0.00    +0.000 A 
ATOM      6  C   UNL     1       4.589   2.820  19.780  0.00  0.00    +0.000 A 
ATOM      7  F   UNL     1       5.583   2.227  20.458  0.00  0.00    +0.000 F 
ATOM      8  C   UNL     1       3.268   2.638  20.218  0.00  0.00    +0.000 A 
ATOM      9  C   UNL     1       2.191   3.305  19.597  0.00  0.00    +0.000 A 
ATOM     10  C   UNL     1       3.916   5.596  17.380  0.00  0.00    +0.000 C 
ATOM     11  O   UNL     1       4.950   6.039  16.899  0.00  0.00    +0.000 OA
ENDROOT
BRANCH   1  16
ATOM     12  C   UNL     1       1.584   9.352  19.163  0.00  0.00    +0.000 A 
ATOM     13  C   UNL     1       1.081   8.786  20.346  0.00  0.00    +0.000 A 
ATOM     14  C   UNL     1       1.512   7.533  20.766  0.00  0.00    +0.000 A 
ATOM     15  C   UNL     1       2.364   6.787  19.962  0.00  0.00    +0.000 A 
ATOM     16  C   UNL     1       2.639   7.230  18.660  0.00  0.00    +0.000 A 
ATOM     17  C   UNL     1       2.389   8.567  18.330  0.00  0.00    +0.000 A 
BRANCH  12  19
ATOM     18  C   UNL     1       2.258  11.498  18.044  0.00  0.00    +0.000 C 
ATOM     19  C   UNL     1       1.128  10.752  18.763  0.00  0.00    +0.000 C 
BRANCH  19  20
ATOM     20  C   UNL     1       0.601  11.553  19.918  0.00  0.00    +0.000 A 
ATOM     21  N   UNL     1       1.301  12.054  20.919  0.00  0.00    +0.000 NA
ATOM     22  N   UNL     1       0.444  12.716  21.757  0.00  0.00    +0.000 NA
ATOM     23  C   UNL     1      -0.765  12.612  21.258  0.00  0.00    +0.000 A 
ATOM     24  N   UNL     1      -0.718  11.889  20.108  0.00  0.00    +0.000 N 
ATOM     25  C   UNL     1      -1.837  11.558  19.269  0.00  0.00    +0.000 C 
ENDBRANCH  19  20
ENDBRANCH  12  19
ENDBRANCH   1  16
BRANCH   9  26
ATOM     26  C   UNL     1       0.806   3.152  20.168  0.00  0.00    +0.000 C 
ATOM     27  F   UNL     1       0.170   4.331  20.412  0.00  0.00    +0.000 F 
ATOM     28  F   UNL     1      -0.015   2.453  19.345  0.00  0.00    +0.000 F 
ATOM     29  F   UNL     1       0.807   2.482  21.357  0.00  0.00    +0.000 F 
ENDBRANCH   9  26
TORSDOF 4
ENDMDL
MODEL 7
REMARK VINA RESULT:      -7.8      5.184      7.859
REMARK  Name = 
REMARK  6 active torsions:
REMARK  status: ('A' for Active; 'I' for Inactive)
REMARK    1  A    between atoms: C_1  and  C_2
REMARK    2  A    between atoms: C_2  and  C_3
REMARK    3  A    between atoms: C_2  and  C_24
REMARK    4  A    between atoms: C_7  and  N_8
REMARK    5  A    between atoms: C_16  and  C_17
REMARK    6  A    between atoms: N_28  and  C_29
REMARK                            x       y       z     vdW  Elec       q    Type
REMARK                         _______ _______ _______ _____ _____    ______ ____
ROOT
ATOM      1  N   UNL     1       2.875   5.873  17.418  0.00  0.00    +0.000 N 
ATOM      2  C   UNL     1       1.835   4.865  17.747  0.00  0.00    +0.000 C 
ATOM      3  C   UNL     1       2.590   3.902  18.613  0.00  0.00    +0.000 A 
ATOM      4  C   UNL     1       3.937   3.977  18.238  0.00  0.00    +0.000 A 
ATOM      5  C   UNL     1       4.949   3.345  18.939  0.00  0.00    +0.000 A 
ATOM      6  C   UNL     1       4.569   2.634  20.067  0.00  0.00    +0.000 A 
ATOM      7  F   UNL     1       5.515   2.084  20.843  0.00  0.00    +0.000 F 
ATOM      8  C   UNL     1       3.228   2.556  20.475  0.00  0.00    +0.000 A 
ATOM      9  C   UNL     1       2.202   3.190  19.744  0.00  0.00    +0.000 A 
ATOM     10  C   UNL     1       4.093   5.142  17.347  0.00  0.00    +0.000 C 
ATOM     11  O   UNL     1       5.161   5.486  16.857  0.00  0.00    +0.000 OA
ENDROOT
BRANCH   1  16
ATOM     12  C   UNL     1       1.773   9.114  18.666  0.00  0.00    +0.000 A 
ATOM     13  C   UNL     1       1.304   8.682  19.917  0.00  0.00    +0.000 A 
ATOM     14  C   UNL     1       1.763   7.491  20.469  0.00  0.00    +0.000 A 
ATOM     15  C   UNL     1       2.609   6.668  19.737  0.00  0.00    +0.000 A 
ATOM     16  C   UNL     1       2.850   6.962  18.387  0.00  0.00    +0.000 A 
ATOM     17  C   UNL     1       2.572   8.248  17.910  0.00  0.00    +0.000 A 
BRANCH  12  19
ATOM     18  C   UNL     1       2.446  11.450  18.036  0.00  0.00    +0.000 C 
ATOM     19  C   UNL     1       1.287  10.452  18.118  0.00  0.00    +0.000 C 
BRANCH  19  20
ATOM     20  C   UNL     1       0.135  11.023  18.894  0.00  0.00    +0.000 A 
ATOM     21  N   UNL     1       0.206  11.777  19.975  0.00  0.00    +0.000 NA
ATOM     22  N   UNL     1      -1.068  12.087  20.369  0.00  0.00    +0.000 NA
ATOM     23  C   UNL     1      -1.899  11.521  19.526  0.00  0.00    +0.000 A 
ATOM     24  N   UNL     1      -1.191  10.840  18.585  0.00  0.00    +0.000 N 
ATOM     25  C   UNL     1      -1.742  10.089  17.490  0.00  0.00    +0.000 C 
ENDBRANCH  19  20
ENDBRANCH  12  19
ENDBRANCH   1  16
BRANCH   9  26
ATOM     26  C   UNL     1       0.794   3.159  20.278  0.00  0.00    +0.000 C 
ATOM     27  F   UNL     1      -0.090   2.497  19.482  0.00  0.00    +0.000 F 
ATOM     28  F   UNL     1       0.718   2.558  21.492  0.00  0.00    +0.000 F 
ATOM     29  F   UNL     1       0.274   4.410  20.443  0.00  0.00    +0.000 F 
ENDBRANCH   9  26
TORSDOF 4
ENDMDL
MODEL 8
REMARK VINA RESULT:      -7.8      4.577      8.411
REMARK  Name = 
REMARK  6 active torsions:
REMARK  status: ('A' for Active; 'I' for Inactive)
REMARK    1  A    between atoms: C_1  and  C_2
REMARK    2  A    between atoms: C_2  and  C_3
REMARK    3  A    between atoms: C_2  and  C_24
REMARK    4  A    between atoms: C_7  and  N_8
REMARK    5  A    between atoms: C_16  and  C_17
REMARK    6  A    between atoms: N_28  and  C_29
REMARK                            x       y       z     vdW  Elec       q    Type
REMARK                         _______ _______ _______ _____ _____    ______ ____
ROOT
ATOM      1  N   UNL     1       0.129   9.341  20.794  0.00  0.00    +0.000 N 
ATOM      2  C   UNL     1      -1.073   9.250  19.925  0.00  0.00    +0.000 C 
ATOM      3  C   UNL     1      -1.142  10.627  19.336  0.00  0.00    +0.000 A 
ATOM      4  C   UNL     1      -0.535  11.500  20.248  0.00  0.00    +0.000 A 
ATOM      5  C   UNL     1      -0.273  12.827  19.958  0.00  0.00    +0.000 A 
ATOM      6  C   UNL     1      -0.624  13.264  18.690  0.00  0.00    +0.000 A 
ATOM      7  F   UNL     1      -0.305  14.512  18.317  0.00  0.00    +0.000 F 
ATOM      8  C   UNL     1      -1.219  12.407  17.751  0.00  0.00    +0.000 A 
ATOM      9  C   UNL     1      -1.498  11.060  18.062  0.00  0.00    +0.000 A 
ATOM     10  C   UNL     1       0.144  10.681  21.270  0.00  0.00    +0.000 C 
ATOM     11  O   UNL     1       0.780  11.151  22.205  0.00  0.00    +0.000 OA
ENDROOT
BRANCH   1  16
ATOM     12  C   UNL     1       2.298   6.869  19.224  0.00  0.00    +0.000 A 
ATOM     13  C   UNL     1       2.349   7.451  17.947  0.00  0.00    +0.000 A 
ATOM     14  C   UNL     1       2.072   8.803  17.777  0.00  0.00    +0.000 A 
ATOM     15  C   UNL     1       1.637   9.562  18.855  0.00  0.00    +0.000 A 
ATOM     16  C   UNL     1       1.316   8.921  20.060  0.00  0.00    +0.000 A 
ATOM     17  C   UNL     1       1.797   7.627  20.290  0.00  0.00    +0.000 A 
BRANCH  12  19
ATOM     18  C   UNL     1       2.310   4.903  20.787  0.00  0.00    +0.000 C 
ATOM     19  C   UNL     1       2.661   5.396  19.379  0.00  0.00    +0.000 C 
BRANCH  19  20
ATOM     20  C   UNL     1       4.097   5.106  19.047  0.00  0.00    +0.000 A 
ATOM     21  N   UNL     1       5.160   5.493  19.727  0.00  0.00    +0.000 NA
ATOM     22  N   UNL     1       6.276   5.019  19.090  0.00  0.00    +0.000 NA
ATOM     23  C   UNL     1       5.880   4.348  18.033  0.00  0.00    +0.000 A 
ATOM     24  N   UNL     1       4.523   4.377  17.963  0.00  0.00    +0.000 N 
ATOM     25  C   UNL     1       3.715   3.758  16.948  0.00  0.00    +0.000 C 
ENDBRANCH  19  20
ENDBRANCH  12  19
ENDBRANCH   1  16
BRANCH   9  26
ATOM     26  C   UNL     1      -2.044  10.157  16.987  0.00  0.00    +0.000 C 
ATOM     27  F   UNL     1      -1.198   9.158  16.614  0.00  0.00    +0.000 F 
ATOM     28  F   UNL     1      -3.194   9.545  17.365  0.00  0.00    +0.000 F 
ATOM     29  F   UNL     1      -2.338  10.836  15.840  0.00  0.00    +0.000 F 
ENDBRANCH   9  26
TORSDOF 4
ENDMDL
MODEL 9
REMARK VINA RESULT:      -7.8      4.875      8.042
REMARK  Name = 
REMARK  6 active torsions:
REMARK  status: ('A' for Active; 'I' for Inactive)
REMARK    1  A    between atoms: C_1  and  C_2
REMARK    2  A    between atoms: C_2  and  C_3
REMARK    3  A    between atoms: C_2  and  C_24
REMARK    4  A    between atoms: C_7  and  N_8
REMARK    5  A    between atoms: C_16  and  C_17
REMARK    6  A    between atoms: N_28  and  C_29
REMARK                            x       y       z     vdW  Elec       q    Type
REMARK                         _______ _______ _______ _____ _____    ______ ____
ROOT
ATOM      1  N   UNL     1       0.755   8.318  21.166  0.00  0.00    +0.000 N 
ATOM      2  C   UNL     1      -0.510   8.629  20.452  0.00  0.00    +0.000 C 
ATOM      3  C   UNL     1      -0.369  10.098  20.186  0.00  0.00    +0.000 A 
ATOM      4  C   UNL     1       0.463  10.623  21.183  0.00  0.00    +0.000 A 
ATOM      5  C   UNL     1       0.943  11.920  21.156  0.00  0.00    +0.000 A 
ATOM      6  C   UNL     1       0.577  12.693  20.065  0.00  0.00    +0.000 A 
ATOM      7  F   UNL     1       1.092  13.924  19.933  0.00  0.00    +0.000 F 
ATOM      8  C   UNL     1      -0.242  12.188  19.043  0.00  0.00    +0.000 A 
ATOM      9  C   UNL     1      -0.741  10.869  19.088  0.00  0.00    +0.000 A 
ATOM     10  C   UNL     1       1.060   9.489  21.914  0.00  0.00    +0.000 C 
ATOM     11  O   UNL     1       1.846   9.617  22.843  0.00  0.00    +0.000 OA
ENDROOT
BRANCH   1  16
ATOM     12  C   UNL     1       2.308   5.948  18.876  0.00  0.00    +0.000 A 
ATOM     13  C   UNL     1       2.342   6.777  17.744  0.00  0.00    +0.000 A 
ATOM     14  C   UNL     1       2.289   8.161  17.881  0.00  0.00    +0.000 A 
ATOM     15  C   UNL     1       2.093   8.725  19.135  0.00  0.00    +0.000 A 
ATOM     16  C   UNL     1       1.779   7.893  20.219  0.00  0.00    +0.000 A 
ATOM     17  C   UNL     1       2.047   6.523  20.125  0.00  0.00    +0.000 A 
BRANCH  12  19
ATOM     18  C   UNL     1       1.446   3.956  17.612  0.00  0.00    +0.000 C 
ATOM     19  C   UNL     1       2.424   4.438  18.688  0.00  0.00    +0.000 C 
BRANCH  19  20
ATOM     20  C   UNL     1       2.243   3.671  19.966  0.00  0.00    +0.000 A 
ATOM     21  N   UNL     1       1.185   3.685  20.755  0.00  0.00    +0.000 NA
ATOM     22  N   UNL     1       1.423   2.848  21.812  0.00  0.00    +0.000 NA
ATOM     23  C   UNL     1       2.620   2.333  21.655  0.00  0.00    +0.000 A 
ATOM     24  N   UNL     1       3.174   2.821  20.513  0.00  0.00    +0.000 N 
ATOM     25  C   UNL     1       4.476   2.496  19.998  0.00  0.00    +0.000 C 
ENDBRANCH  19  20
ENDBRANCH  12  19
ENDBRANCH   1  16
BRANCH   9  26
ATOM     26  C   UNL     1      -1.533  10.344  17.919  0.00  0.00    +0.000 C 
ATOM     27  F   UNL     1      -2.679   9.698  18.267  0.00  0.00    +0.000 F 
ATOM     28  F   UNL     1      -1.910  11.332  17.069  0.00  0.00    +0.000 F 
ATOM     29  F   UNL     1      -0.822   9.452  17.170  0.00  0.00    +0.000 F 
ENDBRANCH   9  26
TORSDOF 4
ENDMDL
