MODEL 1
REMARK VINA RESULT:      -8.1      0.000      0.000
REMARK  Name = 
REMARK  7 active torsions:
REMARK  status: ('A' for Active; 'I' for Inactive)
REMARK    1  A    between atoms: C_1  and  C_2
REMARK    2  A    between atoms: N_4  and  C_5
REMARK    3  A    between atoms: C_8  and  C_9
REMARK    4  A    between atoms: C_13  and  C_14
REMARK    5  A    between atoms: N_16  and  C_17
REMARK    6  A    between atoms: N_21  and  C_22
REMARK    7  A    between atoms: C_22  and  C_23
REMARK                            x       y       z     vdW  Elec       q    Type
REMARK                         _______ _______ _______ _____ _____    ______ ____
ROOT
ATOM      1  C   UNL     1       2.479   5.850  19.793  0.00  0.00    +0.000 C 
ATOM      2  O   UNL     1       3.678   5.785  20.004  0.00  0.00    +0.000 OA
ATOM      3  N   UNL     1       1.758   4.698  19.286  0.00  0.00    +0.000 N 
ATOM      4  H   UNL     1       0.780   4.784  19.046  0.00  0.00    +0.000 HD
ENDROOT
BRANCH   1  14
ATOM      5  C   UNL     1       3.487   7.628  17.023  0.00  0.00    +0.000 C 
ATOM      6  C   UNL     1       2.633   8.490  17.882  0.00  0.00    +0.000 A 
ATOM      7  N   UNL     1       2.420   9.752  17.482  0.00  0.00    +0.000 NA
ATOM      8  N   UNL     1       1.634  10.272  18.441  0.00  0.00    +0.000 N 
ATOM      9  C   UNL     1       1.211  11.648  18.363  0.00  0.00    +0.000 C 
ATOM     10  C   UNL     1       1.317   9.381  19.427  0.00  0.00    +0.000 A 
ATOM     11  N   UNL     1       0.543   9.629  20.493  0.00  0.00    +0.000 NA
ATOM     12  C   UNL     1       0.388   8.607  21.361  0.00  0.00    +0.000 A 
ATOM     13  C   UNL     1       0.965   7.347  21.144  0.00  0.00    +0.000 A 
ATOM     14  C   UNL     1       1.765   7.121  20.009  0.00  0.00    +0.000 A 
ATOM     15  C   UNL     1       1.956   8.193  19.107  0.00  0.00    +0.000 A 
BRANCH  12  16
ATOM     16  C   UNL     1      -0.470   8.910  22.572  0.00  0.00    +0.000 C 
ATOM     17  C   UNL     1      -0.735  10.366  22.901  0.00  0.00    +0.000 C 
ATOM     18  C   UNL     1       0.062   9.519  23.845  0.00  0.00    +0.000 C 
ENDBRANCH  12  16
ENDBRANCH   1  14
BRANCH   3  19
ATOM     19  C   UNL     1       2.411   3.480  19.021  0.00  0.00    +0.000 A 
ATOM     20  C   UNL     1       2.549   2.407  19.880  0.00  0.00    +0.000 A 
ATOM     21  C   UNL     1       3.313   1.451  19.195  0.00  0.00    +0.000 A 
ATOM     22  N   UNL     1       3.639   1.858  17.973  0.00  0.00    +0.000 NA
ATOM     23  N   UNL     1       3.058   3.078  17.865  0.00  0.00    +0.000 N 
BRANCH  23  24
ATOM     24  C   UNL     1       3.305   3.828  16.638  0.00  0.00    +0.000 C 
BRANCH  24  25
ATOM     25  C   UNL     1       4.763   4.182  16.475  0.00  0.00    +0.000 A 
ATOM     26  C   UNL     1       5.398   4.084  15.223  0.00  0.00    +0.000 A 
ATOM     27  C   UNL     1       6.739   4.441  15.071  0.00  0.00    +0.000 A 
ATOM     28  C   UNL     1       7.470   4.890  16.169  0.00  0.00    +0.000 A 
ATOM     29  C   UNL     1       6.861   4.953  17.420  0.00  0.00    +0.000 A 
ATOM     30 CL   UNL     1       7.755   5.497  18.784  0.00  0.00    +0.000 Cl
ATOM     31  C   UNL     1       5.521   4.593  17.579  0.00  0.00    +0.000 A 
ENDBRANCH  24  25
ENDBRANCH  23  24
ENDBRANCH   3  19
TORSDOF 5
ENDMDL
MODEL 2
REMARK VINA RESULT:      -7.9      0.960      1.295
REMARK  Name = 
REMARK  7 active torsions:
REMARK  status: ('A' for Active; 'I' for Inactive)
REMARK    1  A    between atoms: C_1  and  C_2
REMARK    2  A    between atoms: N_4  and  C_5
REMARK    3  A    between atoms: C_8  and  C_9
REMARK    4  A    between atoms: C_13  and  C_14
REMARK    5  A    between atoms: N_16  and  C_17
REMARK    6  A    between atoms: N_21  and  C_22
REMARK    7  A    between atoms: C_22  and  C_23
REMARK                            x       y       z     vdW  Elec       q    Type
REMARK                         _______ _______ _______ _____ _____    ______ ____
ROOT
ATOM      1  C   UNL     1       2.451   5.830  19.807  0.00  0.00    +0.000 C 
ATOM      2  O   UNL     1       3.648   5.752  20.024  0.00  0.00    +0.000 OA
ATOM      3  N   UNL     1       1.721   4.685  19.298  0.00  0.00    +0.000 N 
ATOM      4  H   UNL     1       0.745   4.780  19.052  0.00  0.00    +0.000 HD
ENDROOT
BRANCH   1  14
ATOM      5  C   UNL     1       3.493   7.590  17.037  0.00  0.00    +0.000 C 
ATOM      6  C   UNL     1       2.644   8.463  17.890  0.00  0.00    +0.000 A 
ATOM      7  N   UNL     1       2.446   9.727  17.486  0.00  0.00    +0.000 NA
ATOM      8  N   UNL     1       1.661  10.257  18.440  0.00  0.00    +0.000 N 
ATOM      9  C   UNL     1       1.254  11.637  18.357  0.00  0.00    +0.000 C 
ATOM     10  C   UNL     1       1.330   9.372  19.426  0.00  0.00    +0.000 A 
ATOM     11  N   UNL     1       0.553   9.631  20.488  0.00  0.00    +0.000 NA
ATOM     12  C   UNL     1       0.383   8.612  21.358  0.00  0.00    +0.000 A 
ATOM     13  C   UNL     1       0.946   7.346  21.147  0.00  0.00    +0.000 A 
ATOM     14  C   UNL     1       1.751   7.108  20.016  0.00  0.00    +0.000 A 
ATOM     15  C   UNL     1       1.957   8.177  19.113  0.00  0.00    +0.000 A 
BRANCH  12  16
ATOM     16  C   UNL     1      -0.479   8.928  22.563  0.00  0.00    +0.000 C 
ATOM     17  C   UNL     1      -0.732  10.387  22.885  0.00  0.00    +0.000 C 
ATOM     18  C   UNL     1       0.053   9.538  23.836  0.00  0.00    +0.000 C 
ENDBRANCH  12  16
ENDBRANCH   1  14
BRANCH   3  19
ATOM     19  C   UNL     1       2.362   3.459  19.039  0.00  0.00    +0.000 A 
ATOM     20  C   UNL     1       2.478   2.384  19.898  0.00  0.00    +0.000 A 
ATOM     21  C   UNL     1       3.237   1.420  19.221  0.00  0.00    +0.000 A 
ATOM     22  N   UNL     1       3.581   1.823  18.002  0.00  0.00    +0.000 NA
ATOM     23  N   UNL     1       3.016   3.049  17.889  0.00  0.00    +0.000 N 
BRANCH  23  24
ATOM     24  C   UNL     1       3.284   3.797  16.665  0.00  0.00    +0.000 C 
BRANCH  24  25
ATOM     25  C   UNL     1       4.738   4.183  16.544  0.00  0.00    +0.000 A 
ATOM     26  C   UNL     1       5.538   4.366  17.687  0.00  0.00    +0.000 A 
ATOM     27  C   UNL     1       6.890   4.694  17.569  0.00  0.00    +0.000 A 
ATOM     28  C   UNL     1       7.460   4.857  16.308  0.00  0.00    +0.000 A 
ATOM     29  C   UNL     1       6.667   4.716  15.172  0.00  0.00    +0.000 A 
ATOM     30 CL   UNL     1       7.358   4.923  13.610  0.00  0.00    +0.000 Cl
ATOM     31  C   UNL     1       5.313   4.392  15.284  0.00  0.00    +0.000 A 
ENDBRANCH  24  25
ENDBRANCH  23  24
ENDBRANCH   3  19
TORSDOF 5
ENDMDL
MODEL 3
REMARK VINA RESULT:      -7.8      2.376      4.753
REMARK  Name = 
REMARK  7 active torsions:
REMARK  status: ('A' for Active; 'I' for Inactive)
REMARK    1  A    between atoms: C_1  and  C_2
REMARK    2  A    between atoms: N_4  and  C_5
REMARK    3  A    between atoms: C_8  and  C_9
REMARK    4  A    between atoms: C_13  and  C_14
REMARK    5  A    between atoms: N_16  and  C_17
REMARK    6  A    between atoms: N_21  and  C_22
REMARK    7  A    between atoms: C_22  and  C_23
REMARK                            x       y       z     vdW  Elec       q    Type
REMARK                         _______ _______ _______ _____ _____    ______ ____
ROOT
ATOM      1  C   UNL     1       2.561   8.102  17.943  0.00  0.00    +0.000 C 
ATOM      2  O   UNL     1       1.797   7.273  17.479  0.00  0.00    +0.000 OA
ATOM      3  N   UNL     1       3.996   7.907  17.860  0.00  0.00    +0.000 N 
ATOM      4  H   UNL     1       4.619   8.563  18.311  0.00  0.00    +0.000 HD
ENDROOT
BRANCH   1  14
ATOM      5  C   UNL     1       1.352   6.662  20.827  0.00  0.00    +0.000 C 
ATOM      6  C   UNL     1       1.034   8.114  20.826  0.00  0.00    +0.000 A 
ATOM      7  N   UNL     1       0.350   8.603  21.871  0.00  0.00    +0.000 NA
ATOM      8  N   UNL     1       0.213   9.911  21.591  0.00  0.00    +0.000 N 
ATOM      9  C   UNL     1      -0.507  10.773  22.495  0.00  0.00    +0.000 C 
ATOM     10  C   UNL     1       0.806  10.281  20.417  0.00  0.00    +0.000 A 
ATOM     11  N   UNL     1       0.832  11.519  19.905  0.00  0.00    +0.000 NA
ATOM     12  C   UNL     1       1.450  11.652  18.711  0.00  0.00    +0.000 A 
ATOM     13  C   UNL     1       2.065  10.572  18.063  0.00  0.00    +0.000 A 
ATOM     14  C   UNL     1       2.024   9.286  18.635  0.00  0.00    +0.000 A 
ATOM     15  C   UNL     1       1.356   9.132  19.872  0.00  0.00    +0.000 A 
BRANCH  12  16
ATOM     16  C   UNL     1       1.452  13.053  18.136  0.00  0.00    +0.000 C 
ATOM     17  C   UNL     1       2.685  13.905  18.358  0.00  0.00    +0.000 C 
ATOM     18  C   UNL     1       1.381  14.304  18.976  0.00  0.00    +0.000 C 
ENDBRANCH  12  16
ENDBRANCH   1  14
BRANCH   3  19
ATOM     19  C   UNL     1       4.549   6.766  17.249  0.00  0.00    +0.000 A 
ATOM     20  C   UNL     1       4.921   6.629  15.926  0.00  0.00    +0.000 A 
ATOM     21  C   UNL     1       5.368   5.309  15.777  0.00  0.00    +0.000 A 
ATOM     22  N   UNL     1       5.310   4.633  16.920  0.00  0.00    +0.000 NA
ATOM     23  N   UNL     1       4.843   5.537  17.815  0.00  0.00    +0.000 N 
BRANCH  23  24
ATOM     24  C   UNL     1       4.594   5.064  19.172  0.00  0.00    +0.000 C 
BRANCH  24  25
ATOM     25  C   UNL     1       3.308   4.281  19.271  0.00  0.00    +0.000 A 
ATOM     26  C   UNL     1       2.471   4.114  18.153  0.00  0.00    +0.000 A 
ATOM     27  C   UNL     1       1.297   3.363  18.242  0.00  0.00    +0.000 A 
ATOM     28  C   UNL     1       0.934   2.778  19.454  0.00  0.00    +0.000 A 
ATOM     29  C   UNL     1       1.736   2.970  20.576  0.00  0.00    +0.000 A 
ATOM     30 CL   UNL     1       1.295   2.260  22.079  0.00  0.00    +0.000 Cl
ATOM     31  C   UNL     1       2.909   3.724  20.494  0.00  0.00    +0.000 A 
ENDBRANCH  24  25
ENDBRANCH  23  24
ENDBRANCH   3  19
TORSDOF 5
ENDMDL
MODEL 4
REMARK VINA RESULT:      -7.8      3.486      8.683
REMARK  Name = 
REMARK  7 active torsions:
REMARK  status: ('A' for Active; 'I' for Inactive)
REMARK    1  A    between atoms: C_1  and  C_2
REMARK    2  A    between atoms: N_4  and  C_5
REMARK    3  A    between atoms: C_8  and  C_9
REMARK    4  A    between atoms: C_13  and  C_14
REMARK    5  A    between atoms: N_16  and  C_17
REMARK    6  A    between atoms: N_21  and  C_22
REMARK    7  A    between atoms: C_22  and  C_23
REMARK                            x       y       z     vdW  Elec       q    Type
REMARK                         _______ _______ _______ _____ _____    ______ ____
ROOT
ATOM      1  C   UNL     1       2.529   7.819  18.564  0.00  0.00    +0.000 C 
ATOM      2  O   UNL     1       2.370   7.910  19.769  0.00  0.00    +0.000 OA
ATOM      3  N   UNL     1       2.113   8.895  17.685  0.00  0.00    +0.000 N 
ATOM      4  H   UNL     1       2.181   8.780  16.683  0.00  0.00    +0.000 HD
ENDROOT
BRANCH   1  14
ATOM      5  C   UNL     1       0.974   5.430  20.495  0.00  0.00    +0.000 C 
ATOM      6  C   UNL     1       1.929   4.772  19.564  0.00  0.00    +0.000 A 
ATOM      7  N   UNL     1       2.046   3.438  19.631  0.00  0.00    +0.000 NA
ATOM      8  N   UNL     1       2.962   3.141  18.695  0.00  0.00    +0.000 N 
ATOM      9  C   UNL     1       3.373   1.774  18.491  0.00  0.00    +0.000 C 
ATOM     10  C   UNL     1       3.419   4.234  18.014  0.00  0.00    +0.000 A 
ATOM     11  N   UNL     1       4.323   4.224  17.024  0.00  0.00    +0.000 NA
ATOM     12  C   UNL     1       4.651   5.429  16.512  0.00  0.00    +0.000 A 
ATOM     13  C   UNL     1       4.055   6.618  16.955  0.00  0.00    +0.000 A 
ATOM     14  C   UNL     1       3.103   6.589  17.991  0.00  0.00    +0.000 A 
ATOM     15  C   UNL     1       2.772   5.334  18.553  0.00  0.00    +0.000 A 
BRANCH  12  16
ATOM     16  C   UNL     1       5.691   5.403  15.410  0.00  0.00    +0.000 C 
ATOM     17  C   UNL     1       5.955   4.078  14.724  0.00  0.00    +0.000 C 
ATOM     18  C   UNL     1       7.031   4.724  15.540  0.00  0.00    +0.000 C 
ENDBRANCH  12  16
ENDBRANCH   1  14
BRANCH   3  19
ATOM     19  C   UNL     1       1.516  10.067  18.186  0.00  0.00    +0.000 A 
ATOM     20  C   UNL     1       2.154  11.242  18.531  0.00  0.00    +0.000 A 
ATOM     21  C   UNL     1       1.161  12.099  19.026  0.00  0.00    +0.000 A 
ATOM     22  N   UNL     1      -0.042  11.535  18.994  0.00  0.00    +0.000 NA
ATOM     23  N   UNL     1       0.179  10.313  18.452  0.00  0.00    +0.000 N 
BRANCH  23  24
ATOM     24  C   UNL     1      -0.961   9.409  18.355  0.00  0.00    +0.000 C 
BRANCH  24  25
ATOM     25  C   UNL     1      -2.099  10.015  17.571  0.00  0.00    +0.000 A 
ATOM     26  C   UNL     1      -3.071  10.814  18.200  0.00  0.00    +0.000 A 
ATOM     27  C   UNL     1      -4.106  11.396  17.465  0.00  0.00    +0.000 A 
ATOM     28  C   UNL     1      -4.192  11.178  16.092  0.00  0.00    +0.000 A 
ATOM     29  C   UNL     1      -3.258  10.357  15.466  0.00  0.00    +0.000 A 
ATOM     30 CL   UNL     1      -3.359  10.074  13.772  0.00  0.00    +0.000 Cl
ATOM     31  C   UNL     1      -2.223   9.768  16.197  0.00  0.00    +0.000 A 
ENDBRANCH  24  25
ENDBRANCH  23  24
ENDBRANCH   3  19
TORSDOF 5
ENDMDL
MODEL 5
REMARK VINA RESULT:      -7.8      3.706      8.769
REMARK  Name = 
REMARK  7 active torsions:
REMARK  status: ('A' for Active; 'I' for Inactive)
REMARK    1  A    between atoms: C_1  and  C_2
REMARK    2  A    between atoms: N_4  and  C_5
REMARK    3  A    between atoms: C_8  and  C_9
REMARK    4  A    between atoms: C_13  and  C_14
REMARK    5  A    between atoms: N_16  and  C_17
REMARK    6  A    between atoms: N_21  and  C_22
REMARK    7  A    between atoms: C_22  and  C_23
REMARK                            x       y       z     vdW  Elec       q    Type
REMARK                         _______ _______ _______ _____ _____    ______ ____
ROOT
ATOM      1  C   UNL     1       2.545   7.800  18.531  0.00  0.00    +0.000 C 
ATOM      2  O   UNL     1       2.305   7.891  19.723  0.00  0.00    +0.000 OA
ATOM      3  N   UNL     1       2.189   8.876  17.626  0.00  0.00    +0.000 N 
ATOM      4  H   UNL     1       2.326   8.762  16.631  0.00  0.00    +0.000 HD
ENDROOT
BRANCH   1  14
ATOM      5  C   UNL     1       1.015   5.423  20.496  0.00  0.00    +0.000 C 
ATOM      6  C   UNL     1       1.999   4.765  19.597  0.00  0.00    +0.000 A 
ATOM      7  N   UNL     1       2.146   3.436  19.699  0.00  0.00    +0.000 NA
ATOM      8  N   UNL     1       3.085   3.138  18.784  0.00  0.00    +0.000 N 
ATOM      9  C   UNL     1       3.530   1.776  18.621  0.00  0.00    +0.000 C 
ATOM     10  C   UNL     1       3.527   4.224  18.084  0.00  0.00    +0.000 A 
ATOM     11  N   UNL     1       4.447   4.211  17.109  0.00  0.00    +0.000 NA
ATOM     12  C   UNL     1       4.755   5.412  16.572  0.00  0.00    +0.000 A 
ATOM     13  C   UNL     1       4.124   6.596  16.976  0.00  0.00    +0.000 A 
ATOM     14  C   UNL     1       3.156   6.570  17.998  0.00  0.00    +0.000 A 
ATOM     15  C   UNL     1       2.845   5.322  18.585  0.00  0.00    +0.000 A 
BRANCH  12  16
ATOM     16  C   UNL     1       5.813   5.383  15.488  0.00  0.00    +0.000 C 
ATOM     17  C   UNL     1       5.591   4.453  14.312  0.00  0.00    +0.000 C 
ATOM     18  C   UNL     1       6.734   4.213  15.248  0.00  0.00    +0.000 C 
ENDBRANCH  12  16
ENDBRANCH   1  14
BRANCH   3  19
ATOM     19  C   UNL     1       1.560  10.048  18.087  0.00  0.00    +0.000 A 
ATOM     20  C   UNL     1       2.173  11.226  18.466  0.00  0.00    +0.000 A 
ATOM     21  C   UNL     1       1.148  12.081  18.896  0.00  0.00    +0.000 A 
ATOM     22  N   UNL     1      -0.049  11.514  18.792  0.00  0.00    +0.000 NA
ATOM     23  N   UNL     1       0.209  10.291  18.268  0.00  0.00    +0.000 N 
BRANCH  23  24
ATOM     24  C   UNL     1      -0.921   9.384  18.104  0.00  0.00    +0.000 C 
BRANCH  24  25
ATOM     25  C   UNL     1      -2.109  10.067  17.471  0.00  0.00    +0.000 A 
ATOM     26  C   UNL     1      -2.310  10.031  16.079  0.00  0.00    +0.000 A 
ATOM     27  C   UNL     1      -3.426  10.640  15.500  0.00  0.00    +0.000 A 
ATOM     28  C   UNL     1      -4.351  11.304  16.302  0.00  0.00    +0.000 A 
ATOM     29  C   UNL     1      -4.141  11.378  17.677  0.00  0.00    +0.000 A 
ATOM     30 CL   UNL     1      -5.272  12.202  18.676  0.00  0.00    +0.000 Cl
ATOM     31  C   UNL     1      -3.024  10.775  18.261  0.00  0.00    +0.000 A 
ENDBRANCH  24  25
ENDBRANCH  23  24
ENDBRANCH   3  19
TORSDOF 5
ENDMDL
MODEL 6
REMARK VINA RESULT:      -7.7      7.001     11.249
REMARK  Name = 
REMARK  7 active torsions:
REMARK  status: ('A' for Active; 'I' for Inactive)
REMARK    1  A    between atoms: C_1  and  C_2
REMARK    2  A    between atoms: N_4  and  C_5
REMARK    3  A    between atoms: C_8  and  C_9
REMARK    4  A    between atoms: C_13  and  C_14
REMARK    5  A    between atoms: N_16  and  C_17
REMARK    6  A    between atoms: N_21  and  C_22
REMARK    7  A    between atoms: C_22  and  C_23
REMARK                            x       y       z     vdW  Elec       q    Type
REMARK                         _______ _______ _______ _____ _____    ______ ____
ROOT
ATOM      1  C   UNL     1      -4.319  12.976  20.528  0.00  0.00    +0.000 C 
ATOM      2  O   UNL     1      -4.211  14.175  20.724  0.00  0.00    +0.000 OA
ATOM      3  N   UNL     1      -5.344  12.210  21.210  0.00  0.00    +0.000 N 
ATOM      4  H   UNL     1      -5.379  11.206  21.097  0.00  0.00    +0.000 HD
ENDROOT
BRANCH   1  14
ATOM      5  C   UNL     1      -6.295  12.507  17.748  0.00  0.00    +0.000 C 
ATOM      6  C   UNL     1      -4.964  11.884  17.522  0.00  0.00    +0.000 A 
ATOM      7  N   UNL     1      -4.759  11.256  16.355  0.00  0.00    +0.000 NA
ATOM      8  N   UNL     1      -3.497  10.802  16.443  0.00  0.00    +0.000 N 
ATOM      9  C   UNL     1      -2.925  10.040  15.361  0.00  0.00    +0.000 C 
ATOM     10  C   UNL     1      -2.879  11.137  17.614  0.00  0.00    +0.000 A 
ATOM     11  N   UNL     1      -1.621  10.824  17.957  0.00  0.00    +0.000 NA
ATOM     12  C   UNL     1      -1.224  11.233  19.182  0.00  0.00    +0.000 A 
ATOM     13  C   UNL     1      -2.058  11.976  20.029  0.00  0.00    +0.000 A 
ATOM     14  C   UNL     1      -3.371  12.293  19.632  0.00  0.00    +0.000 A 
ATOM     15  C   UNL     1      -3.805  11.846  18.362  0.00  0.00    +0.000 A 
BRANCH  12  16
ATOM     16  C   UNL     1       0.191  10.853  19.563  0.00  0.00    +0.000 C 
ATOM     17  C   UNL     1       0.383   9.608  20.405  0.00  0.00    +0.000 C 
ATOM     18  C   UNL     1       0.735  10.950  20.966  0.00  0.00    +0.000 C 
ENDBRANCH  12  16
ENDBRANCH   1  14
BRANCH   3  19
ATOM     19  C   UNL     1      -6.239  12.815  22.111  0.00  0.00    +0.000 A 
ATOM     20  C   UNL     1      -7.389  13.514  21.798  0.00  0.00    +0.000 A 
ATOM     21  C   UNL     1      -7.915  13.970  23.014  0.00  0.00    +0.000 A 
ATOM     22  N   UNL     1      -7.177  13.586  24.050  0.00  0.00    +0.000 NA
ATOM     23  N   UNL     1      -6.180  12.858  23.494  0.00  0.00    +0.000 N 
BRANCH  23  24
ATOM     24  C   UNL     1      -5.143  12.354  24.388  0.00  0.00    +0.000 C 
BRANCH  24  25
ATOM     25  C   UNL     1      -3.796  12.969  24.096  0.00  0.00    +0.000 A 
ATOM     26  C   UNL     1      -2.728  12.187  23.620  0.00  0.00    +0.000 A 
ATOM     27  C   UNL     1      -1.492  12.767  23.324  0.00  0.00    +0.000 A 
ATOM     28  C   UNL     1      -1.301  14.134  23.511  0.00  0.00    +0.000 A 
ATOM     29  C   UNL     1      -2.340  14.910  24.019  0.00  0.00    +0.000 A 
ATOM     30 CL   UNL     1      -2.114  16.597  24.262  0.00  0.00    +0.000 Cl
ATOM     31  C   UNL     1      -3.577  14.335  24.321  0.00  0.00    +0.000 A 
ENDBRANCH  24  25
ENDBRANCH  23  24
ENDBRANCH   3  19
TORSDOF 5
ENDMDL
MODEL 7
REMARK VINA RESULT:      -7.7      3.811      8.177
REMARK  Name = 
REMARK  7 active torsions:
REMARK  status: ('A' for Active; 'I' for Inactive)
REMARK    1  A    between atoms: C_1  and  C_2
REMARK    2  A    between atoms: N_4  and  C_5
REMARK    3  A    between atoms: C_8  and  C_9
REMARK    4  A    between atoms: C_13  and  C_14
REMARK    5  A    between atoms: N_16  and  C_17
REMARK    6  A    between atoms: N_21  and  C_22
REMARK    7  A    between atoms: C_22  and  C_23
REMARK                            x       y       z     vdW  Elec       q    Type
REMARK                         _______ _______ _______ _____ _____    ______ ____
ROOT
ATOM      1  C   UNL     1       0.407   8.122  20.950  0.00  0.00    +0.000 C 
ATOM      2  O   UNL     1      -0.773   7.817  20.953  0.00  0.00    +0.000 OA
ATOM      3  N   UNL     1       0.830   9.426  21.422  0.00  0.00    +0.000 N 
ATOM      4  H   UNL     1       1.801   9.696  21.348  0.00  0.00    +0.000 HD
ENDROOT
BRANCH   1  14
ATOM      5  C   UNL     1       1.677   9.950  18.323  0.00  0.00    +0.000 C 
ATOM      6  C   UNL     1       2.311   8.606  18.344  0.00  0.00    +0.000 A 
ATOM      7  N   UNL     1       3.205   8.322  17.385  0.00  0.00    +0.000 NA
ATOM      8  N   UNL     1       3.591   7.064  17.658  0.00  0.00    +0.000 N 
ATOM      9  C   UNL     1       4.547   6.400  16.807  0.00  0.00    +0.000 C 
ATOM     10  C   UNL     1       2.996   6.541  18.770  0.00  0.00    +0.000 A 
ATOM     11  N   UNL     1       3.207   5.317  19.274  0.00  0.00    +0.000 NA
ATOM     12  C   UNL     1       2.484   4.995  20.368  0.00  0.00    +0.000 A 
ATOM     13  C   UNL     1       1.597   5.898  20.970  0.00  0.00    +0.000 A 
ATOM     14  C   UNL     1       1.406   7.179  20.418  0.00  0.00    +0.000 A 
ATOM     15  C   UNL     1       2.139   7.516  19.256  0.00  0.00    +0.000 A 
BRANCH  12  16
ATOM     16  C   UNL     1       2.718   3.601  20.911  0.00  0.00    +0.000 C 
ATOM     17  C   UNL     1       1.924   2.464  20.299  0.00  0.00    +0.000 C 
ATOM     18  C   UNL     1       1.705   2.841  21.731  0.00  0.00    +0.000 C 
ENDBRANCH  12  16
ENDBRANCH   1  14
BRANCH   3  19
ATOM     19  C   UNL     1      -0.096  10.374  21.894  0.00  0.00    +0.000 A 
ATOM     20  C   UNL     1      -0.602  10.477  23.175  0.00  0.00    +0.000 A 
ATOM     21  C   UNL     1      -1.523  11.533  23.151  0.00  0.00    +0.000 A 
ATOM     22  N   UNL     1      -1.606  12.093  21.949  0.00  0.00    +0.000 NA
ATOM     23  N   UNL     1      -0.711  11.404  21.201  0.00  0.00    +0.000 N 
BRANCH  23  24
ATOM     24  C   UNL     1      -0.625  11.742  19.785  0.00  0.00    +0.000 C 
BRANCH  24  25
ATOM     25  C   UNL     1      -1.853  11.308  19.023  0.00  0.00    +0.000 A 
ATOM     26  C   UNL     1      -1.841  10.150  18.224  0.00  0.00    +0.000 A 
ATOM     27  C   UNL     1      -2.989   9.736  17.545  0.00  0.00    +0.000 A 
ATOM     28  C   UNL     1      -4.163  10.480  17.643  0.00  0.00    +0.000 A 
ATOM     29  C   UNL     1      -4.174  11.649  18.400  0.00  0.00    +0.000 A 
ATOM     30 CL   UNL     1      -5.614  12.581  18.522  0.00  0.00    +0.000 Cl
ATOM     31  C   UNL     1      -3.027  12.071  19.078  0.00  0.00    +0.000 A 
ENDBRANCH  24  25
ENDBRANCH  23  24
ENDBRANCH   3  19
TORSDOF 5
ENDMDL
MODEL 8
REMARK VINA RESULT:      -7.7      2.334      4.398
REMARK  Name = 
REMARK  7 active torsions:
REMARK  status: ('A' for Active; 'I' for Inactive)
REMARK    1  A    between atoms: C_1  and  C_2
REMARK    2  A    between atoms: N_4  and  C_5
REMARK    3  A    between atoms: C_8  and  C_9
REMARK    4  A    between atoms: C_13  and  C_14
REMARK    5  A    between atoms: N_16  and  C_17
REMARK    6  A    between atoms: N_21  and  C_22
REMARK    7  A    between atoms: C_22  and  C_23
REMARK                            x       y       z     vdW  Elec       q    Type
REMARK                         _______ _______ _______ _____ _____    ______ ____
ROOT
ATOM      1  C   UNL     1       1.452   9.103  18.946  0.00  0.00    +0.000 C 
ATOM      2  O   UNL     1       0.954   8.739  17.894  0.00  0.00    +0.000 OA
ATOM      3  N   UNL     1       2.183   8.165  19.776  0.00  0.00    +0.000 N 
ATOM      4  H   UNL     1       2.529   8.457  20.680  0.00  0.00    +0.000 HD
ENDROOT
BRANCH   1  14
ATOM      5  C   UNL     1      -0.364   8.594  21.827  0.00  0.00    +0.000 C 
ATOM      6  C   UNL     1      -0.204  10.054  21.592  0.00  0.00    +0.000 A 
ATOM      7  N   UNL     1      -0.774  10.893  22.470  0.00  0.00    +0.000 NA
ATOM      8  N   UNL     1      -0.468  12.115  22.002  0.00  0.00    +0.000 N 
ATOM      9  C   UNL     1      -0.943  13.292  22.686  0.00  0.00    +0.000 C 
ATOM     10  C   UNL     1       0.298  12.089  20.871  0.00  0.00    +0.000 A 
ATOM     11  N   UNL     1       0.753  13.159  20.204  0.00  0.00    +0.000 NA
ATOM     12  C   UNL     1       1.469  12.899  19.089  0.00  0.00    +0.000 A 
ATOM     13  C   UNL     1       1.757  11.591  18.672  0.00  0.00    +0.000 A 
ATOM     14  C   UNL     1       1.268  10.492  19.402  0.00  0.00    +0.000 A 
ATOM     15  C   UNL     1       0.495  10.753  20.557  0.00  0.00    +0.000 A 
BRANCH  12  16
ATOM     16  C   UNL     1       1.958  14.118  18.335  0.00  0.00    +0.000 C 
ATOM     17  C   UNL     1       3.444  14.413  18.359  0.00  0.00    +0.000 C 
ATOM     18  C   UNL     1       2.484  15.362  19.005  0.00  0.00    +0.000 C 
ENDBRANCH  12  16
ENDBRANCH   1  14
BRANCH   3  19
ATOM     19  C   UNL     1       2.342   6.818  19.400  0.00  0.00    +0.000 A 
ATOM     20  C   UNL     1       1.766   5.715  19.999  0.00  0.00    +0.000 A 
ATOM     21  C   UNL     1       2.255   4.595  19.313  0.00  0.00    +0.000 A 
ATOM     22  N   UNL     1       3.077   4.936  18.327  0.00  0.00    +0.000 NA
ATOM     23  N   UNL     1       3.098   6.290  18.367  0.00  0.00    +0.000 N 
BRANCH  23  24
ATOM     24  C   UNL     1       3.990   6.972  17.436  0.00  0.00    +0.000 C 
BRANCH  24  25
ATOM     25  C   UNL     1       5.184   6.124  17.072  0.00  0.00    +0.000 A 
ATOM     26  C   UNL     1       6.260   5.962  17.965  0.00  0.00    +0.000 A 
ATOM     27  C   UNL     1       7.349   5.152  17.635  0.00  0.00    +0.000 A 
ATOM     28  C   UNL     1       7.386   4.503  16.403  0.00  0.00    +0.000 A 
ATOM     29  C   UNL     1       6.345   4.687  15.497  0.00  0.00    +0.000 A 
ATOM     30 CL   UNL     1       6.383   3.896  13.970  0.00  0.00    +0.000 Cl
ATOM     31  C   UNL     1       5.255   5.499  15.819  0.00  0.00    +0.000 A 
ENDBRANCH  24  25
ENDBRANCH  23  24
ENDBRANCH   3  19
TORSDOF 5
ENDMDL
MODEL 9
REMARK VINA RESULT:      -7.5      3.516      8.143
REMARK  Name = 
REMARK  7 active torsions:
REMARK  status: ('A' for Active; 'I' for Inactive)
REMARK    1  A    between atoms: C_1  and  C_2
REMARK    2  A    between atoms: N_4  and  C_5
REMARK    3  A    between atoms: C_8  and  C_9
REMARK    4  A    between atoms: C_13  and  C_14
REMARK    5  A    between atoms: N_16  and  C_17
REMARK    6  A    between atoms: N_21  and  C_22
REMARK    7  A    between atoms: C_22  and  C_23
REMARK                            x       y       z     vdW  Elec       q    Type
REMARK                         _______ _______ _______ _____ _____    ______ ____
ROOT
ATOM      1  C   UNL     1       2.298   7.843  18.776  0.00  0.00    +0.000 C 
ATOM      2  O   UNL     1       2.258   8.145  19.957  0.00  0.00    +0.000 OA
ATOM      3  N   UNL     1       1.990   8.826  17.755  0.00  0.00    +0.000 N 
ATOM      4  H   UNL     1       1.955   8.547  16.784  0.00  0.00    +0.000 HD
ENDROOT
BRANCH   1  14
ATOM      5  C   UNL     1       5.373   8.285  17.291  0.00  0.00    +0.000 C 
ATOM      6  C   UNL     1       4.966   6.860  17.175  0.00  0.00    +0.000 A 
ATOM      7  N   UNL     1       5.795   6.025  16.532  0.00  0.00    +0.000 NA
ATOM      8  N   UNL     1       5.171   4.836  16.585  0.00  0.00    +0.000 N 
ATOM      9  C   UNL     1       5.763   3.679  15.962  0.00  0.00    +0.000 C 
ATOM     10  C   UNL     1       3.983   4.875  17.259  0.00  0.00    +0.000 A 
ATOM     11  N   UNL     1       3.164   3.835  17.471  0.00  0.00    +0.000 NA
ATOM     12  C   UNL     1       2.022   4.109  18.139  0.00  0.00    +0.000 A 
ATOM     13  C   UNL     1       1.727   5.392  18.620  0.00  0.00    +0.000 A 
ATOM     14  C   UNL     1       2.615   6.458  18.385  0.00  0.00    +0.000 A 
ATOM     15  C   UNL     1       3.801   6.187  17.664  0.00  0.00    +0.000 A 
BRANCH  12  16
ATOM     16  C   UNL     1       1.098   2.928  18.350  0.00  0.00    +0.000 C 
ATOM     17  C   UNL     1       0.871   2.457  19.772  0.00  0.00    +0.000 C 
ATOM     18  C   UNL     1       1.568   1.565  18.792  0.00  0.00    +0.000 C 
ENDBRANCH  12  16
ENDBRANCH   1  14
BRANCH   3  19
ATOM     19  C   UNL     1       1.636  10.146  18.088  0.00  0.00    +0.000 A 
ATOM     20  C   UNL     1       2.452  11.260  18.051  0.00  0.00    +0.000 A 
ATOM     21  C   UNL     1       1.677  12.332  18.515  0.00  0.00    +0.000 A 
ATOM     22  N   UNL     1       0.439  11.955  18.818  0.00  0.00    +0.000 NA
ATOM     23  N   UNL     1       0.414  10.633  18.524  0.00  0.00    +0.000 N 
BRANCH  23  24
ATOM     24  C   UNL     1      -0.812   9.904  18.828  0.00  0.00    +0.000 C 
BRANCH  24  25
ATOM     25  C   UNL     1      -1.959  10.333  17.946  0.00  0.00    +0.000 A 
ATOM     26  C   UNL     1      -3.036  11.074  18.466  0.00  0.00    +0.000 A 
ATOM     27  C   UNL     1      -4.081  11.495  17.640  0.00  0.00    +0.000 A 
ATOM     28  C   UNL     1      -4.072  11.170  16.285  0.00  0.00    +0.000 A 
ATOM     29  C   UNL     1      -3.030  10.403  15.769  0.00  0.00    +0.000 A 
ATOM     30 CL   UNL     1      -3.012   9.989  14.100  0.00  0.00    +0.000 Cl
ATOM     31  C   UNL     1      -1.984   9.976  16.591  0.00  0.00    +0.000 A 
ENDBRANCH  24  25
ENDBRANCH  23  24
ENDBRANCH   3  19
TORSDOF 5
ENDMDL
