MODEL 1
REMARK VINA RESULT:      -8.6      0.000      0.000
REMARK  Name = 
REMARK  9 active torsions:
REMARK  status: ('A' for Active; 'I' for Inactive)
REMARK    1  A    between atoms: C_1  and  C_2
REMARK    2  A    between atoms: C_4  and  C_5
REMARK    3  A    between atoms: N_6  and  C_7
REMARK    4  A    between atoms: C_10  and  C_11
REMARK    5  A    between atoms: N_13  and  C_14
REMARK    6  A    between atoms: N_21  and  C_22
REMARK    7  A    between atoms: C_22  and  C_23
REMARK    8  A    between atoms: N_25  and  C_26
REMARK    9  A    between atoms: N_25  and  C_27
REMARK                            x       y       z     vdW  Elec       q    Type
REMARK                         _______ _______ _______ _____ _____    ______ ____
ROOT
ATOM      1  C   UNL     1       1.515   8.088  20.278  0.00  0.00    +0.000 C 
ATOM      2  O   UNL     1       2.199   8.424  19.318  0.00  0.00    +0.000 OA
ATOM      3  N   UNL     1       1.423   6.822  20.763  0.00  0.00    +0.000 N 
ATOM      4  H   UNL     1       0.676   6.599  21.405  0.00  0.00    +0.000 HD
ENDROOT
BRANCH   3   5
ATOM      5  C   UNL     1       2.206   5.708  20.294  0.00  0.00    +0.000 C 
ATOM      6  C   UNL     1       2.026   5.330  18.801  0.00  0.00    +0.000 C 
ATOM      7  C   UNL     1       2.960   4.170  18.345  0.00  0.00    +0.000 C 
ATOM      8  C   UNL     1       2.307   2.796  18.297  0.00  0.00    +0.000 C 
ATOM      9  C   UNL     1       2.186   2.404  19.766  0.00  0.00    +0.000 C 
ATOM     10  C   UNL     1       3.119   3.409  20.510  0.00  0.00    +0.000 C 
ATOM     11  C   UNL     1       2.215   4.473  21.175  0.00  0.00    +0.000 C 
ATOM     12  N   UNL     1       3.960   3.865  19.377  0.00  0.00    +0.000 NA
BRANCH  12  13
ATOM     13  C   UNL     1       4.978   4.926  19.392  0.00  0.00    +0.000 C 
BRANCH  13  14
ATOM     14  C   UNL     1       6.032   4.907  18.300  0.00  0.00    +0.000 C 
ATOM     15  O   UNL     1       6.933   4.063  18.340  0.00  0.00    +0.000 OA
ATOM     16  N   UNL     1       6.017   5.942  17.377  0.00  0.00    +0.000 N 
ATOM     17  C   UNL     1       4.910   6.866  17.199  0.00  0.00    +0.000 C 
ATOM     18  C   UNL     1       7.178   6.156  16.532  0.00  0.00    +0.000 C 
ENDBRANCH  13  14
ENDBRANCH  12  13
ENDBRANCH   3   5
BRANCH   1  22
ATOM     19  C   UNL     1      -0.906  11.005  22.242  0.00  0.00    +0.000 A 
ATOM     20  C   UNL     1      -0.674  11.053  20.860  0.00  0.00    +0.000 A 
ATOM     21  C   UNL     1       0.109  10.094  20.241  0.00  0.00    +0.000 A 
ATOM     22  C   UNL     1       0.681   9.081  21.000  0.00  0.00    +0.000 A 
ATOM     23  C   UNL     1       0.497   9.041  22.391  0.00  0.00    +0.000 A 
ATOM     24  C   UNL     1      -0.292  10.007  23.010  0.00  0.00    +0.000 A 
BRANCH  19  30
ATOM     25  C   UNL     1      -4.610  12.608  24.839  0.00  0.00    +0.000 C 
ATOM     26  C   UNL     1      -3.351  12.680  24.062  0.00  0.00    +0.000 A 
ATOM     27  C   UNL     1      -2.477  13.774  23.914  0.00  0.00    +0.000 A 
ATOM     28  C   UNL     1      -1.461  13.329  23.099  0.00  0.00    +0.000 A 
ATOM     29  C   UNL     1      -0.357  14.115  22.486  0.00  0.00    +0.000 C 
ATOM     30  N   UNL     1      -1.715  11.981  22.873  0.00  0.00    +0.000 N 
ATOM     31  N   UNL     1      -2.937  11.625  23.357  0.00  0.00    +0.000 NA
ENDBRANCH  19  30
ENDBRANCH   1  22
TORSDOF 5
ENDMDL
MODEL 2
REMARK VINA RESULT:      -8.6      1.821      2.457
REMARK  Name = 
REMARK  9 active torsions:
REMARK  status: ('A' for Active; 'I' for Inactive)
REMARK    1  A    between atoms: C_1  and  C_2
REMARK    2  A    between atoms: C_4  and  C_5
REMARK    3  A    between atoms: N_6  and  C_7
REMARK    4  A    between atoms: C_10  and  C_11
REMARK    5  A    between atoms: N_13  and  C_14
REMARK    6  A    between atoms: N_21  and  C_22
REMARK    7  A    between atoms: C_22  and  C_23
REMARK    8  A    between atoms: N_25  and  C_26
REMARK    9  A    between atoms: N_25  and  C_27
REMARK                            x       y       z     vdW  Elec       q    Type
REMARK                         _______ _______ _______ _____ _____    ______ ____
ROOT
ATOM      1  C   UNL     1       2.201   8.232  18.396  0.00  0.00    +0.000 C 
ATOM      2  O   UNL     1       2.527   8.472  17.240  0.00  0.00    +0.000 OA
ATOM      3  N   UNL     1       2.459   7.069  19.051  0.00  0.00    +0.000 N 
ATOM      4  H   UNL     1       1.966   6.875  19.911  0.00  0.00    +0.000 HD
ENDROOT
BRANCH   3   5
ATOM      5  C   UNL     1       3.255   5.992  18.523  0.00  0.00    +0.000 C 
ATOM      6  C   UNL     1       2.477   4.857  17.808  0.00  0.00    +0.000 C 
ATOM      7  C   UNL     1       3.406   3.769  17.193  0.00  0.00    +0.000 C 
ATOM      8  C   UNL     1       3.566   2.507  18.030  0.00  0.00    +0.000 C 
ATOM      9  C   UNL     1       4.478   2.946  19.171  0.00  0.00    +0.000 C 
ATOM     10  C   UNL     1       5.071   4.306  18.688  0.00  0.00    +0.000 C 
ATOM     11  C   UNL     1       4.322   5.430  19.442  0.00  0.00    +0.000 C 
ATOM     12  N   UNL     1       4.812   4.196  17.231  0.00  0.00    +0.000 NA
BRANCH  12  13
ATOM     13  C   UNL     1       5.032   5.227  16.206  0.00  0.00    +0.000 C 
BRANCH  13  14
ATOM     14  C   UNL     1       6.404   5.296  15.561  0.00  0.00    +0.000 C 
ATOM     15  O   UNL     1       7.300   5.947  16.107  0.00  0.00    +0.000 OA
ATOM     16  N   UNL     1       6.548   4.739  14.299  0.00  0.00    +0.000 N 
ATOM     17  C   UNL     1       5.580   3.848  13.681  0.00  0.00    +0.000 C 
ATOM     18  C   UNL     1       7.720   5.066  13.507  0.00  0.00    +0.000 C 
ENDBRANCH  13  14
ENDBRANCH  12  13
ENDBRANCH   3   5
BRANCH   1  22
ATOM     19  C   UNL     1       0.044  11.022  20.802  0.00  0.00    +0.000 A 
ATOM     20  C   UNL     1       0.535   9.820  21.332  0.00  0.00    +0.000 A 
ATOM     21  C   UNL     1       1.238   8.932  20.537  0.00  0.00    +0.000 A 
ATOM     22  C   UNL     1       1.447   9.228  19.195  0.00  0.00    +0.000 A 
ATOM     23  C   UNL     1       0.925  10.405  18.635  0.00  0.00    +0.000 A 
ATOM     24  C   UNL     1       0.220  11.297  19.439  0.00  0.00    +0.000 A 
BRANCH  19  30
ATOM     25  C   UNL     1      -3.468  12.445  23.746  0.00  0.00    +0.000 C 
ATOM     26  C   UNL     1      -2.217  12.547  22.959  0.00  0.00    +0.000 A 
ATOM     27  C   UNL     1      -1.252  13.570  22.983  0.00  0.00    +0.000 A 
ATOM     28  C   UNL     1      -0.290  13.194  22.073  0.00  0.00    +0.000 A 
ATOM     29  C   UNL     1       0.872  13.979  21.578  0.00  0.00    +0.000 C 
ATOM     30  N   UNL     1      -0.666  11.935  21.618  0.00  0.00    +0.000 N 
ATOM     31  N   UNL     1      -1.908  11.604  22.067  0.00  0.00    +0.000 NA
ENDBRANCH  19  30
ENDBRANCH   1  22
TORSDOF 5
ENDMDL
MODEL 3
REMARK VINA RESULT:      -8.6      5.952      8.949
REMARK  Name = 
REMARK  9 active torsions:
REMARK  status: ('A' for Active; 'I' for Inactive)
REMARK    1  A    between atoms: C_1  and  C_2
REMARK    2  A    between atoms: C_4  and  C_5
REMARK    3  A    between atoms: N_6  and  C_7
REMARK    4  A    between atoms: C_10  and  C_11
REMARK    5  A    between atoms: N_13  and  C_14
REMARK    6  A    between atoms: N_21  and  C_22
REMARK    7  A    between atoms: C_22  and  C_23
REMARK    8  A    between atoms: N_25  and  C_26
REMARK    9  A    between atoms: N_25  and  C_27
REMARK                            x       y       z     vdW  Elec       q    Type
REMARK                         _______ _______ _______ _____ _____    ______ ____
ROOT
ATOM      1  C   UNL     1       8.166   8.321  18.288  0.00  0.00    +0.000 C 
ATOM      2  O   UNL     1       8.656   7.489  19.043  0.00  0.00    +0.000 OA
ATOM      3  N   UNL     1       7.224   8.057  17.345  0.00  0.00    +0.000 N 
ATOM      4  H   UNL     1       7.045   8.746  16.629  0.00  0.00    +0.000 HD
ENDROOT
BRANCH   3   5
ATOM      5  C   UNL     1       6.578   6.782  17.169  0.00  0.00    +0.000 C 
ATOM      6  C   UNL     1       7.485   5.617  16.699  0.00  0.00    +0.000 C 
ATOM      7  C   UNL     1       6.736   4.254  16.608  0.00  0.00    +0.000 C 
ATOM      8  C   UNL     1       6.283   3.858  15.209  0.00  0.00    +0.000 C 
ATOM      9  C   UNL     1       5.092   4.772  14.945  0.00  0.00    +0.000 C 
ATOM     10  C   UNL     1       4.726   5.344  16.350  0.00  0.00    +0.000 C 
ATOM     11  C   UNL     1       5.263   6.794  16.413  0.00  0.00    +0.000 C 
ATOM     12  N   UNL     1       5.402   4.346  17.216  0.00  0.00    +0.000 NA
BRANCH  12  13
ATOM     13  C   UNL     1       5.540   4.384  18.680  0.00  0.00    +0.000 C 
BRANCH  13  14
ATOM     14  C   UNL     1       4.570   3.553  19.500  0.00  0.00    +0.000 C 
ATOM     15  O   UNL     1       4.836   2.372  19.744  0.00  0.00    +0.000 OA
ATOM     16  N   UNL     1       3.346   4.124  19.817  0.00  0.00    +0.000 N 
ATOM     17  C   UNL     1       3.042   5.538  19.682  0.00  0.00    +0.000 C 
ATOM     18  C   UNL     1       2.270   3.276  20.296  0.00  0.00    +0.000 C 
ENDBRANCH  13  14
ENDBRANCH  12  13
ENDBRANCH   3   5
BRANCH   1  22
ATOM     19  C   UNL     1       9.501  12.369  18.525  0.00  0.00    +0.000 A 
ATOM     20  C   UNL     1      10.004  11.378  19.380  0.00  0.00    +0.000 A 
ATOM     21  C   UNL     1       9.563  10.070  19.283  0.00  0.00    +0.000 A 
ATOM     22  C   UNL     1       8.601   9.738  18.336  0.00  0.00    +0.000 A 
ATOM     23  C   UNL     1       8.053  10.724  17.501  0.00  0.00    +0.000 A 
ATOM     24  C   UNL     1       8.500  12.040  17.601  0.00  0.00    +0.000 A 
BRANCH  19  30
ATOM     25  C   UNL     1       9.723  16.804  20.345  0.00  0.00    +0.000 C 
ATOM     26  C   UNL     1      10.076  15.669  19.462  0.00  0.00    +0.000 A 
ATOM     27  C   UNL     1      11.160  15.559  18.572  0.00  0.00    +0.000 A 
ATOM     28  C   UNL     1      11.040  14.316  17.992  0.00  0.00    +0.000 A 
ATOM     29  C   UNL     1      11.820  13.744  16.863  0.00  0.00    +0.000 C 
ATOM     30  N   UNL     1       9.960  13.706  18.619  0.00  0.00    +0.000 N 
ATOM     31  N   UNL     1       9.298  14.585  19.421  0.00  0.00    +0.000 NA
ENDBRANCH  19  30
ENDBRANCH   1  22
TORSDOF 5
ENDMDL
MODEL 4
REMARK VINA RESULT:      -8.5      5.868      8.969
REMARK  Name = 
REMARK  9 active torsions:
REMARK  status: ('A' for Active; 'I' for Inactive)
REMARK    1  A    between atoms: C_1  and  C_2
REMARK    2  A    between atoms: C_4  and  C_5
REMARK    3  A    between atoms: N_6  and  C_7
REMARK    4  A    between atoms: C_10  and  C_11
REMARK    5  A    between atoms: N_13  and  C_14
REMARK    6  A    between atoms: N_21  and  C_22
REMARK    7  A    between atoms: C_22  and  C_23
REMARK    8  A    between atoms: N_25  and  C_26
REMARK    9  A    between atoms: N_25  and  C_27
REMARK                            x       y       z     vdW  Elec       q    Type
REMARK                         _______ _______ _______ _____ _____    ______ ____
ROOT
ATOM      1  C   UNL     1       8.159   8.291  18.275  0.00  0.00    +0.000 C 
ATOM      2  O   UNL     1       8.640   7.446  19.021  0.00  0.00    +0.000 OA
ATOM      3  N   UNL     1       7.225   8.043  17.320  0.00  0.00    +0.000 N 
ATOM      4  H   UNL     1       7.053   8.744  16.613  0.00  0.00    +0.000 HD
ENDROOT
BRANCH   3   5
ATOM      5  C   UNL     1       6.577   6.773  17.119  0.00  0.00    +0.000 C 
ATOM      6  C   UNL     1       7.488   5.609  16.652  0.00  0.00    +0.000 C 
ATOM      7  C   UNL     1       6.736   4.250  16.534  0.00  0.00    +0.000 C 
ATOM      8  C   UNL     1       6.306   3.871  15.124  0.00  0.00    +0.000 C 
ATOM      9  C   UNL     1       5.122   4.793  14.849  0.00  0.00    +0.000 C 
ATOM     10  C   UNL     1       4.735   5.350  16.253  0.00  0.00    +0.000 C 
ATOM     11  C   UNL     1       5.275   6.797  16.341  0.00  0.00    +0.000 C 
ATOM     12  N   UNL     1       5.392   4.341  17.120  0.00  0.00    +0.000 NA
BRANCH  12  13
ATOM     13  C   UNL     1       5.505   4.363  18.586  0.00  0.00    +0.000 C 
BRANCH  13  14
ATOM     14  C   UNL     1       4.416   3.671  19.386  0.00  0.00    +0.000 C 
ATOM     15  O   UNL     1       4.507   2.461  19.617  0.00  0.00    +0.000 OA
ATOM     16  N   UNL     1       3.284   4.409  19.699  0.00  0.00    +0.000 N 
ATOM     17  C   UNL     1       3.188   5.854  19.579  0.00  0.00    +0.000 C 
ATOM     18  C   UNL     1       2.091   3.720  20.157  0.00  0.00    +0.000 C 
ENDBRANCH  13  14
ENDBRANCH  12  13
ENDBRANCH   3   5
BRANCH   1  22
ATOM     19  C   UNL     1       9.502  12.332  18.583  0.00  0.00    +0.000 A 
ATOM     20  C   UNL     1      10.002  11.325  19.422  0.00  0.00    +0.000 A 
ATOM     21  C   UNL     1       9.559  10.020  19.301  0.00  0.00    +0.000 A 
ATOM     22  C   UNL     1       8.597   9.707  18.348  0.00  0.00    +0.000 A 
ATOM     23  C   UNL     1       8.051  10.708  17.529  0.00  0.00    +0.000 A 
ATOM     24  C   UNL     1       8.501  12.020  17.653  0.00  0.00    +0.000 A 
BRANCH  19  30
ATOM     25  C   UNL     1      11.183  16.538  16.999  0.00  0.00    +0.000 C 
ATOM     26  C   UNL     1      10.679  15.548  17.978  0.00  0.00    +0.000 A 
ATOM     27  C   UNL     1      10.317  15.755  19.322  0.00  0.00    +0.000 A 
ATOM     28  C   UNL     1       9.916  14.525  19.792  0.00  0.00    +0.000 A 
ATOM     29  C   UNL     1       9.585  14.132  21.188  0.00  0.00    +0.000 C 
ATOM     30  N   UNL     1       9.963  13.665  18.701  0.00  0.00    +0.000 N 
ATOM     31  N   UNL     1      10.552  14.266  17.630  0.00  0.00    +0.000 NA
ENDBRANCH  19  30
ENDBRANCH   1  22
TORSDOF 5
ENDMDL
MODEL 5
REMARK VINA RESULT:      -8.5      1.240      1.524
REMARK  Name = 
REMARK  9 active torsions:
REMARK  status: ('A' for Active; 'I' for Inactive)
REMARK    1  A    between atoms: C_1  and  C_2
REMARK    2  A    between atoms: C_4  and  C_5
REMARK    3  A    between atoms: N_6  and  C_7
REMARK    4  A    between atoms: C_10  and  C_11
REMARK    5  A    between atoms: N_13  and  C_14
REMARK    6  A    between atoms: N_21  and  C_22
REMARK    7  A    between atoms: C_22  and  C_23
REMARK    8  A    between atoms: N_25  and  C_26
REMARK    9  A    between atoms: N_25  and  C_27
REMARK                            x       y       z     vdW  Elec       q    Type
REMARK                         _______ _______ _______ _____ _____    ______ ____
ROOT
ATOM      1  C   UNL     1       2.190   7.797  18.931  0.00  0.00    +0.000 C 
ATOM      2  O   UNL     1       2.705   8.087  17.858  0.00  0.00    +0.000 OA
ATOM      3  N   UNL     1       2.208   6.560  19.493  0.00  0.00    +0.000 N 
ATOM      4  H   UNL     1       1.577   6.362  20.258  0.00  0.00    +0.000 HD
ENDROOT
BRANCH   3   5
ATOM      5  C   UNL     1       2.933   5.432  18.967  0.00  0.00    +0.000 C 
ATOM      6  C   UNL     1       2.237   4.648  17.825  0.00  0.00    +0.000 C 
ATOM      7  C   UNL     1       3.112   3.494  17.251  0.00  0.00    +0.000 C 
ATOM      8  C   UNL     1       2.782   2.107  17.785  0.00  0.00    +0.000 C 
ATOM      9  C   UNL     1       3.351   2.121  19.200  0.00  0.00    +0.000 C 
ATOM     10  C   UNL     1       4.288   3.368  19.225  0.00  0.00    +0.000 C 
ATOM     11  C   UNL     1       3.545   4.490  19.986  0.00  0.00    +0.000 C 
ATOM     12  N   UNL     1       4.485   3.570  17.768  0.00  0.00    +0.000 NA
BRANCH  12  13
ATOM     13  C   UNL     1       5.189   4.680  17.109  0.00  0.00    +0.000 C 
BRANCH  13  14
ATOM     14  C   UNL     1       6.560   5.058  17.639  0.00  0.00    +0.000 C 
ATOM     15  O   UNL     1       7.314   4.175  18.060  0.00  0.00    +0.000 OA
ATOM     16  N   UNL     1       6.849   6.409  17.761  0.00  0.00    +0.000 N 
ATOM     17  C   UNL     1       6.067   7.473  17.155  0.00  0.00    +0.000 C 
ATOM     18  C   UNL     1       7.989   6.822  18.560  0.00  0.00    +0.000 C 
ENDBRANCH  13  14
ENDBRANCH  12  13
ENDBRANCH   3   5
BRANCH   1  22
ATOM     19  C   UNL     1       0.069  10.803  21.098  0.00  0.00    +0.000 A 
ATOM     20  C   UNL     1       0.340  10.937  19.728  0.00  0.00    +0.000 A 
ATOM     21  C   UNL     1       1.023   9.948  19.043  0.00  0.00    +0.000 A 
ATOM     22  C   UNL     1       1.457   8.816  19.722  0.00  0.00    +0.000 A 
ATOM     23  C   UNL     1       1.235   8.683  21.102  0.00  0.00    +0.000 A 
ATOM     24  C   UNL     1       0.546   9.680  21.788  0.00  0.00    +0.000 A 
BRANCH  19  30
ATOM     25  C   UNL     1      -3.416  12.578  23.878  0.00  0.00    +0.000 C 
ATOM     26  C   UNL     1      -2.178  12.584  23.066  0.00  0.00    +0.000 A 
ATOM     27  C   UNL     1      -1.221  13.608  22.939  0.00  0.00    +0.000 A 
ATOM     28  C   UNL     1      -0.268  13.122  22.074  0.00  0.00    +0.000 A 
ATOM     29  C   UNL     1       0.880  13.843  21.462  0.00  0.00    +0.000 C 
ATOM     30  N   UNL     1      -0.639  11.811  21.796  0.00  0.00    +0.000 N 
ATOM     31  N   UNL     1      -1.872  11.533  22.303  0.00  0.00    +0.000 NA
ENDBRANCH  19  30
ENDBRANCH   1  22
TORSDOF 5
ENDMDL
MODEL 6
REMARK VINA RESULT:      -8.4      5.932      8.896
REMARK  Name = 
REMARK  9 active torsions:
REMARK  status: ('A' for Active; 'I' for Inactive)
REMARK    1  A    between atoms: C_1  and  C_2
REMARK    2  A    between atoms: C_4  and  C_5
REMARK    3  A    between atoms: N_6  and  C_7
REMARK    4  A    between atoms: C_10  and  C_11
REMARK    5  A    between atoms: N_13  and  C_14
REMARK    6  A    between atoms: N_21  and  C_22
REMARK    7  A    between atoms: C_22  and  C_23
REMARK    8  A    between atoms: N_25  and  C_26
REMARK    9  A    between atoms: N_25  and  C_27
REMARK                            x       y       z     vdW  Elec       q    Type
REMARK                         _______ _______ _______ _____ _____    ______ ____
ROOT
ATOM      1  C   UNL     1       8.167   8.312  18.328  0.00  0.00    +0.000 C 
ATOM      2  O   UNL     1       8.672   7.466  19.056  0.00  0.00    +0.000 OA
ATOM      3  N   UNL     1       7.205   8.066  17.401  0.00  0.00    +0.000 N 
ATOM      4  H   UNL     1       7.010   8.769  16.702  0.00  0.00    +0.000 HD
ENDROOT
BRANCH   3   5
ATOM      5  C   UNL     1       6.553   6.795  17.216  0.00  0.00    +0.000 C 
ATOM      6  C   UNL     1       7.463   5.620  16.776  0.00  0.00    +0.000 C 
ATOM      7  C   UNL     1       6.707   4.262  16.674  0.00  0.00    +0.000 C 
ATOM      8  C   UNL     1       6.287   3.861  15.267  0.00  0.00    +0.000 C 
ATOM      9  C   UNL     1       5.109   4.783  14.967  0.00  0.00    +0.000 C 
ATOM     10  C   UNL     1       4.713   5.366  16.358  0.00  0.00    +0.000 C 
ATOM     11  C   UNL     1       5.258   6.812  16.426  0.00  0.00    +0.000 C 
ATOM     12  N   UNL     1       5.358   4.369  17.247  0.00  0.00    +0.000 NA
BRANCH  12  13
ATOM     13  C   UNL     1       5.458   4.414  18.714  0.00  0.00    +0.000 C 
BRANCH  13  14
ATOM     14  C   UNL     1       4.563   3.482  19.510  0.00  0.00    +0.000 C 
ATOM     15  O   UNL     1       4.920   2.316  19.706  0.00  0.00    +0.000 OA
ATOM     16  N   UNL     1       3.304   3.947  19.860  0.00  0.00    +0.000 N 
ATOM     17  C   UNL     1       2.893   5.339  19.783  0.00  0.00    +0.000 C 
ATOM     18  C   UNL     1       2.300   3.003  20.316  0.00  0.00    +0.000 C 
ENDBRANCH  13  14
ENDBRANCH  12  13
ENDBRANCH   3   5
BRANCH   1  22
ATOM     19  C   UNL     1       9.338  12.417  18.420  0.00  0.00    +0.000 A 
ATOM     20  C   UNL     1       8.344  11.955  17.544  0.00  0.00    +0.000 A 
ATOM     21  C   UNL     1       7.975  10.622  17.534  0.00  0.00    +0.000 A 
ATOM     22  C   UNL     1       8.605   9.728  18.393  0.00  0.00    +0.000 A 
ATOM     23  C   UNL     1       9.632  10.162  19.245  0.00  0.00    +0.000 A 
ATOM     24  C   UNL     1      10.000  11.505  19.253  0.00  0.00    +0.000 A 
BRANCH  19  30
ATOM     25  C   UNL     1      11.830  16.292  17.080  0.00  0.00    +0.000 C 
ATOM     26  C   UNL     1      10.802  15.511  17.804  0.00  0.00    +0.000 A 
ATOM     27  C   UNL     1       9.735  15.986  18.588  0.00  0.00    +0.000 A 
ATOM     28  C   UNL     1       9.075  14.865  19.037  0.00  0.00    +0.000 A 
ATOM     29  C   UNL     1       7.974  14.777  20.033  0.00  0.00    +0.000 C 
ATOM     30  N   UNL     1       9.708  13.783  18.436  0.00  0.00    +0.000 N 
ATOM     31  N   UNL     1      10.839  14.177  17.788  0.00  0.00    +0.000 NA
ENDBRANCH  19  30
ENDBRANCH   1  22
TORSDOF 5
ENDMDL
MODEL 7
REMARK VINA RESULT:      -8.4      6.228      9.066
REMARK  Name = 
REMARK  9 active torsions:
REMARK  status: ('A' for Active; 'I' for Inactive)
REMARK    1  A    between atoms: C_1  and  C_2
REMARK    2  A    between atoms: C_4  and  C_5
REMARK    3  A    between atoms: N_6  and  C_7
REMARK    4  A    between atoms: C_10  and  C_11
REMARK    5  A    between atoms: N_13  and  C_14
REMARK    6  A    between atoms: N_21  and  C_22
REMARK    7  A    between atoms: C_22  and  C_23
REMARK    8  A    between atoms: N_25  and  C_26
REMARK    9  A    between atoms: N_25  and  C_27
REMARK                            x       y       z     vdW  Elec       q    Type
REMARK                         _______ _______ _______ _____ _____    ______ ____
ROOT
ATOM      1  C   UNL     1       8.196   8.407  18.297  0.00  0.00    +0.000 C 
ATOM      2  O   UNL     1       8.707   7.557  19.018  0.00  0.00    +0.000 OA
ATOM      3  N   UNL     1       7.227   8.165  17.376  0.00  0.00    +0.000 N 
ATOM      4  H   UNL     1       7.027   8.871  16.682  0.00  0.00    +0.000 HD
ENDROOT
BRANCH   3   5
ATOM      5  C   UNL     1       6.575   6.894  17.188  0.00  0.00    +0.000 C 
ATOM      6  C   UNL     1       7.498   5.701  16.831  0.00  0.00    +0.000 C 
ATOM      7  C   UNL     1       6.736   4.347  16.723  0.00  0.00    +0.000 C 
ATOM      8  C   UNL     1       6.391   3.911  15.305  0.00  0.00    +0.000 C 
ATOM      9  C   UNL     1       5.241   4.834  14.915  0.00  0.00    +0.000 C 
ATOM     10  C   UNL     1       4.773   5.457  16.267  0.00  0.00    +0.000 C 
ATOM     11  C   UNL     1       5.327   6.900  16.327  0.00  0.00    +0.000 C 
ATOM     12  N   UNL     1       5.358   4.479  17.216  0.00  0.00    +0.000 NA
BRANCH  12  13
ATOM     13  C   UNL     1       5.377   4.563  18.684  0.00  0.00    +0.000 C 
BRANCH  13  14
ATOM     14  C   UNL     1       4.054   4.787  19.394  0.00  0.00    +0.000 C 
ATOM     15  O   UNL     1       3.648   5.939  19.574  0.00  0.00    +0.000 OA
ATOM     16  N   UNL     1       3.425   3.678  19.941  0.00  0.00    +0.000 N 
ATOM     17  C   UNL     1       3.779   2.302  19.638  0.00  0.00    +0.000 C 
ATOM     18  C   UNL     1       2.354   3.872  20.901  0.00  0.00    +0.000 C 
ENDBRANCH  13  14
ENDBRANCH  12  13
ENDBRANCH   3   5
BRANCH   1  22
ATOM     19  C   UNL     1       9.531  12.451  18.599  0.00  0.00    +0.000 A 
ATOM     20  C   UNL     1       9.990  11.458  19.476  0.00  0.00    +0.000 A 
ATOM     21  C   UNL     1       9.551  10.151  19.357  0.00  0.00    +0.000 A 
ATOM     22  C   UNL     1       8.633   9.823  18.367  0.00  0.00    +0.000 A 
ATOM     23  C   UNL     1       8.127  10.811  17.508  0.00  0.00    +0.000 A 
ATOM     24  C   UNL     1       8.573  12.125  17.629  0.00  0.00    +0.000 A 
BRANCH  19  30
ATOM     25  C   UNL     1      12.062  16.334  17.357  0.00  0.00    +0.000 C 
ATOM     26  C   UNL     1      11.095  15.521  18.130  0.00  0.00    +0.000 A 
ATOM     27  C   UNL     1      10.181  15.950  19.111  0.00  0.00    +0.000 A 
ATOM     28  C   UNL     1       9.519  14.816  19.522  0.00  0.00    +0.000 A 
ATOM     29  C   UNL     1       8.563  14.661  20.651  0.00  0.00    +0.000 C 
ATOM     30  N   UNL     1       9.989  13.786  18.715  0.00  0.00    +0.000 N 
ATOM     31  N   UNL     1      11.042  14.199  17.958  0.00  0.00    +0.000 NA
ENDBRANCH  19  30
ENDBRANCH   1  22
TORSDOF 5
ENDMDL
MODEL 8
REMARK VINA RESULT:      -8.4      1.935      2.585
REMARK  Name = 
REMARK  9 active torsions:
REMARK  status: ('A' for Active; 'I' for Inactive)
REMARK    1  A    between atoms: C_1  and  C_2
REMARK    2  A    between atoms: C_4  and  C_5
REMARK    3  A    between atoms: N_6  and  C_7
REMARK    4  A    between atoms: C_10  and  C_11
REMARK    5  A    between atoms: N_13  and  C_14
REMARK    6  A    between atoms: N_21  and  C_22
REMARK    7  A    between atoms: C_22  and  C_23
REMARK    8  A    between atoms: N_25  and  C_26
REMARK    9  A    between atoms: N_25  and  C_27
REMARK                            x       y       z     vdW  Elec       q    Type
REMARK                         _______ _______ _______ _____ _____    ______ ____
ROOT
ATOM      1  C   UNL     1       2.196   8.184  18.385  0.00  0.00    +0.000 C 
ATOM      2  O   UNL     1       2.673   8.479  17.295  0.00  0.00    +0.000 OA
ATOM      3  N   UNL     1       2.350   6.984  19.003  0.00  0.00    +0.000 N 
ATOM      4  H   UNL     1       1.748   6.755  19.781  0.00  0.00    +0.000 HD
ENDROOT
BRANCH   3   5
ATOM      5  C   UNL     1       3.191   5.918  18.522  0.00  0.00    +0.000 C 
ATOM      6  C   UNL     1       2.470   4.759  17.789  0.00  0.00    +0.000 C 
ATOM      7  C   UNL     1       3.447   3.685  17.227  0.00  0.00    +0.000 C 
ATOM      8  C   UNL     1       3.598   2.436  18.085  0.00  0.00    +0.000 C 
ATOM      9  C   UNL     1       4.452   2.908  19.258  0.00  0.00    +0.000 C 
ATOM     10  C   UNL     1       5.034   4.275  18.784  0.00  0.00    +0.000 C 
ATOM     11  C   UNL     1       4.230   5.391  19.493  0.00  0.00    +0.000 C 
ATOM     12  N   UNL     1       4.840   4.143  17.320  0.00  0.00    +0.000 NA
BRANCH  12  13
ATOM     13  C   UNL     1       5.081   5.167  16.292  0.00  0.00    +0.000 C 
BRANCH  13  14
ATOM     14  C   UNL     1       6.465   5.228  15.670  0.00  0.00    +0.000 C 
ATOM     15  O   UNL     1       7.379   5.796  16.275  0.00  0.00    +0.000 OA
ATOM     16  N   UNL     1       6.603   4.764  14.370  0.00  0.00    +0.000 N 
ATOM     17  C   UNL     1       5.609   3.965  13.674  0.00  0.00    +0.000 C 
ATOM     18  C   UNL     1       7.799   5.100  13.620  0.00  0.00    +0.000 C 
ENDBRANCH  13  14
ENDBRANCH  12  13
ENDBRANCH   3   5
BRANCH   1  22
ATOM     19  C   UNL     1      -0.220  11.047  20.433  0.00  0.00    +0.000 A 
ATOM     20  C   UNL     1       0.105  11.195  19.077  0.00  0.00    +0.000 A 
ATOM     21  C   UNL     1       0.885  10.253  18.430  0.00  0.00    +0.000 A 
ATOM     22  C   UNL     1       1.361   9.154  19.135  0.00  0.00    +0.000 A 
ATOM     23  C   UNL     1       1.083   9.010  20.504  0.00  0.00    +0.000 A 
ATOM     24  C   UNL     1       0.297   9.960  21.151  0.00  0.00    +0.000 A 
BRANCH  19  30
ATOM     25  C   UNL     1      -1.309  14.261  23.826  0.00  0.00    +0.000 C 
ATOM     26  C   UNL     1      -1.485  13.464  22.590  0.00  0.00    +0.000 A 
ATOM     27  C   UNL     1      -2.462  13.610  21.589  0.00  0.00    +0.000 A 
ATOM     28  C   UNL     1      -2.192  12.629  20.661  0.00  0.00    +0.000 A 
ATOM     29  C   UNL     1      -3.004  12.222  19.483  0.00  0.00    +0.000 C 
ATOM     30  N   UNL     1      -1.026  12.007  21.092  0.00  0.00    +0.000 N 
ATOM     31  N   UNL     1      -0.673  12.436  22.335  0.00  0.00    +0.000 NA
ENDBRANCH  19  30
ENDBRANCH   1  22
TORSDOF 5
ENDMDL
MODEL 9
REMARK VINA RESULT:      -8.4      1.905      2.686
REMARK  Name = 
REMARK  9 active torsions:
REMARK  status: ('A' for Active; 'I' for Inactive)
REMARK    1  A    between atoms: C_1  and  C_2
REMARK    2  A    between atoms: C_4  and  C_5
REMARK    3  A    between atoms: N_6  and  C_7
REMARK    4  A    between atoms: C_10  and  C_11
REMARK    5  A    between atoms: N_13  and  C_14
REMARK    6  A    between atoms: N_21  and  C_22
REMARK    7  A    between atoms: C_22  and  C_23
REMARK    8  A    between atoms: N_25  and  C_26
REMARK    9  A    between atoms: N_25  and  C_27
REMARK                            x       y       z     vdW  Elec       q    Type
REMARK                         _______ _______ _______ _____ _____    ______ ____
ROOT
ATOM      1  C   UNL     1       1.892   7.018  20.163  0.00  0.00    +0.000 C 
ATOM      2  O   UNL     1       1.724   6.010  20.838  0.00  0.00    +0.000 OA
ATOM      3  N   UNL     1       2.724   7.108  19.092  0.00  0.00    +0.000 N 
ATOM      4  H   UNL     1       2.966   8.023  18.738  0.00  0.00    +0.000 HD
ENDROOT
BRANCH   3   5
ATOM      5  C   UNL     1       3.444   5.999  18.520  0.00  0.00    +0.000 C 
ATOM      6  C   UNL     1       2.583   4.900  17.849  0.00  0.00    +0.000 C 
ATOM      7  C   UNL     1       3.431   3.775  17.184  0.00  0.00    +0.000 C 
ATOM      8  C   UNL     1       3.584   2.507  18.011  0.00  0.00    +0.000 C 
ATOM      9  C   UNL     1       4.575   2.905  19.100  0.00  0.00    +0.000 C 
ATOM     10  C   UNL     1       5.195   4.240  18.586  0.00  0.00    +0.000 C 
ATOM     11  C   UNL     1       4.536   5.392  19.380  0.00  0.00    +0.000 C 
ATOM     12  N   UNL     1       4.853   4.144  17.146  0.00  0.00    +0.000 NA
BRANCH  12  13
ATOM     13  C   UNL     1       5.059   5.167  16.110  0.00  0.00    +0.000 C 
BRANCH  13  14
ATOM     14  C   UNL     1       6.439   5.271  15.487  0.00  0.00    +0.000 C 
ATOM     15  O   UNL     1       7.314   5.934  16.054  0.00  0.00    +0.000 OA
ATOM     16  N   UNL     1       6.613   4.730  14.222  0.00  0.00    +0.000 N 
ATOM     17  C   UNL     1       5.674   3.826  13.580  0.00  0.00    +0.000 C 
ATOM     18  C   UNL     1       7.791   5.088  13.453  0.00  0.00    +0.000 C 
ENDBRANCH  13  14
ENDBRANCH  12  13
ENDBRANCH   3   5
BRANCH   1  22
ATOM     19  C   UNL     1      -0.189  10.592  21.224  0.00  0.00    +0.000 A 
ATOM     20  C   UNL     1      -0.223   9.451  22.040  0.00  0.00    +0.000 A 
ATOM     21  C   UNL     1       0.464   8.305  21.681  0.00  0.00    +0.000 A 
ATOM     22  C   UNL     1       1.184   8.279  20.493  0.00  0.00    +0.000 A 
ATOM     23  C   UNL     1       1.194   9.395  19.641  0.00  0.00    +0.000 A 
ATOM     24  C   UNL     1       0.502  10.548  20.006  0.00  0.00    +0.000 A 
BRANCH  19  30
ATOM     25  C   UNL     1      -1.205  14.390  23.975  0.00  0.00    +0.000 C 
ATOM     26  C   UNL     1      -1.304  13.477  22.813  0.00  0.00    +0.000 A 
ATOM     27  C   UNL     1      -2.016  13.664  21.614  0.00  0.00    +0.000 A 
ATOM     28  C   UNL     1      -1.786  12.532  20.866  0.00  0.00    +0.000 A 
ATOM     29  C   UNL     1      -2.422  12.126  19.584  0.00  0.00    +0.000 C 
ATOM     30  N   UNL     1      -0.885  11.767  21.597  0.00  0.00    +0.000 N 
ATOM     31  N   UNL     1      -0.696  12.290  22.840  0.00  0.00    +0.000 NA
ENDBRANCH  19  30
ENDBRANCH   1  22
TORSDOF 5
ENDMDL
