MODEL 1
REMARK VINA RESULT:      -8.8      0.000      0.000
REMARK  Name = 
REMARK  6 active torsions:
REMARK  status: ('A' for Active; 'I' for Inactive)
REMARK    1  A    between atoms: C_1  and  C_2
REMARK    2  A    between atoms: C_5  and  C_6
REMARK    3  A    between atoms: C_12  and  N_13
REMARK    4  A    between atoms: N_16  and  C_17
REMARK    5  A    between atoms: C_17  and  C_18
REMARK    6  A    between atoms: C_18  and  C_19
REMARK                            x       y       z     vdW  Elec       q    Type
REMARK                         _______ _______ _______ _____ _____    ______ ____
ROOT
ATOM      1  N   UNL     1       2.484   6.127  20.239  0.00  0.00    +0.000 N 
ATOM      2  C   UNL     1       2.129   7.462  20.109  0.00  0.00    +0.000 C 
ATOM      3  O   UNL     1       2.097   8.092  19.059  0.00  0.00    +0.000 OA
ATOM      4  N   UNL     1       1.841   8.069  21.328  0.00  0.00    +0.000 N 
ATOM      5  H   UNL     1       2.723   5.844  21.179  0.00  0.00    +0.000 HD
ATOM      6  H   UNL     1       1.426   7.495  22.044  0.00  0.00    +0.000 HD
ENDROOT
BRANCH   1  13
ATOM      7  C   UNL     1       0.841   3.694  19.730  0.00  0.00    +0.000 C 
ATOM      8  C   UNL     1       2.075   4.062  18.946  0.00  0.00    +0.000 A 
ATOM      9  C   UNL     1       2.447   3.172  17.926  0.00  0.00    +0.000 A 
ATOM     10  C   UNL     1       3.561   3.429  17.117  0.00  0.00    +0.000 A 
ATOM     11  C   UNL     1       4.310   4.590  17.311  0.00  0.00    +0.000 A 
ATOM     12  C   UNL     1       3.947   5.474  18.340  0.00  0.00    +0.000 A 
ATOM     13  C   UNL     1       2.840   5.229  19.183  0.00  0.00    +0.000 A 
BRANCH  11  14
ATOM     14  C   UNL     1       5.441   4.840  16.419  0.00  0.00    +0.000 A 
ATOM     15  N   UNL     1       6.452   5.684  16.550  0.00  0.00    +0.000 NA
ATOM     16  N   UNL     1       7.263   5.501  15.450  0.00  0.00    +0.000 NA
ATOM     17  C   UNL     1       6.703   4.547  14.745  0.00  0.00    +0.000 A 
ATOM     18  O   UNL     1       5.547   4.074  15.287  0.00  0.00    +0.000 OA
ENDBRANCH  11  14
ENDBRANCH   1  13
BRANCH   4  19
ATOM     19  C   UNL     1       1.494   9.483  21.318  0.00  0.00    +0.000 C 
BRANCH  19  20
ATOM     20  C   UNL     1       0.024   9.829  21.580  0.00  0.00    +0.000 C 
ATOM     21  C   UNL     1      -0.604  10.126  22.954  0.00  0.00    +0.000 C 
ATOM     22  C   UNL     1      -0.654   8.742  22.414  0.00  0.00    +0.000 C 
BRANCH  20  23
ATOM     23  C   UNL     1      -0.695  10.573  20.454  0.00  0.00    +0.000 A 
ATOM     24  C   UNL     1      -1.252  11.851  20.609  0.00  0.00    +0.000 A 
ATOM     25  C   UNL     1      -1.905  12.491  19.548  0.00  0.00    +0.000 A 
ATOM     26  C   UNL     1      -2.002  11.873  18.303  0.00  0.00    +0.000 A 
ATOM     27  C   UNL     1      -1.437  10.618  18.114  0.00  0.00    +0.000 A 
ATOM     28  C   UNL     1      -0.795   9.981  19.178  0.00  0.00    +0.000 A 
ENDBRANCH  20  23
ENDBRANCH  19  20
ENDBRANCH   4  19
TORSDOF 5
ENDMDL
MODEL 2
REMARK VINA RESULT:      -8.8      1.308      1.766
REMARK  Name = 
REMARK  6 active torsions:
REMARK  status: ('A' for Active; 'I' for Inactive)
REMARK    1  A    between atoms: C_1  and  C_2
REMARK    2  A    between atoms: C_5  and  C_6
REMARK    3  A    between atoms: C_12  and  N_13
REMARK    4  A    between atoms: N_16  and  C_17
REMARK    5  A    between atoms: C_17  and  C_18
REMARK    6  A    between atoms: C_18  and  C_19
REMARK                            x       y       z     vdW  Elec       q    Type
REMARK                         _______ _______ _______ _____ _____    ______ ____
ROOT
ATOM      1  N   UNL     1       2.592   7.117  19.033  0.00  0.00    +0.000 N 
ATOM      2  C   UNL     1       2.040   8.259  18.470  0.00  0.00    +0.000 C 
ATOM      3  O   UNL     1       1.960   8.494  17.270  0.00  0.00    +0.000 OA
ATOM      4  N   UNL     1       1.605   9.177  19.421  0.00  0.00    +0.000 N 
ATOM      5  H   UNL     1       2.828   7.201  20.012  0.00  0.00    +0.000 HD
ATOM      6  H   UNL     1       1.251   8.811  20.290  0.00  0.00    +0.000 HD
ENDROOT
BRANCH   1  13
ATOM      7  C   UNL     1       1.405   4.410  19.411  0.00  0.00    +0.000 C 
ATOM      8  C   UNL     1       2.586   4.700  18.519  0.00  0.00    +0.000 A 
ATOM      9  C   UNL     1       3.139   3.598  17.849  0.00  0.00    +0.000 A 
ATOM     10  C   UNL     1       4.222   3.756  16.974  0.00  0.00    +0.000 A 
ATOM     11  C   UNL     1       4.756   5.024  16.749  0.00  0.00    +0.000 A 
ATOM     12  C   UNL     1       4.212   6.126  17.429  0.00  0.00    +0.000 A 
ATOM     13  C   UNL     1       3.134   5.992  18.332  0.00  0.00    +0.000 A 
BRANCH  11  14
ATOM     14  C   UNL     1       5.859   5.152  15.799  0.00  0.00    +0.000 A 
ATOM     15  N   UNL     1       7.039   5.734  15.944  0.00  0.00    +0.000 NA
ATOM     16  N   UNL     1       7.722   5.540  14.761  0.00  0.00    +0.000 NA
ATOM     17  C   UNL     1       6.922   4.836  13.995  0.00  0.00    +0.000 A 
ATOM     18  O   UNL     1       5.724   4.549  14.574  0.00  0.00    +0.000 OA
ENDBRANCH  11  14
ENDBRANCH   1  13
BRANCH   4  19
ATOM     19  C   UNL     1       1.043  10.433  18.945  0.00  0.00    +0.000 C 
BRANCH  19  20
ATOM     20  C   UNL     1      -0.319  10.835  19.521  0.00  0.00    +0.000 C 
ATOM     21  C   UNL     1      -0.556  11.844  20.660  0.00  0.00    +0.000 C 
ATOM     22  C   UNL     1      -0.448  10.396  20.980  0.00  0.00    +0.000 C 
BRANCH  20  23
ATOM     23  C   UNL     1      -1.494  10.796  18.542  0.00  0.00    +0.000 A 
ATOM     24  C   UNL     1      -2.628  11.612  18.668  0.00  0.00    +0.000 A 
ATOM     25  C   UNL     1      -3.681  11.538  17.748  0.00  0.00    +0.000 A 
ATOM     26  C   UNL     1      -3.615  10.656  16.671  0.00  0.00    +0.000 A 
ATOM     27  C   UNL     1      -2.492   9.854  16.507  0.00  0.00    +0.000 A 
ATOM     28  C   UNL     1      -1.450   9.926  17.433  0.00  0.00    +0.000 A 
ENDBRANCH  20  23
ENDBRANCH  19  20
ENDBRANCH   4  19
TORSDOF 5
ENDMDL
MODEL 3
REMARK VINA RESULT:      -8.6      0.566      1.005
REMARK  Name = 
REMARK  6 active torsions:
REMARK  status: ('A' for Active; 'I' for Inactive)
REMARK    1  A    between atoms: C_1  and  C_2
REMARK    2  A    between atoms: C_5  and  C_6
REMARK    3  A    between atoms: C_12  and  N_13
REMARK    4  A    between atoms: N_16  and  C_17
REMARK    5  A    between atoms: C_17  and  C_18
REMARK    6  A    between atoms: C_18  and  C_19
REMARK                            x       y       z     vdW  Elec       q    Type
REMARK                         _______ _______ _______ _____ _____    ______ ____
ROOT
ATOM      1  N   UNL     1       2.430   5.880  20.238  0.00  0.00    +0.000 N 
ATOM      2  C   UNL     1       2.195   7.238  20.078  0.00  0.00    +0.000 C 
ATOM      3  O   UNL     1       2.300   7.860  19.027  0.00  0.00    +0.000 OA
ATOM      4  N   UNL     1       1.857   7.875  21.268  0.00  0.00    +0.000 N 
ATOM      5  H   UNL     1       2.567   5.586  21.194  0.00  0.00    +0.000 HD
ATOM      6  H   UNL     1       1.340   7.341  21.948  0.00  0.00    +0.000 HD
ENDROOT
BRANCH   1  13
ATOM      7  C   UNL     1       0.755   3.465  19.743  0.00  0.00    +0.000 C 
ATOM      8  C   UNL     1       2.018   3.790  18.986  0.00  0.00    +0.000 A 
ATOM      9  C   UNL     1       2.400   2.867  18.000  0.00  0.00    +0.000 A 
ATOM     10  C   UNL     1       3.542   3.082  17.216  0.00  0.00    +0.000 A 
ATOM     11  C   UNL     1       4.308   4.233  17.403  0.00  0.00    +0.000 A 
ATOM     12  C   UNL     1       3.933   5.150  18.398  0.00  0.00    +0.000 A 
ATOM     13  C   UNL     1       2.798   4.948  19.215  0.00  0.00    +0.000 A 
BRANCH  11  14
ATOM     14  C   UNL     1       5.468   4.439  16.538  0.00  0.00    +0.000 A 
ATOM     15  N   UNL     1       6.699   4.814  16.848  0.00  0.00    +0.000 NA
ATOM     16  N   UNL     1       7.417   4.820  15.670  0.00  0.00    +0.000 NA
ATOM     17  C   UNL     1       6.581   4.427  14.737  0.00  0.00    +0.000 A 
ATOM     18  O   UNL     1       5.329   4.167  15.201  0.00  0.00    +0.000 OA
ENDBRANCH  11  14
ENDBRANCH   1  13
BRANCH   4  19
ATOM     19  C   UNL     1       1.627   9.312  21.229  0.00  0.00    +0.000 C 
BRANCH  19  20
ATOM     20  C   UNL     1       0.172   9.775  21.355  0.00  0.00    +0.000 C 
ATOM     21  C   UNL     1      -0.583  10.031  22.673  0.00  0.00    +0.000 C 
ATOM     22  C   UNL     1      -0.689   8.700  22.019  0.00  0.00    +0.000 C 
BRANCH  20  23
ATOM     23  C   UNL     1      -0.345  10.663  20.222  0.00  0.00    +0.000 A 
ATOM     24  C   UNL     1      -1.140  10.182  19.170  0.00  0.00    +0.000 A 
ATOM     25  C   UNL     1      -1.586  11.033  18.151  0.00  0.00    +0.000 A 
ATOM     26  C   UNL     1      -1.261  12.388  18.171  0.00  0.00    +0.000 A 
ATOM     27  C   UNL     1      -0.496  12.896  19.215  0.00  0.00    +0.000 A 
ATOM     28  C   UNL     1      -0.046  12.041  20.222  0.00  0.00    +0.000 A 
ENDBRANCH  20  23
ENDBRANCH  19  20
ENDBRANCH   4  19
TORSDOF 5
ENDMDL
MODEL 4
REMARK VINA RESULT:      -8.6      1.168      2.504
REMARK  Name = 
REMARK  6 active torsions:
REMARK  status: ('A' for Active; 'I' for Inactive)
REMARK    1  A    between atoms: C_1  and  C_2
REMARK    2  A    between atoms: C_5  and  C_6
REMARK    3  A    between atoms: C_12  and  N_13
REMARK    4  A    between atoms: N_16  and  C_17
REMARK    5  A    between atoms: C_17  and  C_18
REMARK    6  A    between atoms: C_18  and  C_19
REMARK                            x       y       z     vdW  Elec       q    Type
REMARK                         _______ _______ _______ _____ _____    ______ ____
ROOT
ATOM      1  N   UNL     1       2.467   6.881  18.925  0.00  0.00    +0.000 N 
ATOM      2  C   UNL     1       2.094   8.113  18.406  0.00  0.00    +0.000 C 
ATOM      3  O   UNL     1       2.249   8.473  17.245  0.00  0.00    +0.000 OA
ATOM      4  N   UNL     1       1.545   8.961  19.363  0.00  0.00    +0.000 N 
ATOM      5  H   UNL     1       2.524   6.848  19.933  0.00  0.00    +0.000 HD
ATOM      6  H   UNL     1       1.018   8.538  20.109  0.00  0.00    +0.000 HD
ENDROOT
BRANCH   1  13
ATOM      7  C   UNL     1       1.362   4.127  19.202  0.00  0.00    +0.000 C 
ATOM      8  C   UNL     1       2.554   4.480  18.348  0.00  0.00    +0.000 A 
ATOM      9  C   UNL     1       3.159   3.415  17.662  0.00  0.00    +0.000 A 
ATOM     10  C   UNL     1       4.256   3.632  16.819  0.00  0.00    +0.000 A 
ATOM     11  C   UNL     1       4.753   4.923  16.640  0.00  0.00    +0.000 A 
ATOM     12  C   UNL     1       4.156   5.987  17.336  0.00  0.00    +0.000 A 
ATOM     13  C   UNL     1       3.062   5.794  18.208  0.00  0.00    +0.000 A 
BRANCH  11  14
ATOM     14  C   UNL     1       5.873   5.112  15.721  0.00  0.00    +0.000 A 
ATOM     15  N   UNL     1       7.048   5.687  15.924  0.00  0.00    +0.000 NA
ATOM     16  N   UNL     1       7.754   5.569  14.745  0.00  0.00    +0.000 NA
ATOM     17  C   UNL     1       6.970   4.913  13.921  0.00  0.00    +0.000 A 
ATOM     18  O   UNL     1       5.763   4.587  14.459  0.00  0.00    +0.000 OA
ENDBRANCH  11  14
ENDBRANCH   1  13
BRANCH   4  19
ATOM     19  C   UNL     1       1.154  10.298  18.940  0.00  0.00    +0.000 C 
BRANCH  19  20
ATOM     20  C   UNL     1      -0.315  10.681  19.152  0.00  0.00    +0.000 C 
ATOM     21  C   UNL     1      -1.500  10.234  18.276  0.00  0.00    +0.000 C 
ATOM     22  C   UNL     1      -0.832  11.531  17.991  0.00  0.00    +0.000 C 
BRANCH  20  23
ATOM     23  C   UNL     1      -0.738  10.919  20.602  0.00  0.00    +0.000 A 
ATOM     24  C   UNL     1      -0.368  10.076  21.660  0.00  0.00    +0.000 A 
ATOM     25  C   UNL     1      -0.784  10.334  22.973  0.00  0.00    +0.000 A 
ATOM     26  C   UNL     1      -1.566  11.452  23.258  0.00  0.00    +0.000 A 
ATOM     27  C   UNL     1      -1.926  12.318  22.232  0.00  0.00    +0.000 A 
ATOM     28  C   UNL     1      -1.517  12.050  20.925  0.00  0.00    +0.000 A 
ENDBRANCH  20  23
ENDBRANCH  19  20
ENDBRANCH   4  19
TORSDOF 5
ENDMDL
MODEL 5
REMARK VINA RESULT:      -8.4      1.182      1.758
REMARK  Name = 
REMARK  6 active torsions:
REMARK  status: ('A' for Active; 'I' for Inactive)
REMARK    1  A    between atoms: C_1  and  C_2
REMARK    2  A    between atoms: C_5  and  C_6
REMARK    3  A    between atoms: C_12  and  N_13
REMARK    4  A    between atoms: N_16  and  C_17
REMARK    5  A    between atoms: C_17  and  C_18
REMARK    6  A    between atoms: C_18  and  C_19
REMARK                            x       y       z     vdW  Elec       q    Type
REMARK                         _______ _______ _______ _____ _____    ______ ____
ROOT
ATOM      1  N   UNL     1       2.693   6.810  19.100  0.00  0.00    +0.000 N 
ATOM      2  C   UNL     1       2.090   7.986  18.677  0.00  0.00    +0.000 C 
ATOM      3  O   UNL     1       1.903   8.311  17.511  0.00  0.00    +0.000 OA
ATOM      4  N   UNL     1       1.739   8.825  19.730  0.00  0.00    +0.000 N 
ATOM      5  H   UNL     1       3.015   6.821  20.057  0.00  0.00    +0.000 HD
ATOM      6  H   UNL     1       1.465   8.391  20.597  0.00  0.00    +0.000 HD
ENDROOT
BRANCH   1  13
ATOM      7  C   UNL     1       1.320   4.165  19.120  0.00  0.00    +0.000 C 
ATOM      8  C   UNL     1       2.536   4.482  18.286  0.00  0.00    +0.000 A 
ATOM      9  C   UNL     1       3.027   3.436  17.489  0.00  0.00    +0.000 A 
ATOM     10  C   UNL     1       4.136   3.627  16.654  0.00  0.00    +0.000 A 
ATOM     11  C   UNL     1       4.758   4.874  16.597  0.00  0.00    +0.000 A 
ATOM     12  C   UNL     1       4.275   5.917  17.404  0.00  0.00    +0.000 A 
ATOM     13  C   UNL     1       3.172   5.747  18.269  0.00  0.00    +0.000 A 
BRANCH  11  14
ATOM     14  C   UNL     1       5.887   5.042  15.684  0.00  0.00    +0.000 A 
ATOM     15  N   UNL     1       7.023   5.699  15.854  0.00  0.00    +0.000 NA
ATOM     16  N   UNL     1       7.761   5.515  14.702  0.00  0.00    +0.000 NA
ATOM     17  C   UNL     1       7.033   4.744  13.929  0.00  0.00    +0.000 A 
ATOM     18  O   UNL     1       5.834   4.400  14.473  0.00  0.00    +0.000 OA
ENDBRANCH  11  14
ENDBRANCH   1  13
BRANCH   4  19
ATOM     19  C   UNL     1       1.134  10.108  19.404  0.00  0.00    +0.000 C 
BRANCH  19  20
ATOM     20  C   UNL     1      -0.309  10.324  19.873  0.00  0.00    +0.000 C 
ATOM     21  C   UNL     1      -0.740  11.014  21.181  0.00  0.00    +0.000 C 
ATOM     22  C   UNL     1      -0.592   9.535  21.152  0.00  0.00    +0.000 C 
BRANCH  20  23
ATOM     23  C   UNL     1      -1.349  10.503  18.766  0.00  0.00    +0.000 A 
ATOM     24  C   UNL     1      -1.432   9.663  17.646  0.00  0.00    +0.000 A 
ATOM     25  C   UNL     1      -2.400   9.869  16.655  0.00  0.00    +0.000 A 
ATOM     26  C   UNL     1      -3.318  10.911  16.772  0.00  0.00    +0.000 A 
ATOM     27  C   UNL     1      -3.275  11.743  17.885  0.00  0.00    +0.000 A 
ATOM     28  C   UNL     1      -2.302  11.538  18.864  0.00  0.00    +0.000 A 
ENDBRANCH  20  23
ENDBRANCH  19  20
ENDBRANCH   4  19
TORSDOF 5
ENDMDL
MODEL 6
REMARK VINA RESULT:      -8.3      1.567      2.199
REMARK  Name = 
REMARK  6 active torsions:
REMARK  status: ('A' for Active; 'I' for Inactive)
REMARK    1  A    between atoms: C_1  and  C_2
REMARK    2  A    between atoms: C_5  and  C_6
REMARK    3  A    between atoms: C_12  and  N_13
REMARK    4  A    between atoms: N_16  and  C_17
REMARK    5  A    between atoms: C_17  and  C_18
REMARK    6  A    between atoms: C_18  and  C_19
REMARK                            x       y       z     vdW  Elec       q    Type
REMARK                         _______ _______ _______ _____ _____    ______ ____
ROOT
ATOM      1  N   UNL     1       2.211   7.425  19.306  0.00  0.00    +0.000 N 
ATOM      2  C   UNL     1       1.892   8.578  18.603  0.00  0.00    +0.000 C 
ATOM      3  O   UNL     1       2.065   8.751  17.402  0.00  0.00    +0.000 OA
ATOM      4  N   UNL     1       1.378   9.584  19.416  0.00  0.00    +0.000 N 
ATOM      5  H   UNL     1       2.264   7.542  20.307  0.00  0.00    +0.000 HD
ATOM      6  H   UNL     1       0.831   9.301  20.213  0.00  0.00    +0.000 HD
ENDROOT
BRANCH   1  13
ATOM      7  C   UNL     1       1.281   4.780  20.314  0.00  0.00    +0.000 C 
ATOM      8  C   UNL     1       2.336   4.958  19.252  0.00  0.00    +0.000 A 
ATOM      9  C   UNL     1       2.899   3.779  18.737  0.00  0.00    +0.000 A 
ATOM     10  C   UNL     1       3.869   3.826  17.728  0.00  0.00    +0.000 A 
ATOM     11  C   UNL     1       4.278   5.055  17.211  0.00  0.00    +0.000 A 
ATOM     12  C   UNL     1       3.725   6.235  17.734  0.00  0.00    +0.000 A 
ATOM     13  C   UNL     1       2.760   6.218  18.766  0.00  0.00    +0.000 A 
BRANCH  11  14
ATOM     14  C   UNL     1       5.263   5.058  16.131  0.00  0.00    +0.000 A 
ATOM     15  N   UNL     1       5.739   6.069  15.422  0.00  0.00    +0.000 NA
ATOM     16  N   UNL     1       6.671   5.538  14.555  0.00  0.00    +0.000 NA
ATOM     17  C   UNL     1       6.711   4.252  14.814  0.00  0.00    +0.000 A 
ATOM     18  O   UNL     1       5.852   3.866  15.796  0.00  0.00    +0.000 OA
ENDBRANCH  11  14
ENDBRANCH   1  13
BRANCH   4  19
ATOM     19  C   UNL     1       1.044  10.857  18.792  0.00  0.00    +0.000 C 
BRANCH  19  20
ATOM     20  C   UNL     1      -0.250  11.530  19.261  0.00  0.00    +0.000 C 
ATOM     21  C   UNL     1      -0.363  12.932  19.890  0.00  0.00    +0.000 C 
ATOM     22  C   UNL     1      -0.239  11.744  20.775  0.00  0.00    +0.000 C 
BRANCH  20  23
ATOM     23  C   UNL     1      -1.515  11.149  18.491  0.00  0.00    +0.000 A 
ATOM     24  C   UNL     1      -1.538  10.175  17.482  0.00  0.00    +0.000 A 
ATOM     25  C   UNL     1      -2.721   9.863  16.801  0.00  0.00    +0.000 A 
ATOM     26  C   UNL     1      -3.913  10.508  17.127  0.00  0.00    +0.000 A 
ATOM     27  C   UNL     1      -3.925  11.459  18.140  0.00  0.00    +0.000 A 
ATOM     28  C   UNL     1      -2.740  11.772  18.808  0.00  0.00    +0.000 A 
ENDBRANCH  20  23
ENDBRANCH  19  20
ENDBRANCH   4  19
TORSDOF 5
ENDMDL
MODEL 7
REMARK VINA RESULT:      -8.2      1.405      2.722
REMARK  Name = 
REMARK  6 active torsions:
REMARK  status: ('A' for Active; 'I' for Inactive)
REMARK    1  A    between atoms: C_1  and  C_2
REMARK    2  A    between atoms: C_5  and  C_6
REMARK    3  A    between atoms: C_12  and  N_13
REMARK    4  A    between atoms: N_16  and  C_17
REMARK    5  A    between atoms: C_17  and  C_18
REMARK    6  A    between atoms: C_18  and  C_19
REMARK                            x       y       z     vdW  Elec       q    Type
REMARK                         _______ _______ _______ _____ _____    ______ ____
ROOT
ATOM      1  N   UNL     1       3.044   8.074  18.591  0.00  0.00    +0.000 N 
ATOM      2  C   UNL     1       2.020   8.872  18.100  0.00  0.00    +0.000 C 
ATOM      3  O   UNL     1       1.324   8.618  17.125  0.00  0.00    +0.000 OA
ATOM      4  N   UNL     1       1.869  10.059  18.812  0.00  0.00    +0.000 N 
ATOM      5  H   UNL     1       3.685   8.546  19.213  0.00  0.00    +0.000 HD
ATOM      6  H   UNL     1       2.076  10.038  19.797  0.00  0.00    +0.000 HD
ENDROOT
BRANCH   1  13
ATOM      7  C   UNL     1       1.741   5.582  19.575  0.00  0.00    +0.000 C 
ATOM      8  C   UNL     1       2.854   5.611  18.557  0.00  0.00    +0.000 A 
ATOM      9  C   UNL     1       3.281   4.364  18.074  0.00  0.00    +0.000 A 
ATOM     10  C   UNL     1       4.289   4.274  17.106  0.00  0.00    +0.000 A 
ATOM     11  C   UNL     1       4.874   5.435  16.599  0.00  0.00    +0.000 A 
ATOM     12  C   UNL     1       4.457   6.682  17.092  0.00  0.00    +0.000 A 
ATOM     13  C   UNL     1       3.456   6.801  18.082  0.00  0.00    +0.000 A 
BRANCH  11  14
ATOM     14  C   UNL     1       5.894   5.299  15.562  0.00  0.00    +0.000 A 
ATOM     15  N   UNL     1       7.129   5.776  15.520  0.00  0.00    +0.000 NA
ATOM     16  N   UNL     1       7.684   5.330  14.339  0.00  0.00    +0.000 NA
ATOM     17  C   UNL     1       6.759   4.599  13.761  0.00  0.00    +0.000 A 
ATOM     18  O   UNL     1       5.598   4.529  14.467  0.00  0.00    +0.000 OA
ENDBRANCH  11  14
ENDBRANCH   1  13
BRANCH   4  19
ATOM     19  C   UNL     1       0.849  10.995  18.362  0.00  0.00    +0.000 C 
BRANCH  19  20
ATOM     20  C   UNL     1      -0.548  10.829  18.970  0.00  0.00    +0.000 C 
ATOM     21  C   UNL     1      -1.781  10.243  18.256  0.00  0.00    +0.000 C 
ATOM     22  C   UNL     1      -1.567  11.714  18.250  0.00  0.00    +0.000 C 
BRANCH  20  23
ATOM     23  C   UNL     1      -0.593  10.580  20.478  0.00  0.00    +0.000 A 
ATOM     24  C   UNL     1      -0.914  11.576  21.413  0.00  0.00    +0.000 A 
ATOM     25  C   UNL     1      -0.937  11.300  22.786  0.00  0.00    +0.000 A 
ATOM     26  C   UNL     1      -0.655  10.018  23.253  0.00  0.00    +0.000 A 
ATOM     27  C   UNL     1      -0.359   9.007  22.347  0.00  0.00    +0.000 A 
ATOM     28  C   UNL     1      -0.328   9.290  20.981  0.00  0.00    +0.000 A 
ENDBRANCH  20  23
ENDBRANCH  19  20
ENDBRANCH   4  19
TORSDOF 5
ENDMDL
MODEL 8
REMARK VINA RESULT:      -8.2      0.732      1.368
REMARK  Name = 
REMARK  6 active torsions:
REMARK  status: ('A' for Active; 'I' for Inactive)
REMARK    1  A    between atoms: C_1  and  C_2
REMARK    2  A    between atoms: C_5  and  C_6
REMARK    3  A    between atoms: C_12  and  N_13
REMARK    4  A    between atoms: N_16  and  C_17
REMARK    5  A    between atoms: C_17  and  C_18
REMARK    6  A    between atoms: C_18  and  C_19
REMARK                            x       y       z     vdW  Elec       q    Type
REMARK                         _______ _______ _______ _____ _____    ______ ____
ROOT
ATOM      1  N   UNL     1       2.542   6.149  20.213  0.00  0.00    +0.000 N 
ATOM      2  C   UNL     1       2.096   7.443  19.985  0.00  0.00    +0.000 C 
ATOM      3  O   UNL     1       1.970   7.968  18.885  0.00  0.00    +0.000 OA
ATOM      4  N   UNL     1       1.835   8.143  21.159  0.00  0.00    +0.000 N 
ATOM      5  H   UNL     1       2.848   5.969  21.159  0.00  0.00    +0.000 HD
ATOM      6  H   UNL     1       1.496   7.615  21.947  0.00  0.00    +0.000 HD
ENDROOT
BRANCH   1  13
ATOM      7  C   UNL     1       0.865   3.714  19.837  0.00  0.00    +0.000 C 
ATOM      8  C   UNL     1       2.117   4.011  19.050  0.00  0.00    +0.000 A 
ATOM      9  C   UNL     1       2.488   3.050  18.096  0.00  0.00    +0.000 A 
ATOM     10  C   UNL     1       3.618   3.236  17.289  0.00  0.00    +0.000 A 
ATOM     11  C   UNL     1       4.385   4.395  17.420  0.00  0.00    +0.000 A 
ATOM     12  C   UNL     1       4.022   5.349  18.383  0.00  0.00    +0.000 A 
ATOM     13  C   UNL     1       2.898   5.178  19.223  0.00  0.00    +0.000 A 
BRANCH  11  14
ATOM     14  C   UNL     1       5.532   4.568  16.532  0.00  0.00    +0.000 A 
ATOM     15  N   UNL     1       6.809   4.754  16.825  0.00  0.00    +0.000 NA
ATOM     16  N   UNL     1       7.484   4.821  15.624  0.00  0.00    +0.000 NA
ATOM     17  C   UNL     1       6.577   4.648  14.692  0.00  0.00    +0.000 A 
ATOM     18  O   UNL     1       5.317   4.482  15.180  0.00  0.00    +0.000 OA
ENDBRANCH  11  14
ENDBRANCH   1  13
BRANCH   4  19
ATOM     19  C   UNL     1       1.399   9.527  21.042  0.00  0.00    +0.000 C 
BRANCH  19  20
ATOM     20  C   UNL     1       0.124   9.909  21.802  0.00  0.00    +0.000 C 
ATOM     21  C   UNL     1      -0.162   9.623  23.288  0.00  0.00    +0.000 C 
ATOM     22  C   UNL     1      -0.636   8.663  22.257  0.00  0.00    +0.000 C 
BRANCH  20  23
ATOM     23  C   UNL     1      -0.583  11.177  21.320  0.00  0.00    +0.000 A 
ATOM     24  C   UNL     1      -1.191  11.286  20.061  0.00  0.00    +0.000 A 
ATOM     25  C   UNL     1      -1.824  12.471  19.662  0.00  0.00    +0.000 A 
ATOM     26  C   UNL     1      -1.876  13.567  20.521  0.00  0.00    +0.000 A 
ATOM     27  C   UNL     1      -1.303  13.477  21.784  0.00  0.00    +0.000 A 
ATOM     28  C   UNL     1      -0.666  12.297  22.172  0.00  0.00    +0.000 A 
ENDBRANCH  20  23
ENDBRANCH  19  20
ENDBRANCH   4  19
TORSDOF 5
ENDMDL
MODEL 9
REMARK VINA RESULT:      -8.1      1.254      2.416
REMARK  Name = 
REMARK  6 active torsions:
REMARK  status: ('A' for Active; 'I' for Inactive)
REMARK    1  A    between atoms: C_1  and  C_2
REMARK    2  A    between atoms: C_5  and  C_6
REMARK    3  A    between atoms: C_12  and  N_13
REMARK    4  A    between atoms: N_16  and  C_17
REMARK    5  A    between atoms: C_17  and  C_18
REMARK    6  A    between atoms: C_18  and  C_19
REMARK                            x       y       z     vdW  Elec       q    Type
REMARK                         _______ _______ _______ _____ _____    ______ ____
ROOT
ATOM      1  N   UNL     1       2.280   7.295  19.432  0.00  0.00    +0.000 N 
ATOM      2  C   UNL     1       1.799   8.429  18.794  0.00  0.00    +0.000 C 
ATOM      3  O   UNL     1       1.776   8.609  17.582  0.00  0.00    +0.000 OA
ATOM      4  N   UNL     1       1.366   9.410  19.682  0.00  0.00    +0.000 N 
ATOM      5  H   UNL     1       2.480   7.417  20.415  0.00  0.00    +0.000 HD
ATOM      6  H   UNL     1       0.964   9.101  20.552  0.00  0.00    +0.000 HD
ENDROOT
BRANCH   1  13
ATOM      7  C   UNL     1       1.204   4.616  20.170  0.00  0.00    +0.000 C 
ATOM      8  C   UNL     1       2.306   4.839  19.165  0.00  0.00    +0.000 A 
ATOM      9  C   UNL     1       2.839   3.685  18.568  0.00  0.00    +0.000 A 
ATOM     10  C   UNL     1       3.848   3.776  17.601  0.00  0.00    +0.000 A 
ATOM     11  C   UNL     1       4.326   5.027  17.209  0.00  0.00    +0.000 A 
ATOM     12  C   UNL     1       3.803   6.180  17.815  0.00  0.00    +0.000 A 
ATOM     13  C   UNL     1       2.799   6.116  18.807  0.00  0.00    +0.000 A 
BRANCH  11  14
ATOM     14  C   UNL     1       5.351   5.080  16.168  0.00  0.00    +0.000 A 
ATOM     15  N   UNL     1       5.549   5.982  15.220  0.00  0.00    +0.000 NA
ATOM     16  N   UNL     1       6.672   5.583  14.525  0.00  0.00    +0.000 NA
ATOM     17  C   UNL     1       7.086   4.485  15.112  0.00  0.00    +0.000 A 
ATOM     18  O   UNL     1       6.308   4.097  16.158  0.00  0.00    +0.000 OA
ENDBRANCH  11  14
ENDBRANCH   1  13
BRANCH   4  19
ATOM     19  C   UNL     1       0.878  10.663  19.125  0.00  0.00    +0.000 C 
BRANCH  19  20
ATOM     20  C   UNL     1      -0.627  10.928  19.251  0.00  0.00    +0.000 C 
ATOM     21  C   UNL     1      -1.734  10.264  18.411  0.00  0.00    +0.000 C 
ATOM     22  C   UNL     1      -1.177  11.572  17.978  0.00  0.00    +0.000 C 
BRANCH  20  23
ATOM     23  C   UNL     1      -1.121  11.306  20.648  0.00  0.00    +0.000 A 
ATOM     24  C   UNL     1      -2.031  12.346  20.886  0.00  0.00    +0.000 A 
ATOM     25  C   UNL     1      -2.452  12.659  22.185  0.00  0.00    +0.000 A 
ATOM     26  C   UNL     1      -1.984  11.925  23.273  0.00  0.00    +0.000 A 
ATOM     27  C   UNL     1      -1.101  10.873  23.064  0.00  0.00    +0.000 A 
ATOM     28  C   UNL     1      -0.678  10.572  21.768  0.00  0.00    +0.000 A 
ENDBRANCH  20  23
ENDBRANCH  19  20
ENDBRANCH   4  19
TORSDOF 5
ENDMDL
