MODEL 1
REMARK VINA RESULT:      -8.4      0.000      0.000
REMARK  Name = 
REMARK  5 active torsions:
REMARK  status: ('A' for Active; 'I' for Inactive)
REMARK    1  A    between atoms: C_1  and  C_2
REMARK    2  A    between atoms: C_5  and  N_6
REMARK    3  A    between atoms: C_7  and  C_9
REMARK    4  A    between atoms: C_19  and  S_20
REMARK    5  A    between atoms: S_20  and  N_23
REMARK                            x       y       z     vdW  Elec       q    Type
REMARK                         _______ _______ _______ _____ _____    ______ ____
ROOT
ATOM      1  C   UNL     1       6.001   4.088  16.193  0.00  0.00    +0.000 C 
ATOM      2  C   UNL     1       4.911   4.884  16.844  0.00  0.00    +0.000 A 
ATOM      3  C   UNL     1       4.844   6.226  16.436  0.00  0.00    +0.000 A 
ATOM      4  C   UNL     1       4.049   7.151  17.101  0.00  0.00    +0.000 A 
ATOM      5  C   UNL     1       3.297   6.782  18.208  0.00  0.00    +0.000 A 
ATOM      6  C   UNL     1       3.287   5.416  18.585  0.00  0.00    +0.000 A 
ATOM      7  C   UNL     1       4.093   4.459  17.889  0.00  0.00    +0.000 A 
ENDROOT
BRANCH   5   8
ATOM      8  N   UNL     1       2.563   7.760  18.945  0.00  0.00    +0.000 N 
ATOM      9  C   UNL     1       1.860   8.834  18.387  0.00  0.00    +0.000 C 
ATOM     10  O   UNL     1       1.896   9.196  17.214  0.00  0.00    +0.000 OA
ATOM     11  H   UNL     1       2.653   7.730  19.950  0.00  0.00    +0.000 HD
BRANCH   9  12
ATOM     12  C   UNL     1       1.013   9.654  19.312  0.00  0.00    +0.000 A 
ATOM     13  C   UNL     1       0.520  10.900  18.924  0.00  0.00    +0.000 A 
ATOM     14  C   UNL     1      -0.328  11.626  19.774  0.00  0.00    +0.000 A 
ATOM     15  C   UNL     1      -0.623  11.128  21.055  0.00  0.00    +0.000 A 
ATOM     16  C   UNL     1      -1.441  11.580  22.126  0.00  0.00    +0.000 A 
ATOM     17  C   UNL     1      -1.187  10.772  23.210  0.00  0.00    +0.000 A 
ATOM     18  N   UNL     1      -0.348   9.768  22.798  0.00  0.00    +0.000 N 
ATOM     19  C   UNL     1      -0.017   9.944  21.471  0.00  0.00    +0.000 A 
ATOM     20  C   UNL     1       0.779   9.169  20.614  0.00  0.00    +0.000 A 
ATOM     21  H   UNL     1       0.004   9.026  23.388  0.00  0.00    +0.000 HD
ENDBRANCH   9  12
ENDBRANCH   5   8
BRANCH   7  22
ATOM     22  S   UNL     1       4.223   2.777  18.576  0.00  0.00    +0.000 S 
ATOM     23  O   UNL     1       4.098   1.869  17.444  0.00  0.00    +0.000 OA
ATOM     24  O   UNL     1       5.405   2.762  19.402  0.00  0.00    +0.000 OA
BRANCH  22  25
ATOM     25  N   UNL     1       2.916   2.512  19.592  0.00  0.00    +0.000 NA
ATOM     26  C   UNL     1       1.524   2.247  19.166  0.00  0.00    +0.000 C 
ATOM     27  C   UNL     1       0.578   3.278  19.820  0.00  0.00    +0.000 C 
ATOM     28  O   UNL     1       0.755   3.369  21.244  0.00  0.00    +0.000 OA
ATOM     29  C   UNL     1       2.126   3.601  21.613  0.00  0.00    +0.000 C 
ATOM     30  C   UNL     1       3.037   2.506  21.060  0.00  0.00    +0.000 C 
ENDBRANCH  22  25
ENDBRANCH   7  22
TORSDOF 4
ENDMDL
MODEL 2
REMARK VINA RESULT:      -8.2      1.416      1.896
REMARK  Name = 
REMARK  5 active torsions:
REMARK  status: ('A' for Active; 'I' for Inactive)
REMARK    1  A    between atoms: C_1  and  C_2
REMARK    2  A    between atoms: C_5  and  N_6
REMARK    3  A    between atoms: C_7  and  C_9
REMARK    4  A    between atoms: C_19  and  S_20
REMARK    5  A    between atoms: S_20  and  N_23
REMARK                            x       y       z     vdW  Elec       q    Type
REMARK                         _______ _______ _______ _____ _____    ______ ____
ROOT
ATOM      1  C   UNL     1       5.900   5.472  16.267  0.00  0.00    +0.000 C 
ATOM      2  C   UNL     1       4.670   5.997  16.942  0.00  0.00    +0.000 A 
ATOM      3  C   UNL     1       4.376   7.341  16.658  0.00  0.00    +0.000 A 
ATOM      4  C   UNL     1       3.414   8.043  17.371  0.00  0.00    +0.000 A 
ATOM      5  C   UNL     1       2.711   7.442  18.406  0.00  0.00    +0.000 A 
ATOM      6  C   UNL     1       2.933   6.064  18.654  0.00  0.00    +0.000 A 
ATOM      7  C   UNL     1       3.914   5.335  17.907  0.00  0.00    +0.000 A 
ENDROOT
BRANCH   5   8
ATOM      8  N   UNL     1       1.796   8.198  19.199  0.00  0.00    +0.000 N 
ATOM      9  C   UNL     1       1.476   7.936  20.537  0.00  0.00    +0.000 C 
ATOM     10  O   UNL     1       1.797   6.939  21.179  0.00  0.00    +0.000 OA
ATOM     11  H   UNL     1       1.261   8.908  18.719  0.00  0.00    +0.000 HD
BRANCH   9  12
ATOM     12  C   UNL     1       0.624   8.942  21.247  0.00  0.00    +0.000 A 
ATOM     13  C   UNL     1       0.235   8.749  22.574  0.00  0.00    +0.000 A 
ATOM     14  C   UNL     1      -0.506   9.732  23.249  0.00  0.00    +0.000 A 
ATOM     15  C   UNL     1      -0.923  10.885  22.561  0.00  0.00    +0.000 A 
ATOM     16  C   UNL     1      -1.640  12.053  22.936  0.00  0.00    +0.000 A 
ATOM     17  C   UNL     1      -1.917  12.755  21.785  0.00  0.00    +0.000 A 
ATOM     18  N   UNL     1      -1.280  12.127  20.746  0.00  0.00    +0.000 N 
ATOM     19  C   UNL     1      -0.634  10.998  21.202  0.00  0.00    +0.000 A 
ATOM     20  C   UNL     1       0.162  10.061  20.525  0.00  0.00    +0.000 A 
ATOM     21  H   UNL     1      -1.309  12.427  19.781  0.00  0.00    +0.000 HD
ENDBRANCH   9  12
ENDBRANCH   5   8
BRANCH   7  22
ATOM     22  S   UNL     1       4.322   3.642  18.440  0.00  0.00    +0.000 S 
ATOM     23  O   UNL     1       4.374   2.839  17.226  0.00  0.00    +0.000 OA
ATOM     24  O   UNL     1       5.477   3.749  19.297  0.00  0.00    +0.000 OA
BRANCH  22  25
ATOM     25  N   UNL     1       3.066   3.061  19.386  0.00  0.00    +0.000 NA
ATOM     26  C   UNL     1       1.683   2.800  18.929  0.00  0.00    +0.000 C 
ATOM     27  C   UNL     1       0.690   3.586  19.812  0.00  0.00    +0.000 C 
ATOM     28  O   UNL     1       0.901   3.366  21.217  0.00  0.00    +0.000 OA
ATOM     29  C   UNL     1       2.264   3.607  21.612  0.00  0.00    +0.000 C 
ATOM     30  C   UNL     1       3.230   2.733  20.813  0.00  0.00    +0.000 C 
ENDBRANCH  22  25
ENDBRANCH   7  22
TORSDOF 4
ENDMDL
MODEL 3
REMARK VINA RESULT:      -8.2      0.939      1.393
REMARK  Name = 
REMARK  5 active torsions:
REMARK  status: ('A' for Active; 'I' for Inactive)
REMARK    1  A    between atoms: C_1  and  C_2
REMARK    2  A    between atoms: C_5  and  N_6
REMARK    3  A    between atoms: C_7  and  C_9
REMARK    4  A    between atoms: C_19  and  S_20
REMARK    5  A    between atoms: S_20  and  N_23
REMARK                            x       y       z     vdW  Elec       q    Type
REMARK                         _______ _______ _______ _____ _____    ______ ____
ROOT
ATOM      1  C   UNL     1       6.038   4.426  16.267  0.00  0.00    +0.000 C 
ATOM      2  C   UNL     1       4.907   5.152  16.928  0.00  0.00    +0.000 A 
ATOM      3  C   UNL     1       4.800   6.509  16.579  0.00  0.00    +0.000 A 
ATOM      4  C   UNL     1       3.959   7.374  17.267  0.00  0.00    +0.000 A 
ATOM      5  C   UNL     1       3.197   6.929  18.338  0.00  0.00    +0.000 A 
ATOM      6  C   UNL     1       3.227   5.548  18.653  0.00  0.00    +0.000 A 
ATOM      7  C   UNL     1       4.082   4.652  17.934  0.00  0.00    +0.000 A 
ENDROOT
BRANCH   5   8
ATOM      8  N   UNL     1       2.413   7.846  19.102  0.00  0.00    +0.000 N 
ATOM      9  C   UNL     1       1.640   8.886  18.571  0.00  0.00    +0.000 C 
ATOM     10  O   UNL     1       1.643   9.273  17.406  0.00  0.00    +0.000 OA
ATOM     11  H   UNL     1       2.515   7.802  20.105  0.00  0.00    +0.000 HD
BRANCH   9  12
ATOM     12  C   UNL     1       0.755   9.635  19.520  0.00  0.00    +0.000 A 
ATOM     13  C   UNL     1       0.681   9.281  20.868  0.00  0.00    +0.000 A 
ATOM     14  C   UNL     1      -0.100  10.032  21.760  0.00  0.00    +0.000 A 
ATOM     15  C   UNL     1      -0.872  11.104  21.277  0.00  0.00    +0.000 A 
ATOM     16  C   UNL     1      -1.727  12.060  21.890  0.00  0.00    +0.000 A 
ATOM     17  C   UNL     1      -2.361  12.752  20.884  0.00  0.00    +0.000 A 
ATOM     18  N   UNL     1      -1.824  12.343  19.690  0.00  0.00    +0.000 N 
ATOM     19  C   UNL     1      -0.883  11.360  19.907  0.00  0.00    +0.000 A 
ATOM     20  C   UNL     1      -0.059  10.665  19.008  0.00  0.00    +0.000 A 
ATOM     21  H   UNL     1      -2.102  12.688  18.781  0.00  0.00    +0.000 HD
ENDBRANCH   9  12
ENDBRANCH   5   8
BRANCH   7  22
ATOM     22  S   UNL     1       4.257   2.945  18.546  0.00  0.00    +0.000 S 
ATOM     23  O   UNL     1       4.139   2.084  17.378  0.00  0.00    +0.000 OA
ATOM     24  O   UNL     1       5.449   2.922  19.358  0.00  0.00    +0.000 OA
BRANCH  22  25
ATOM     25  N   UNL     1       2.968   2.608  19.564  0.00  0.00    +0.000 NA
ATOM     26  C   UNL     1       1.588   2.284  19.141  0.00  0.00    +0.000 C 
ATOM     27  C   UNL     1       0.599   3.262  19.810  0.00  0.00    +0.000 C 
ATOM     28  O   UNL     1       0.777   3.345  21.235  0.00  0.00    +0.000 OA
ATOM     29  C   UNL     1       2.138   3.636  21.602  0.00  0.00    +0.000 C 
ATOM     30  C   UNL     1       3.096   2.591  21.032  0.00  0.00    +0.000 C 
ENDBRANCH  22  25
ENDBRANCH   7  22
TORSDOF 4
ENDMDL
MODEL 4
REMARK VINA RESULT:      -8.1      2.393      4.191
REMARK  Name = 
REMARK  5 active torsions:
REMARK  status: ('A' for Active; 'I' for Inactive)
REMARK    1  A    between atoms: C_1  and  C_2
REMARK    2  A    between atoms: C_5  and  N_6
REMARK    3  A    between atoms: C_7  and  C_9
REMARK    4  A    between atoms: C_19  and  S_20
REMARK    5  A    between atoms: S_20  and  N_23
REMARK                            x       y       z     vdW  Elec       q    Type
REMARK                         _______ _______ _______ _____ _____    ______ ____
ROOT
ATOM      1  C   UNL     1       3.307   2.399  18.251  0.00  0.00    +0.000 C 
ATOM      2  C   UNL     1       3.105   3.678  19.005  0.00  0.00    +0.000 A 
ATOM      3  C   UNL     1       2.264   3.570  20.125  0.00  0.00    +0.000 A 
ATOM      4  C   UNL     1       1.793   4.693  20.793  0.00  0.00    +0.000 A 
ATOM      5  C   UNL     1       2.129   5.971  20.368  0.00  0.00    +0.000 A 
ATOM      6  C   UNL     1       3.042   6.100  19.293  0.00  0.00    +0.000 A 
ATOM      7  C   UNL     1       3.542   4.942  18.613  0.00  0.00    +0.000 A 
ENDROOT
BRANCH   5   8
ATOM      8  N   UNL     1       1.560   7.118  20.999  0.00  0.00    +0.000 N 
ATOM      9  C   UNL     1       1.332   8.353  20.377  0.00  0.00    +0.000 C 
ATOM     10  O   UNL     1       1.726   8.690  19.265  0.00  0.00    +0.000 OA
ATOM     11  H   UNL     1       1.415   7.062  21.997  0.00  0.00    +0.000 HD
BRANCH   9  12
ATOM     12  C   UNL     1       0.572   9.382  21.157  0.00  0.00    +0.000 A 
ATOM     13  C   UNL     1      -0.079   9.050  22.346  0.00  0.00    +0.000 A 
ATOM     14  C   UNL     1      -0.730  10.038  23.101  0.00  0.00    +0.000 A 
ATOM     15  C   UNL     1      -0.790  11.357  22.618  0.00  0.00    +0.000 A 
ATOM     16  C   UNL     1      -1.329  12.570  23.125  0.00  0.00    +0.000 A 
ATOM     17  C   UNL     1      -1.256  13.507  22.120  0.00  0.00    +0.000 A 
ATOM     18  N   UNL     1      -0.574  12.946  21.071  0.00  0.00    +0.000 N 
ATOM     19  C   UNL     1      -0.245  11.640  21.367  0.00  0.00    +0.000 A 
ATOM     20  C   UNL     1       0.468  10.684  20.627  0.00  0.00    +0.000 A 
ATOM     21  H   UNL     1      -0.370  13.409  20.196  0.00  0.00    +0.000 HD
ENDBRANCH   9  12
ENDBRANCH   5   8
BRANCH   7  22
ATOM     22  S   UNL     1       4.512   5.185  17.092  0.00  0.00    +0.000 S 
ATOM     23  O   UNL     1       4.380   3.952  16.328  0.00  0.00    +0.000 OA
ATOM     24  O   UNL     1       4.087   6.444  16.531  0.00  0.00    +0.000 OA
BRANCH  22  25
ATOM     25  N   UNL     1       6.127   5.359  17.509  0.00  0.00    +0.000 NA
ATOM     26  C   UNL     1       6.815   4.673  18.625  0.00  0.00    +0.000 C 
ATOM     27  C   UNL     1       7.469   5.720  19.552  0.00  0.00    +0.000 C 
ATOM     28  O   UNL     1       8.292   6.658  18.836  0.00  0.00    +0.000 OA
ATOM     29  C   UNL     1       7.591   7.282  17.745  0.00  0.00    +0.000 C 
ATOM     30  C   UNL     1       7.051   6.237  16.770  0.00  0.00    +0.000 C 
ENDBRANCH  22  25
ENDBRANCH   7  22
TORSDOF 4
ENDMDL
MODEL 5
REMARK VINA RESULT:      -8.1      3.905      9.605
REMARK  Name = 
REMARK  5 active torsions:
REMARK  status: ('A' for Active; 'I' for Inactive)
REMARK    1  A    between atoms: C_1  and  C_2
REMARK    2  A    between atoms: C_5  and  N_6
REMARK    3  A    between atoms: C_7  and  C_9
REMARK    4  A    between atoms: C_19  and  S_20
REMARK    5  A    between atoms: S_20  and  N_23
REMARK                            x       y       z     vdW  Elec       q    Type
REMARK                         _______ _______ _______ _____ _____    ______ ____
ROOT
ATOM      1  C   UNL     1      -2.159  12.291  19.782  0.00  0.00    +0.000 C 
ATOM      2  C   UNL     1      -0.991  11.574  19.178  0.00  0.00    +0.000 A 
ATOM      3  C   UNL     1      -1.334  10.558  18.271  0.00  0.00    +0.000 A 
ATOM      4  C   UNL     1      -0.393   9.652  17.799  0.00  0.00    +0.000 A 
ATOM      5  C   UNL     1       0.929   9.713  18.219  0.00  0.00    +0.000 A 
ATOM      6  C   UNL     1       1.314  10.780  19.068  0.00  0.00    +0.000 A 
ATOM      7  C   UNL     1       0.346  11.724  19.542  0.00  0.00    +0.000 A 
ENDROOT
BRANCH   5   8
ATOM      8  N   UNL     1       1.867   8.719  17.808  0.00  0.00    +0.000 N 
ATOM      9  C   UNL     1       2.313   7.651  18.597  0.00  0.00    +0.000 C 
ATOM     10  O   UNL     1       2.100   7.495  19.797  0.00  0.00    +0.000 OA
ATOM     11  H   UNL     1       2.322   8.866  16.918  0.00  0.00    +0.000 HD
BRANCH   9  12
ATOM     12  C   UNL     1       3.169   6.617  17.932  0.00  0.00    +0.000 A 
ATOM     13  C   UNL     1       2.860   5.260  18.021  0.00  0.00    +0.000 A 
ATOM     14  C   UNL     1       3.632   4.308  17.336  0.00  0.00    +0.000 A 
ATOM     15  C   UNL     1       4.768   4.718  16.617  0.00  0.00    +0.000 A 
ATOM     16  C   UNL     1       5.726   4.042  15.814  0.00  0.00    +0.000 A 
ATOM     17  C   UNL     1       6.727   4.939  15.521  0.00  0.00    +0.000 A 
ATOM     18  N   UNL     1       6.347   6.166  16.004  0.00  0.00    +0.000 N 
ATOM     19  C   UNL     1       5.132   6.064  16.648  0.00  0.00    +0.000 A 
ATOM     20  C   UNL     1       4.339   7.040  17.269  0.00  0.00    +0.000 A 
ATOM     21  H   UNL     1       6.892   7.014  15.929  0.00  0.00    +0.000 HD
ENDBRANCH   9  12
ENDBRANCH   5   8
BRANCH   7  22
ATOM     22  S   UNL     1       0.857  12.917  20.819  0.00  0.00    +0.000 S 
ATOM     23  O   UNL     1       0.085  12.589  22.009  0.00  0.00    +0.000 OA
ATOM     24  O   UNL     1       2.298  12.892  20.850  0.00  0.00    +0.000 OA
BRANCH  22  25
ATOM     25  N   UNL     1       0.408  14.455  20.324  0.00  0.00    +0.000 NA
ATOM     26  C   UNL     1       0.507  14.988  18.947  0.00  0.00    +0.000 C 
ATOM     27  C   UNL     1       1.336  16.290  18.954  0.00  0.00    +0.000 C 
ATOM     28  O   UNL     1       0.868  17.241  19.925  0.00  0.00    +0.000 OA
ATOM     29  C   UNL     1       0.762  16.674  21.243  0.00  0.00    +0.000 C 
ATOM     30  C   UNL     1      -0.159  15.455  21.245  0.00  0.00    +0.000 C 
ENDBRANCH  22  25
ENDBRANCH   7  22
TORSDOF 4
ENDMDL
MODEL 6
REMARK VINA RESULT:      -8.1      6.134      7.667
REMARK  Name = 
REMARK  5 active torsions:
REMARK  status: ('A' for Active; 'I' for Inactive)
REMARK    1  A    between atoms: C_1  and  C_2
REMARK    2  A    between atoms: C_5  and  N_6
REMARK    3  A    between atoms: C_7  and  C_9
REMARK    4  A    between atoms: C_19  and  S_20
REMARK    5  A    between atoms: S_20  and  N_23
REMARK                            x       y       z     vdW  Elec       q    Type
REMARK                         _______ _______ _______ _____ _____    ______ ____
ROOT
ATOM      1  C   UNL     1       6.287   4.382  18.977  0.00  0.00    +0.000 C 
ATOM      2  C   UNL     1       6.942   5.609  18.421  0.00  0.00    +0.000 A 
ATOM      3  C   UNL     1       7.948   6.154  19.236  0.00  0.00    +0.000 A 
ATOM      4  C   UNL     1       8.493   7.406  18.982  0.00  0.00    +0.000 A 
ATOM      5  C   UNL     1       8.051   8.174  17.914  0.00  0.00    +0.000 A 
ATOM      6  C   UNL     1       7.097   7.609  17.032  0.00  0.00    +0.000 A 
ATOM      7  C   UNL     1       6.547   6.310  17.284  0.00  0.00    +0.000 A 
ENDROOT
BRANCH   5   8
ATOM      8  N   UNL     1       8.544   9.500  17.719  0.00  0.00    +0.000 N 
ATOM      9  C   UNL     1       9.111  10.306  18.714  0.00  0.00    +0.000 C 
ATOM     10  O   UNL     1       9.125  10.072  19.920  0.00  0.00    +0.000 OA
ATOM     11  H   UNL     1       8.367   9.921  16.819  0.00  0.00    +0.000 HD
BRANCH   9  12
ATOM     12  C   UNL     1       9.723  11.603  18.279  0.00  0.00    +0.000 A 
ATOM     13  C   UNL     1      11.091  11.703  18.022  0.00  0.00    +0.000 A 
ATOM     14  C   UNL     1      11.641  12.905  17.550  0.00  0.00    +0.000 A 
ATOM     15  C   UNL     1      10.819  14.038  17.406  0.00  0.00    +0.000 A 
ATOM     16  C   UNL     1      11.037  15.363  16.943  0.00  0.00    +0.000 A 
ATOM     17  C   UNL     1       9.899  16.087  17.211  0.00  0.00    +0.000 A 
ATOM     18  N   UNL     1       8.953  15.220  17.697  0.00  0.00    +0.000 N 
ATOM     19  C   UNL     1       9.482  13.950  17.791  0.00  0.00    +0.000 A 
ATOM     20  C   UNL     1       8.898  12.742  18.201  0.00  0.00    +0.000 A 
ATOM     21  H   UNL     1       8.017  15.479  17.977  0.00  0.00    +0.000 HD
ENDBRANCH   9  12
ENDBRANCH   5   8
BRANCH   7  22
ATOM     22  S   UNL     1       5.152   5.748  16.256  0.00  0.00    +0.000 S 
ATOM     23  O   UNL     1       4.939   6.790  15.261  0.00  0.00    +0.000 OA
ATOM     24  O   UNL     1       5.461   4.399  15.850  0.00  0.00    +0.000 OA
BRANCH  22  25
ATOM     25  N   UNL     1       3.780   5.665  17.215  0.00  0.00    +0.000 NA
ATOM     26  C   UNL     1       3.232   6.761  18.045  0.00  0.00    +0.000 C 
ATOM     27  C   UNL     1       3.098   6.285  19.507  0.00  0.00    +0.000 C 
ATOM     28  O   UNL     1       2.385   5.041  19.623  0.00  0.00    +0.000 OA
ATOM     29  C   UNL     1       2.935   4.013  18.781  0.00  0.00    +0.000 C 
ATOM     30  C   UNL     1       2.951   4.451  17.317  0.00  0.00    +0.000 C 
ENDBRANCH  22  25
ENDBRANCH   7  22
TORSDOF 4
ENDMDL
MODEL 7
REMARK VINA RESULT:      -8.0      3.578      8.980
REMARK  Name = 
REMARK  5 active torsions:
REMARK  status: ('A' for Active; 'I' for Inactive)
REMARK    1  A    between atoms: C_1  and  C_2
REMARK    2  A    between atoms: C_5  and  N_6
REMARK    3  A    between atoms: C_7  and  C_9
REMARK    4  A    between atoms: C_19  and  S_20
REMARK    5  A    between atoms: S_20  and  N_23
REMARK                            x       y       z     vdW  Elec       q    Type
REMARK                         _______ _______ _______ _____ _____    ______ ____
ROOT
ATOM      1  C   UNL     1      -2.361  12.392  19.637  0.00  0.00    +0.000 C 
ATOM      2  C   UNL     1      -1.181  11.667  19.067  0.00  0.00    +0.000 A 
ATOM      3  C   UNL     1      -1.506  10.611  18.200  0.00  0.00    +0.000 A 
ATOM      4  C   UNL     1      -0.550   9.701  17.769  0.00  0.00    +0.000 A 
ATOM      5  C   UNL     1       0.769   9.796  18.192  0.00  0.00    +0.000 A 
ATOM      6  C   UNL     1       1.135  10.901  18.999  0.00  0.00    +0.000 A 
ATOM      7  C   UNL     1       0.152  11.850  19.431  0.00  0.00    +0.000 A 
ENDROOT
BRANCH   5   8
ATOM      8  N   UNL     1       1.722   8.799  17.825  0.00  0.00    +0.000 N 
ATOM      9  C   UNL     1       2.188   7.778  18.663  0.00  0.00    +0.000 C 
ATOM     10  O   UNL     1       1.981   7.676  19.869  0.00  0.00    +0.000 OA
ATOM     11  H   UNL     1       2.172   8.911  16.928  0.00  0.00    +0.000 HD
BRANCH   9  12
ATOM     12  C   UNL     1       3.060   6.728  18.044  0.00  0.00    +0.000 A 
ATOM     13  C   UNL     1       2.804   5.371  18.241  0.00  0.00    +0.000 A 
ATOM     14  C   UNL     1       3.587   4.398  17.601  0.00  0.00    +0.000 A 
ATOM     15  C   UNL     1       4.684   4.793  16.814  0.00  0.00    +0.000 A 
ATOM     16  C   UNL     1       5.639   4.093  16.028  0.00  0.00    +0.000 A 
ATOM     17  C   UNL     1       6.597   5.000  15.637  0.00  0.00    +0.000 A 
ATOM     18  N   UNL     1       6.187   6.245  16.043  0.00  0.00    +0.000 N 
ATOM     19  C   UNL     1       4.999   6.149  16.735  0.00  0.00    +0.000 A 
ATOM     20  C   UNL     1       4.191   7.141  17.311  0.00  0.00    +0.000 A 
ATOM     21  H   UNL     1       6.698   7.103  15.888  0.00  0.00    +0.000 HD
ENDBRANCH   9  12
ENDBRANCH   5   8
BRANCH   7  22
ATOM     22  S   UNL     1       0.640  13.100  20.661  0.00  0.00    +0.000 S 
ATOM     23  O   UNL     1       2.054  12.873  20.929  0.00  0.00    +0.000 OA
ATOM     24  O   UNL     1       0.185  14.372  20.155  0.00  0.00    +0.000 OA
BRANCH  22  25
ATOM     25  N   UNL     1      -0.204  12.812  22.081  0.00  0.00    +0.000 NA
ATOM     26  C   UNL     1      -0.503  11.484  22.659  0.00  0.00    +0.000 C 
ATOM     27  C   UNL     1      -2.026  11.343  22.871  0.00  0.00    +0.000 C 
ATOM     28  O   UNL     1      -2.590  12.447  23.600  0.00  0.00    +0.000 OA
ATOM     29  C   UNL     1      -2.252  13.719  23.018  0.00  0.00    +0.000 C 
ATOM     30  C   UNL     1      -0.737  13.896  22.924  0.00  0.00    +0.000 C 
ENDBRANCH  22  25
ENDBRANCH   7  22
TORSDOF 4
ENDMDL
MODEL 8
REMARK VINA RESULT:      -7.9      4.793      6.561
REMARK  Name = 
REMARK  5 active torsions:
REMARK  status: ('A' for Active; 'I' for Inactive)
REMARK    1  A    between atoms: C_1  and  C_2
REMARK    2  A    between atoms: C_5  and  N_6
REMARK    3  A    between atoms: C_7  and  C_9
REMARK    4  A    between atoms: C_19  and  S_20
REMARK    5  A    between atoms: S_20  and  N_23
REMARK                            x       y       z     vdW  Elec       q    Type
REMARK                         _______ _______ _______ _____ _____    ______ ____
ROOT
ATOM      1  C   UNL     1       4.871   3.149  16.218  0.00  0.00    +0.000 C 
ATOM      2  C   UNL     1       5.208   4.595  16.417  0.00  0.00    +0.000 A 
ATOM      3  C   UNL     1       6.460   4.979  15.910  0.00  0.00    +0.000 A 
ATOM      4  C   UNL     1       7.020   6.215  16.209  0.00  0.00    +0.000 A 
ATOM      5  C   UNL     1       6.363   7.116  17.035  0.00  0.00    +0.000 A 
ATOM      6  C   UNL     1       5.063   6.782  17.490  0.00  0.00    +0.000 A 
ATOM      7  C   UNL     1       4.478   5.514  17.169  0.00  0.00    +0.000 A 
ENDROOT
BRANCH   5   8
ATOM      8  N   UNL     1       6.990   8.340  17.418  0.00  0.00    +0.000 N 
ATOM      9  C   UNL     1       8.107   8.449  18.256  0.00  0.00    +0.000 C 
ATOM     10  O   UNL     1       8.615   7.544  18.912  0.00  0.00    +0.000 OA
ATOM     11  H   UNL     1       6.520   9.192  17.150  0.00  0.00    +0.000 HD
BRANCH   9  12
ATOM     12  C   UNL     1       8.721   9.808  18.404  0.00  0.00    +0.000 A 
ATOM     13  C   UNL     1       9.744  10.039  19.324  0.00  0.00    +0.000 A 
ATOM     14  C   UNL     1      10.357  11.299  19.406  0.00  0.00    +0.000 A 
ATOM     15  C   UNL     1       9.886  12.356  18.607  0.00  0.00    +0.000 A 
ATOM     16  C   UNL     1      10.283  13.708  18.425  0.00  0.00    +0.000 A 
ATOM     17  C   UNL     1       9.325  14.319  17.648  0.00  0.00    +0.000 A 
ATOM     18  N   UNL     1       8.436  13.356  17.243  0.00  0.00    +0.000 N 
ATOM     19  C   UNL     1       8.780  12.137  17.788  0.00  0.00    +0.000 A 
ATOM     20  C   UNL     1       8.195  10.870  17.641  0.00  0.00    +0.000 A 
ATOM     21  H   UNL     1       7.627  13.520  16.659  0.00  0.00    +0.000 HD
ENDBRANCH   9  12
ENDBRANCH   5   8
BRANCH   7  22
ATOM     22  S   UNL     1       2.917   5.052  17.984  0.00  0.00    +0.000 S 
ATOM     23  O   UNL     1       2.175   6.291  18.167  0.00  0.00    +0.000 OA
ATOM     24  O   UNL     1       2.358   3.969  17.212  0.00  0.00    +0.000 OA
BRANCH  22  25
ATOM     25  N   UNL     1       3.269   4.435  19.503  0.00  0.00    +0.000 NA
ATOM     26  C   UNL     1       4.422   3.573  19.844  0.00  0.00    +0.000 C 
ATOM     27  C   UNL     1       3.917   2.271  20.503  0.00  0.00    +0.000 C 
ATOM     28  O   UNL     1       3.016   2.516  21.597  0.00  0.00    +0.000 OA
ATOM     29  C   UNL     1       1.925   3.378  21.227  0.00  0.00    +0.000 C 
ATOM     30  C   UNL     1       2.438   4.713  20.687  0.00  0.00    +0.000 C 
ENDBRANCH  22  25
ENDBRANCH   7  22
TORSDOF 4
ENDMDL
MODEL 9
REMARK VINA RESULT:      -7.8      2.269      4.330
REMARK  Name = 
REMARK  5 active torsions:
REMARK  status: ('A' for Active; 'I' for Inactive)
REMARK    1  A    between atoms: C_1  and  C_2
REMARK    2  A    between atoms: C_5  and  N_6
REMARK    3  A    between atoms: C_7  and  C_9
REMARK    4  A    between atoms: C_19  and  S_20
REMARK    5  A    between atoms: S_20  and  N_23
REMARK                            x       y       z     vdW  Elec       q    Type
REMARK                         _______ _______ _______ _____ _____    ______ ____
ROOT
ATOM      1  C   UNL     1       2.039   2.690  20.107  0.00  0.00    +0.000 C 
ATOM      2  C   UNL     1       2.291   4.166  20.084  0.00  0.00    +0.000 A 
ATOM      3  C   UNL     1       1.344   4.933  20.783  0.00  0.00    +0.000 A 
ATOM      4  C   UNL     1       1.300   6.316  20.671  0.00  0.00    +0.000 A 
ATOM      5  C   UNL     1       2.189   6.996  19.850  0.00  0.00    +0.000 A 
ATOM      6  C   UNL     1       3.205   6.250  19.201  0.00  0.00    +0.000 A 
ATOM      7  C   UNL     1       3.260   4.824  19.329  0.00  0.00    +0.000 A 
ENDROOT
BRANCH   5   8
ATOM      8  N   UNL     1       2.073   8.406  19.663  0.00  0.00    +0.000 N 
ATOM      9  C   UNL     1       1.471   9.030  18.563  0.00  0.00    +0.000 C 
ATOM     10  O   UNL     1       1.102   8.481  17.528  0.00  0.00    +0.000 OA
ATOM     11  H   UNL     1       2.561   8.992  20.325  0.00  0.00    +0.000 HD
BRANCH   9  12
ATOM     12  C   UNL     1       1.296  10.516  18.629  0.00  0.00    +0.000 A 
ATOM     13  C   UNL     1       2.328  11.380  18.261  0.00  0.00    +0.000 A 
ATOM     14  C   UNL     1       2.128  12.769  18.262  0.00  0.00    +0.000 A 
ATOM     15  C   UNL     1       0.904  13.297  18.709  0.00  0.00    +0.000 A 
ATOM     16  C   UNL     1       0.374  14.611  18.812  0.00  0.00    +0.000 A 
ATOM     17  C   UNL     1      -0.813  14.525  19.503  0.00  0.00    +0.000 A 
ATOM     18  N   UNL     1      -1.087  13.196  19.704  0.00  0.00    +0.000 N 
ATOM     19  C   UNL     1      -0.067  12.422  19.193  0.00  0.00    +0.000 A 
ATOM     20  C   UNL     1       0.086  11.028  19.138  0.00  0.00    +0.000 A 
ATOM     21  H   UNL     1      -1.901  12.837  20.185  0.00  0.00    +0.000 HD
ENDBRANCH   9  12
ENDBRANCH   5   8
BRANCH   7  22
ATOM     22  S   UNL     1       4.432   3.908  18.278  0.00  0.00    +0.000 S 
ATOM     23  O   UNL     1       5.403   3.310  19.184  0.00  0.00    +0.000 OA
ATOM     24  O   UNL     1       3.638   3.080  17.404  0.00  0.00    +0.000 OA
BRANCH  22  25
ATOM     25  N   UNL     1       5.246   5.003  17.303  0.00  0.00    +0.000 NA
ATOM     26  C   UNL     1       5.310   4.969  15.825  0.00  0.00    +0.000 C 
ATOM     27  C   UNL     1       6.786   4.955  15.372  0.00  0.00    +0.000 C 
ATOM     28  O   UNL     1       7.562   6.005  15.975  0.00  0.00    +0.000 OA
ATOM     29  C   UNL     1       7.449   6.016  17.409  0.00  0.00    +0.000 C 
ATOM     30  C   UNL     1       5.991   6.152  17.845  0.00  0.00    +0.000 C 
ENDBRANCH  22  25
ENDBRANCH   7  22
TORSDOF 4
ENDMDL
