MODEL 1
REMARK VINA RESULT:      -8.5      0.000      0.000
REMARK  Name = 
REMARK  2 active torsions:
REMARK  status: ('A' for Active; 'I' for Inactive)
REMARK    1  A    between atoms: C_2  and  C_3
REMARK    2  A    between atoms: C_3  and  C_4
REMARK                            x       y       z     vdW  Elec       q    Type
REMARK                         _______ _______ _______ _____ _____    ______ ____
ROOT
ATOM      1  O   UNL     1       4.152   7.789  17.409  0.00  0.00    +0.000 OA
ATOM      2  C   UNL     1       3.239   7.286  18.064  0.00  0.00    +0.000 C 
ATOM      3  N   UNL     1       3.451   6.212  18.938  0.00  0.00    +0.000 N 
ATOM      4  C   UNL     1       4.833   5.745  19.074  0.00  0.00    +0.000 C 
ATOM      5  C   UNL     1       5.362   5.029  17.850  0.00  0.00    +0.000 A 
ATOM      6  N   UNL     1       6.510   5.540  17.322  0.00  0.00    +0.000 NA
ATOM      7  C   UNL     1       6.930   5.029  16.153  0.00  0.00    +0.000 A 
ATOM      8  C   UNL     1       6.286   3.996  15.503  0.00  0.00    +0.000 A 
ATOM      9  C   UNL     1       5.166   3.425  16.108  0.00  0.00    +0.000 A 
ATOM     10  C   UNL     1       4.670   3.929  17.312  0.00  0.00    +0.000 A 
ATOM     11  N   UNL     1       3.546   3.409  17.906  0.00  0.00    +0.000 N 
ATOM     12  C   UNL     1       3.362   2.004  18.219  0.00  0.00    +0.000 C 
ATOM     13  C   UNL     1       1.982   1.962  18.873  0.00  0.00    +0.000 C 
ATOM     14  C   UNL     1       1.234   3.134  18.249  0.00  0.00    +0.000 C 
ATOM     15  C   UNL     1       2.316   4.196  18.017  0.00  0.00    +0.000 C 
ATOM     16  C   UNL     1       2.416   5.196  19.183  0.00  0.00    +0.000 C 
ENDROOT
BRANCH   2  17
ATOM     17  C   UNL     1       1.805   7.791  17.970  0.00  0.00    +0.000 C 
BRANCH  17  18
ATOM     18  C   UNL     1       1.505   9.152  18.558  0.00  0.00    +0.000 A 
ATOM     19  C   UNL     1       1.949  10.346  17.970  0.00  0.00    +0.000 A 
ATOM     20  C   UNL     1       1.761  11.588  18.581  0.00  0.00    +0.000 A 
ATOM     21  C   UNL     1       1.144  11.591  19.831  0.00  0.00    +0.000 A 
ATOM     22  N   UNL     1       0.843  12.609  20.695  0.00  0.00    +0.000 N 
ATOM     23  N   UNL     1       0.263  12.204  21.841  0.00  0.00    +0.000 NA
ATOM     24  C   UNL     1       0.177  10.880  21.691  0.00  0.00    +0.000 A 
ATOM     25  C   UNL     1       0.704  10.435  20.460  0.00  0.00    +0.000 A 
ATOM     26  C   UNL     1       0.874   9.198  19.818  0.00  0.00    +0.000 A 
ATOM     27  H   UNL     1       1.019  13.598  20.566  0.00  0.00    +0.000 HD
ENDBRANCH  17  18
ENDBRANCH   2  17
TORSDOF 2
ENDMDL
MODEL 2
REMARK VINA RESULT:      -8.4      0.667      1.290
REMARK  Name = 
REMARK  2 active torsions:
REMARK  status: ('A' for Active; 'I' for Inactive)
REMARK    1  A    between atoms: C_2  and  C_3
REMARK    2  A    between atoms: C_3  and  C_4
REMARK                            x       y       z     vdW  Elec       q    Type
REMARK                         _______ _______ _______ _____ _____    ______ ____
ROOT
ATOM      1  O   UNL     1       4.267   7.687  17.449  0.00  0.00    +0.000 OA
ATOM      2  C   UNL     1       3.383   7.165  18.130  0.00  0.00    +0.000 C 
ATOM      3  N   UNL     1       3.629   6.055  18.948  0.00  0.00    +0.000 N 
ATOM      4  C   UNL     1       5.011   5.571  18.993  0.00  0.00    +0.000 C 
ATOM      5  C   UNL     1       5.469   4.901  17.716  0.00  0.00    +0.000 A 
ATOM      6  N   UNL     1       6.593   5.423  17.149  0.00  0.00    +0.000 NA
ATOM      7  C   UNL     1       6.947   4.956  15.941  0.00  0.00    +0.000 A 
ATOM      8  C   UNL     1       6.259   3.956  15.284  0.00  0.00    +0.000 A 
ATOM      9  C   UNL     1       5.166   3.371  15.923  0.00  0.00    +0.000 A 
ATOM     10  C   UNL     1       4.738   3.830  17.171  0.00  0.00    +0.000 A 
ATOM     11  N   UNL     1       3.640   3.295  17.801  0.00  0.00    +0.000 N 
ATOM     12  C   UNL     1       3.459   1.880  18.067  0.00  0.00    +0.000 C 
ATOM     13  C   UNL     1       2.113   1.824  18.790  0.00  0.00    +0.000 C 
ATOM     14  C   UNL     1       1.347   3.026  18.253  0.00  0.00    +0.000 C 
ATOM     15  C   UNL     1       2.427   4.088  18.007  0.00  0.00    +0.000 C 
ATOM     16  C   UNL     1       2.597   5.039  19.206  0.00  0.00    +0.000 C 
ENDROOT
BRANCH   2  17
ATOM     17  C   UNL     1       1.952   7.686  18.131  0.00  0.00    +0.000 C 
BRANCH  17  18
ATOM     18  C   UNL     1       1.558   8.643  19.235  0.00  0.00    +0.000 A 
ATOM     19  C   UNL     1       1.472   8.254  20.580  0.00  0.00    +0.000 A 
ATOM     20  C   UNL     1       0.999   9.117  21.572  0.00  0.00    +0.000 A 
ATOM     21  C   UNL     1       0.575  10.380  21.162  0.00  0.00    +0.000 A 
ATOM     22  N   UNL     1       0.044  11.432  21.858  0.00  0.00    +0.000 N 
ATOM     23  N   UNL     1      -0.274  12.493  21.093  0.00  0.00    +0.000 NA
ATOM     24  C   UNL     1       0.087  12.107  19.866  0.00  0.00    +0.000 A 
ATOM     25  C   UNL     1       0.627  10.804  19.842  0.00  0.00    +0.000 A 
ATOM     26  C   UNL     1       1.132   9.934  18.862  0.00  0.00    +0.000 A 
ATOM     27  H   UNL     1      -0.140  11.482  22.853  0.00  0.00    +0.000 HD
ENDBRANCH  17  18
ENDBRANCH   2  17
TORSDOF 2
ENDMDL
MODEL 3
REMARK VINA RESULT:      -7.8      2.179      8.067
REMARK  Name = 
REMARK  2 active torsions:
REMARK  status: ('A' for Active; 'I' for Inactive)
REMARK    1  A    between atoms: C_2  and  C_3
REMARK    2  A    between atoms: C_3  and  C_4
REMARK                            x       y       z     vdW  Elec       q    Type
REMARK                         _______ _______ _______ _____ _____    ______ ____
ROOT
ATOM      1  O   UNL     1       2.625   8.666  18.758  0.00  0.00    +0.000 OA
ATOM      2  C   UNL     1       1.808   8.250  19.581  0.00  0.00    +0.000 C 
ATOM      3  N   UNL     1       0.540   8.825  19.728  0.00  0.00    +0.000 N 
ATOM      4  C   UNL     1       0.210   9.922  18.815  0.00  0.00    +0.000 C 
ATOM      5  C   UNL     1       0.970  11.201  19.093  0.00  0.00    +0.000 A 
ATOM      6  N   UNL     1       1.679  11.703  18.043  0.00  0.00    +0.000 NA
ATOM      7  C   UNL     1       2.483  12.750  18.287  0.00  0.00    +0.000 A 
ATOM      8  C   UNL     1       2.583  13.356  19.522  0.00  0.00    +0.000 A 
ATOM      9  C   UNL     1       1.778  12.885  20.561  0.00  0.00    +0.000 A 
ATOM     10  C   UNL     1       0.938  11.785  20.371  0.00  0.00    +0.000 A 
ATOM     11  N   UNL     1       0.167  11.280  21.390  0.00  0.00    +0.000 N 
ATOM     12  C   UNL     1      -0.758  12.069  22.183  0.00  0.00    +0.000 C 
ATOM     13  C   UNL     1      -1.364  11.046  23.144  0.00  0.00    +0.000 C 
ATOM     14  C   UNL     1      -0.274   9.995  23.311  0.00  0.00    +0.000 C 
ATOM     15  C   UNL     1       0.426   9.951  21.946  0.00  0.00    +0.000 C 
ATOM     16  C   UNL     1      -0.150   8.858  21.027  0.00  0.00    +0.000 C 
ENDROOT
BRANCH   2  17
ATOM     17  C   UNL     1       2.118   7.080  20.504  0.00  0.00    +0.000 C 
BRANCH  17  18
ATOM     18  C   UNL     1       1.948   5.684  19.944  0.00  0.00    +0.000 A 
ATOM     19  C   UNL     1       1.015   4.771  20.457  0.00  0.00    +0.000 A 
ATOM     20  C   UNL     1       0.946   3.451  20.006  0.00  0.00    +0.000 A 
ATOM     21  C   UNL     1       1.876   3.061  19.044  0.00  0.00    +0.000 A 
ATOM     22  N   UNL     1       2.098   1.861  18.425  0.00  0.00    +0.000 N 
ATOM     23  N   UNL     1       3.128   1.870  17.559  0.00  0.00    +0.000 NA
ATOM     24  C   UNL     1       3.568   3.130  17.617  0.00  0.00    +0.000 A 
ATOM     25  C   UNL     1       2.828   3.924  18.519  0.00  0.00    +0.000 A 
ATOM     26  C   UNL     1       2.865   5.256  18.963  0.00  0.00    +0.000 A 
ATOM     27  H   UNL     1       1.588   0.996  18.560  0.00  0.00    +0.000 HD
ENDBRANCH  17  18
ENDBRANCH   2  17
TORSDOF 2
ENDMDL
MODEL 4
REMARK VINA RESULT:      -7.8      1.737      3.495
REMARK  Name = 
REMARK  2 active torsions:
REMARK  status: ('A' for Active; 'I' for Inactive)
REMARK    1  A    between atoms: C_2  and  C_3
REMARK    2  A    between atoms: C_3  and  C_4
REMARK                            x       y       z     vdW  Elec       q    Type
REMARK                         _______ _______ _______ _____ _____    ______ ____
ROOT
ATOM      1  O   UNL     1       1.288   5.101  20.449  0.00  0.00    +0.000 OA
ATOM      2  C   UNL     1       1.765   6.059  19.839  0.00  0.00    +0.000 C 
ATOM      3  N   UNL     1       1.906   6.060  18.446  0.00  0.00    +0.000 N 
ATOM      4  C   UNL     1       1.408   4.878  17.738  0.00  0.00    +0.000 C 
ATOM      5  C   UNL     1       2.244   3.635  17.957  0.00  0.00    +0.000 A 
ATOM      6  N   UNL     1       1.571   2.552  18.437  0.00  0.00    +0.000 NA
ATOM      7  C   UNL     1       2.299   1.479  18.785  0.00  0.00    +0.000 A 
ATOM      8  C   UNL     1       3.669   1.412  18.633  0.00  0.00    +0.000 A 
ATOM      9  C   UNL     1       4.327   2.497  18.053  0.00  0.00    +0.000 A 
ATOM     10  C   UNL     1       3.625   3.649  17.692  0.00  0.00    +0.000 A 
ATOM     11  N   UNL     1       4.258   4.744  17.155  0.00  0.00    +0.000 N 
ATOM     12  C   UNL     1       5.124   4.699  15.992  0.00  0.00    +0.000 C 
ATOM     13  C   UNL     1       5.544   6.156  15.804  0.00  0.00    +0.000 C 
ATOM     14  C   UNL     1       5.492   6.746  17.208  0.00  0.00    +0.000 C 
ATOM     15  C   UNL     1       4.332   6.008  17.889  0.00  0.00    +0.000 C 
ATOM     16  C   UNL     1       3.003   6.778  17.779  0.00  0.00    +0.000 C 
ENDROOT
BRANCH   2  17
ATOM     17  C   UNL     1       2.243   7.315  20.556  0.00  0.00    +0.000 C 
BRANCH  17  18
ATOM     18  C   UNL     1       1.262   8.459  20.688  0.00  0.00    +0.000 A 
ATOM     19  C   UNL     1       1.053   9.398  19.667  0.00  0.00    +0.000 A 
ATOM     20  C   UNL     1       0.229  10.513  19.843  0.00  0.00    +0.000 A 
ATOM     21  C   UNL     1      -0.351  10.679  21.099  0.00  0.00    +0.000 A 
ATOM     22  N   UNL     1      -1.167  11.655  21.604  0.00  0.00    +0.000 N 
ATOM     23  N   UNL     1      -1.503  11.479  22.896  0.00  0.00    +0.000 NA
ATOM     24  C   UNL     1      -0.890  10.337  23.219  0.00  0.00    +0.000 A 
ATOM     25  C   UNL     1      -0.161   9.786  22.144  0.00  0.00    +0.000 A 
ATOM     26  C   UNL     1       0.647   8.655  21.941  0.00  0.00    +0.000 A 
ATOM     27  H   UNL     1      -1.520  12.473  21.121  0.00  0.00    +0.000 HD
ENDBRANCH  17  18
ENDBRANCH   2  17
TORSDOF 2
ENDMDL
MODEL 5
REMARK VINA RESULT:      -7.7      1.689      8.031
REMARK  Name = 
REMARK  2 active torsions:
REMARK  status: ('A' for Active; 'I' for Inactive)
REMARK    1  A    between atoms: C_2  and  C_3
REMARK    2  A    between atoms: C_3  and  C_4
REMARK                            x       y       z     vdW  Elec       q    Type
REMARK                         _______ _______ _______ _____ _____    ______ ____
ROOT
ATOM      1  O   UNL     1       2.603   9.356  18.060  0.00  0.00    +0.000 OA
ATOM      2  C   UNL     1       1.829   8.780  18.826  0.00  0.00    +0.000 C 
ATOM      3  N   UNL     1       0.580   9.314  19.165  0.00  0.00    +0.000 N 
ATOM      4  C   UNL     1       0.213  10.577  18.520  0.00  0.00    +0.000 C 
ATOM      5  C   UNL     1       1.007  11.770  19.010  0.00  0.00    +0.000 A 
ATOM      6  N   UNL     1       1.661  12.477  18.046  0.00  0.00    +0.000 NA
ATOM      7  C   UNL     1       2.493  13.449  18.453  0.00  0.00    +0.000 A 
ATOM      8  C   UNL     1       2.673  13.785  19.779  0.00  0.00    +0.000 A 
ATOM      9  C   UNL     1       1.924  13.111  20.744  0.00  0.00    +0.000 A 
ATOM     10  C   UNL     1       1.058  12.076  20.382  0.00  0.00    +0.000 A 
ATOM     11  N   UNL     1       0.341  11.373  21.318  0.00  0.00    +0.000 N 
ATOM     12  C   UNL     1      -0.525  11.981  22.311  0.00  0.00    +0.000 C 
ATOM     13  C   UNL     1      -1.089  10.783  23.074  0.00  0.00    +0.000 C 
ATOM     14  C   UNL     1      -0.007   9.718  22.954  0.00  0.00    +0.000 C 
ATOM     15  C   UNL     1       0.611   9.957  21.571  0.00  0.00    +0.000 C 
ATOM     16  C   UNL     1      -0.032   9.078  20.482  0.00  0.00    +0.000 C 
ENDROOT
BRANCH   2  17
ATOM     17  C   UNL     1       2.175   7.443  19.467  0.00  0.00    +0.000 C 
BRANCH  17  18
ATOM     18  C   UNL     1       2.795   6.384  18.582  0.00  0.00    +0.000 A 
ATOM     19  C   UNL     1       2.148   5.177  18.279  0.00  0.00    +0.000 A 
ATOM     20  C   UNL     1       2.776   4.161  17.553  0.00  0.00    +0.000 A 
ATOM     21  C   UNL     1       4.099   4.380  17.174  0.00  0.00    +0.000 A 
ATOM     22  N   UNL     1       4.994   3.597  16.497  0.00  0.00    +0.000 N 
ATOM     23  N   UNL     1       6.210   4.155  16.346  0.00  0.00    +0.000 NA
ATOM     24  C   UNL     1       6.077   5.346  16.934  0.00  0.00    +0.000 A 
ATOM     25  C   UNL     1       4.786   5.550  17.466  0.00  0.00    +0.000 A 
ATOM     26  C   UNL     1       4.129   6.573  18.170  0.00  0.00    +0.000 A 
ATOM     27  H   UNL     1       4.840   2.668  16.124  0.00  0.00    +0.000 HD
ENDBRANCH  17  18
ENDBRANCH   2  17
TORSDOF 2
ENDMDL
MODEL 6
REMARK VINA RESULT:      -7.7      1.086      1.102
REMARK  Name = 
REMARK  2 active torsions:
REMARK  status: ('A' for Active; 'I' for Inactive)
REMARK    1  A    between atoms: C_2  and  C_3
REMARK    2  A    between atoms: C_3  and  C_4
REMARK                            x       y       z     vdW  Elec       q    Type
REMARK                         _______ _______ _______ _____ _____    ______ ____
ROOT
ATOM      1  O   UNL     1       3.955   7.937  17.356  0.00  0.00    +0.000 OA
ATOM      2  C   UNL     1       3.042   7.423  18.004  0.00  0.00    +0.000 C 
ATOM      3  N   UNL     1       3.267   6.380  18.911  0.00  0.00    +0.000 N 
ATOM      4  C   UNL     1       4.659   5.959  19.090  0.00  0.00    +0.000 C 
ATOM      5  C   UNL     1       5.236   5.227  17.898  0.00  0.00    +0.000 A 
ATOM      6  N   UNL     1       6.380   5.758  17.381  0.00  0.00    +0.000 NA
ATOM      7  C   UNL     1       6.842   5.229  16.236  0.00  0.00    +0.000 A 
ATOM      8  C   UNL     1       6.243   4.161  15.600  0.00  0.00    +0.000 A 
ATOM      9  C   UNL     1       5.127   3.573  16.196  0.00  0.00    +0.000 A 
ATOM     10  C   UNL     1       4.589   4.093  17.375  0.00  0.00    +0.000 A 
ATOM     11  N   UNL     1       3.468   3.555  17.958  0.00  0.00    +0.000 N 
ATOM     12  C   UNL     1       3.320   2.153  18.305  0.00  0.00    +0.000 C 
ATOM     13  C   UNL     1       1.926   2.087  18.930  0.00  0.00    +0.000 C 
ATOM     14  C   UNL     1       1.159   3.218  18.258  0.00  0.00    +0.000 C 
ATOM     15  C   UNL     1       2.214   4.307  18.021  0.00  0.00    +0.000 C 
ATOM     16  C   UNL     1       2.257   5.340  19.162  0.00  0.00    +0.000 C 
ENDROOT
BRANCH   2  17
ATOM     17  C   UNL     1       1.597   7.882  17.866  0.00  0.00    +0.000 C 
BRANCH  17  18
ATOM     18  C   UNL     1       1.308   9.353  18.072  0.00  0.00    +0.000 A 
ATOM     19  C   UNL     1       2.314  10.331  18.054  0.00  0.00    +0.000 A 
ATOM     20  C   UNL     1       2.050  11.670  18.356  0.00  0.00    +0.000 A 
ATOM     21  C   UNL     1       0.743  11.991  18.721  0.00  0.00    +0.000 A 
ATOM     22  N   UNL     1       0.168  13.174  19.097  0.00  0.00    +0.000 N 
ATOM     23  N   UNL     1      -1.139  13.076  19.407  0.00  0.00    +0.000 NA
ATOM     24  C   UNL     1      -1.408  11.784  19.202  0.00  0.00    +0.000 A 
ATOM     25  C   UNL     1      -0.280  11.055  18.769  0.00  0.00    +0.000 A 
ATOM     26  C   UNL     1      -0.004   9.719  18.433  0.00  0.00    +0.000 A 
ATOM     27  H   UNL     1       0.616  14.079  19.176  0.00  0.00    +0.000 HD
ENDBRANCH  17  18
ENDBRANCH   2  17
TORSDOF 2
ENDMDL
MODEL 7
REMARK VINA RESULT:      -7.5      2.851      8.031
REMARK  Name = 
REMARK  2 active torsions:
REMARK  status: ('A' for Active; 'I' for Inactive)
REMARK    1  A    between atoms: C_2  and  C_3
REMARK    2  A    between atoms: C_3  and  C_4
REMARK                            x       y       z     vdW  Elec       q    Type
REMARK                         _______ _______ _______ _____ _____    ______ ____
ROOT
ATOM      1  O   UNL     1       5.048   3.704  17.013  0.00  0.00    +0.000 OA
ATOM      2  C   UNL     1       5.049   4.924  16.839  0.00  0.00    +0.000 C 
ATOM      3  N   UNL     1       5.028   5.829  17.907  0.00  0.00    +0.000 N 
ATOM      4  C   UNL     1       5.056   5.252  19.253  0.00  0.00    +0.000 C 
ATOM      5  C   UNL     1       3.773   4.551  19.646  0.00  0.00    +0.000 A 
ATOM      6  N   UNL     1       3.909   3.251  20.034  0.00  0.00    +0.000 NA
ATOM      7  C   UNL     1       2.783   2.551  20.246  0.00  0.00    +0.000 A 
ATOM      8  C   UNL     1       1.520   3.097  20.137  0.00  0.00    +0.000 A 
ATOM      9  C   UNL     1       1.406   4.453  19.831  0.00  0.00    +0.000 A 
ATOM     10  C   UNL     1       2.541   5.226  19.577  0.00  0.00    +0.000 A 
ATOM     11  N   UNL     1       2.451   6.554  19.235  0.00  0.00    +0.000 N 
ATOM     12  C   UNL     1       1.733   7.551  20.009  0.00  0.00    +0.000 C 
ATOM     13  C   UNL     1       1.958   8.841  19.221  0.00  0.00    +0.000 C 
ATOM     14  C   UNL     1       2.137   8.377  17.781  0.00  0.00    +0.000 C 
ATOM     15  C   UNL     1       2.841   7.019  17.903  0.00  0.00    +0.000 C 
ATOM     16  C   UNL     1       4.372   7.141  17.798  0.00  0.00    +0.000 C 
ENDROOT
BRANCH   2  17
ATOM     17  C   UNL     1       5.070   5.540  15.447  0.00  0.00    +0.000 C 
BRANCH  17  18
ATOM     18  C   UNL     1       5.846   4.812  14.372  0.00  0.00    +0.000 A 
ATOM     19  C   UNL     1       7.115   5.229  13.940  0.00  0.00    +0.000 A 
ATOM     20  C   UNL     1       7.772   4.615  12.871  0.00  0.00    +0.000 A 
ATOM     21  C   UNL     1       7.094   3.588  12.217  0.00  0.00    +0.000 A 
ATOM     22  N   UNL     1       7.432   2.815  11.139  0.00  0.00    +0.000 N 
ATOM     23  N   UNL     1       6.483   1.931  10.777  0.00  0.00    +0.000 NA
ATOM     24  C   UNL     1       5.513   2.137  11.670  0.00  0.00    +0.000 A 
ATOM     25  C   UNL     1       5.832   3.152  12.597  0.00  0.00    +0.000 A 
ATOM     26  C   UNL     1       5.198   3.761  13.693  0.00  0.00    +0.000 A 
ATOM     27  H   UNL     1       8.288   2.852  10.600  0.00  0.00    +0.000 HD
ENDBRANCH  17  18
ENDBRANCH   2  17
TORSDOF 2
ENDMDL
MODEL 8
REMARK VINA RESULT:      -7.4      1.774      3.675
REMARK  Name = 
REMARK  2 active torsions:
REMARK  status: ('A' for Active; 'I' for Inactive)
REMARK    1  A    between atoms: C_2  and  C_3
REMARK    2  A    between atoms: C_3  and  C_4
REMARK                            x       y       z     vdW  Elec       q    Type
REMARK                         _______ _______ _______ _____ _____    ______ ____
ROOT
ATOM      1  O   UNL     1       1.293   5.232  20.480  0.00  0.00    +0.000 OA
ATOM      2  C   UNL     1       1.823   6.167  19.878  0.00  0.00    +0.000 C 
ATOM      3  N   UNL     1       1.972   6.168  18.485  0.00  0.00    +0.000 N 
ATOM      4  C   UNL     1       1.417   5.018  17.768  0.00  0.00    +0.000 C 
ATOM      5  C   UNL     1       2.185   3.732  17.984  0.00  0.00    +0.000 A 
ATOM      6  N   UNL     1       1.454   2.683  18.455  0.00  0.00    +0.000 NA
ATOM      7  C   UNL     1       2.123   1.571  18.800  0.00  0.00    +0.000 A 
ATOM      8  C   UNL     1       3.488   1.433  18.656  0.00  0.00    +0.000 A 
ATOM      9  C   UNL     1       4.206   2.485  18.085  0.00  0.00    +0.000 A 
ATOM     10  C   UNL     1       3.567   3.674  17.727  0.00  0.00    +0.000 A 
ATOM     11  N   UNL     1       4.259   4.737  17.200  0.00  0.00    +0.000 N 
ATOM     12  C   UNL     1       5.129   4.653  16.041  0.00  0.00    +0.000 C 
ATOM     13  C   UNL     1       5.625   6.087  15.863  0.00  0.00    +0.000 C 
ATOM     14  C   UNL     1       5.597   6.672  17.270  0.00  0.00    +0.000 C 
ATOM     15  C   UNL     1       4.396   5.992  17.941  0.00  0.00    +0.000 C 
ATOM     16  C   UNL     1       3.110   6.831  17.829  0.00  0.00    +0.000 C 
ENDROOT
BRANCH   2  17
ATOM     17  C   UNL     1       2.362   7.392  20.604  0.00  0.00    +0.000 C 
BRANCH  17  18
ATOM     18  C   UNL     1       1.418   8.558  20.802  0.00  0.00    +0.000 A 
ATOM     19  C   UNL     1       0.805   8.835  22.033  0.00  0.00    +0.000 A 
ATOM     20  C   UNL     1      -0.150   9.845  22.175  0.00  0.00    +0.000 A 
ATOM     21  C   UNL     1      -0.502  10.548  21.024  0.00  0.00    +0.000 A 
ATOM     22  N   UNL     1      -1.404  11.555  20.813  0.00  0.00    +0.000 N 
ATOM     23  N   UNL     1      -1.484  11.963  19.532  0.00  0.00    +0.000 NA
ATOM     24  C   UNL     1      -0.584  11.198  18.909  0.00  0.00    +0.000 A 
ATOM     25  C   UNL     1       0.065  10.299  19.782  0.00  0.00    +0.000 A 
ATOM     26  C   UNL     1       1.044   9.299  19.664  0.00  0.00    +0.000 A 
ATOM     27  H   UNL     1      -2.005  11.998  21.498  0.00  0.00    +0.000 HD
ENDBRANCH  17  18
ENDBRANCH   2  17
TORSDOF 2
ENDMDL
MODEL 9
REMARK VINA RESULT:      -7.2      3.035      8.859
REMARK  Name = 
REMARK  2 active torsions:
REMARK  status: ('A' for Active; 'I' for Inactive)
REMARK    1  A    between atoms: C_2  and  C_3
REMARK    2  A    between atoms: C_3  and  C_4
REMARK                            x       y       z     vdW  Elec       q    Type
REMARK                         _______ _______ _______ _____ _____    ______ ____
ROOT
ATOM      1  O   UNL     1       1.600  12.236  20.021  0.00  0.00    +0.000 OA
ATOM      2  C   UNL     1       0.983  11.922  19.002  0.00  0.00    +0.000 C 
ATOM      3  N   UNL     1      -0.110  12.662  18.535  0.00  0.00    +0.000 N 
ATOM      4  C   UNL     1      -0.457  13.865  19.295  0.00  0.00    +0.000 C 
ATOM      5  C   UNL     1      -1.058  13.580  20.654  0.00  0.00    +0.000 A 
ATOM      6  N   UNL     1      -0.420  14.156  21.711  0.00  0.00    +0.000 NA
ATOM      7  C   UNL     1      -0.830  13.809  22.942  0.00  0.00    +0.000 A 
ATOM      8  C   UNL     1      -1.882  12.947  23.174  0.00  0.00    +0.000 A 
ATOM      9  C   UNL     1      -2.582  12.441  22.078  0.00  0.00    +0.000 A 
ATOM     10  C   UNL     1      -2.187  12.750  20.774  0.00  0.00    +0.000 A 
ATOM     11  N   UNL     1      -2.836  12.231  19.681  0.00  0.00    +0.000 N 
ATOM     12  C   UNL     1      -4.267  12.331  19.455  0.00  0.00    +0.000 C 
ATOM     13  C   UNL     1      -4.466  11.626  18.114  0.00  0.00    +0.000 C 
ATOM     14  C   UNL     1      -3.336  10.606  18.055  0.00  0.00    +0.000 C 
ATOM     15  C   UNL     1      -2.170  11.285  18.784  0.00  0.00    +0.000 C 
ATOM     16  C   UNL     1      -1.226  12.025  17.818  0.00  0.00    +0.000 C 
ENDROOT
BRANCH   2  17
ATOM     17  C   UNL     1       1.362  10.702  18.174  0.00  0.00    +0.000 C 
BRANCH  17  18
ATOM     18  C   UNL     1       1.491   9.379  18.897  0.00  0.00    +0.000 A 
ATOM     19  C   UNL     1       1.008   9.179  20.199  0.00  0.00    +0.000 A 
ATOM     20  C   UNL     1       1.232   7.989  20.897  0.00  0.00    +0.000 A 
ATOM     21  C   UNL     1       1.997   7.015  20.258  0.00  0.00    +0.000 A 
ATOM     22  N   UNL     1       2.418   5.777  20.663  0.00  0.00    +0.000 N 
ATOM     23  N   UNL     1       3.179   5.132  19.759  0.00  0.00    +0.000 NA
ATOM     24  C   UNL     1       3.229   5.986  18.733  0.00  0.00    +0.000 A 
ATOM     25  C   UNL     1       2.509   7.175  18.978  0.00  0.00    +0.000 A 
ATOM     26  C   UNL     1       2.249   8.365  18.279  0.00  0.00    +0.000 A 
ATOM     27  H   UNL     1       2.230   5.322  21.548  0.00  0.00    +0.000 HD
ENDBRANCH  17  18
ENDBRANCH   2  17
TORSDOF 2
ENDMDL
