MODEL 1
REMARK VINA RESULT:      -8.5      0.000      0.000
REMARK  Name = 
REMARK  6 active torsions:
REMARK  status: ('A' for Active; 'I' for Inactive)
REMARK    1  A    between atoms: C_2  and  C_3
REMARK    2  A    between atoms: C_3  and  C_4
REMARK    3  A    between atoms: C_7  and  N_8
REMARK    4  A    between atoms: N_16  and  C_17
REMARK    5  A    between atoms: C_22  and  O_23
REMARK    6  A    between atoms: O_23  and  C_24
REMARK                            x       y       z     vdW  Elec       q    Type
REMARK                         _______ _______ _______ _____ _____    ______ ____
ROOT
ATOM      1  O   UNL     1       3.994   6.534  19.162  0.00  0.00    +0.000 OA
ATOM      2  C   UNL     1       3.012   6.704  18.441  0.00  0.00    +0.000 C 
ATOM      3  N   UNL     1       2.115   5.718  18.040  0.00  0.00    +0.000 N 
ATOM      4  H   UNL     1       1.544   5.894  17.218  0.00  0.00    +0.000 HD
ENDROOT
BRANCH   3   5
ATOM      5  C   UNL     1       2.053   4.393  18.561  0.00  0.00    +0.000 A 
ATOM      6  C   UNL     1       1.257   4.097  19.679  0.00  0.00    +0.000 A 
ATOM      7  C   UNL     1       1.200   2.808  20.214  0.00  0.00    +0.000 A 
ATOM      8  C   UNL     1       1.968   1.797  19.669  0.00  0.00    +0.000 A 
ATOM      9  C   UNL     1       2.768   2.067  18.559  0.00  0.00    +0.000 A 
ATOM     10  C   UNL     1       2.757   3.336  17.946  0.00  0.00    +0.000 A 
BRANCH  10  11
ATOM     11  O   UNL     1       3.447   3.579  16.764  0.00  0.00    +0.000 OA
BRANCH  11  12
ATOM     12  C   UNL     1       4.700   4.167  16.848  0.00  0.00    +0.000 A 
ATOM     13  C   UNL     1       5.571   3.955  17.925  0.00  0.00    +0.000 A 
ATOM     14  C   UNL     1       6.769   4.667  18.017  0.00  0.00    +0.000 A 
ATOM     15  C   UNL     1       7.138   5.541  16.996  0.00  0.00    +0.000 A 
ATOM     16  C   UNL     1       6.312   5.695  15.882  0.00  0.00    +0.000 A 
ATOM     17  C   UNL     1       5.094   5.010  15.805  0.00  0.00    +0.000 A 
ENDBRANCH  11  12
ENDBRANCH  10  11
ENDBRANCH   3   5
BRANCH   2  18
ATOM     18  C   UNL     1       2.685   8.097  17.936  0.00  0.00    +0.000 C 
BRANCH  18  19
ATOM     19  C   UNL     1       1.798   8.906  18.851  0.00  0.00    +0.000 A 
ATOM     20  C   UNL     1       1.329  10.155  18.435  0.00  0.00    +0.000 A 
ATOM     21  C   UNL     1       0.452  10.895  19.230  0.00  0.00    +0.000 A 
ATOM     22  C   UNL     1       0.024  10.427  20.481  0.00  0.00    +0.000 A 
ATOM     23  C   UNL     1       0.494   9.170  20.892  0.00  0.00    +0.000 A 
ATOM     24  C   UNL     1       1.358   8.415  20.085  0.00  0.00    +0.000 A 
BRANCH  22  25
ATOM     25  N   UNL     1      -0.840  11.200  21.306  0.00  0.00    +0.000 N 
ATOM     26  C   UNL     1      -1.886  12.037  20.764  0.00  0.00    +0.000 C 
ATOM     27  C   UNL     1      -2.411  12.818  21.951  0.00  0.00    +0.000 C 
ATOM     28  C   UNL     1      -2.160  11.900  23.129  0.00  0.00    +0.000 C 
ATOM     29  C   UNL     1      -0.958  11.099  22.702  0.00  0.00    +0.000 C 
ATOM     30  O   UNL     1      -0.273  10.470  23.498  0.00  0.00    +0.000 OA
ENDBRANCH  22  25
ENDBRANCH  18  19
ENDBRANCH   2  18
TORSDOF 6
ENDMDL
MODEL 2
REMARK VINA RESULT:      -8.3      2.751      9.074
REMARK  Name = 
REMARK  6 active torsions:
REMARK  status: ('A' for Active; 'I' for Inactive)
REMARK    1  A    between atoms: C_2  and  C_3
REMARK    2  A    between atoms: C_3  and  C_4
REMARK    3  A    between atoms: C_7  and  N_8
REMARK    4  A    between atoms: N_16  and  C_17
REMARK    5  A    between atoms: C_22  and  O_23
REMARK    6  A    between atoms: O_23  and  C_24
REMARK                            x       y       z     vdW  Elec       q    Type
REMARK                         _______ _______ _______ _____ _____    ______ ____
ROOT
ATOM      1  O   UNL     1       1.565   9.566  21.672  0.00  0.00    +0.000 OA
ATOM      2  C   UNL     1       1.087   8.939  20.729  0.00  0.00    +0.000 C 
ATOM      3  N   UNL     1       0.549   9.492  19.569  0.00  0.00    +0.000 N 
ATOM      4  H   UNL     1      -0.085   8.924  19.016  0.00  0.00    +0.000 HD
ENDROOT
BRANCH   3   5
ATOM      5  C   UNL     1       0.652  10.859  19.181  0.00  0.00    +0.000 A 
ATOM      6  C   UNL     1       1.904  11.443  18.931  0.00  0.00    +0.000 A 
ATOM      7  C   UNL     1       2.024  12.786  18.567  0.00  0.00    +0.000 A 
ATOM      8  C   UNL     1       0.899  13.585  18.485  0.00  0.00    +0.000 A 
ATOM      9  C   UNL     1      -0.357  13.027  18.730  0.00  0.00    +0.000 A 
ATOM     10  C   UNL     1      -0.501  11.651  18.997  0.00  0.00    +0.000 A 
BRANCH  10  11
ATOM     11  O   UNL     1      -1.754  11.060  19.111  0.00  0.00    +0.000 OA
BRANCH  11  12
ATOM     12  C   UNL     1      -2.481  10.839  17.950  0.00  0.00    +0.000 A 
ATOM     13  C   UNL     1      -2.056   9.967  16.940  0.00  0.00    +0.000 A 
ATOM     14  C   UNL     1      -2.766   9.875  15.740  0.00  0.00    +0.000 A 
ATOM     15  C   UNL     1      -3.944  10.601  15.572  0.00  0.00    +0.000 A 
ATOM     16  C   UNL     1      -4.415  11.409  16.608  0.00  0.00    +0.000 A 
ATOM     17  C   UNL     1      -3.686  11.530  17.797  0.00  0.00    +0.000 A 
ENDBRANCH  11  12
ENDBRANCH  10  11
ENDBRANCH   3   5
BRANCH   2  18
ATOM     18  C   UNL     1       1.079   7.422  20.765  0.00  0.00    +0.000 C 
BRANCH  18  19
ATOM     19  C   UNL     1       2.127   6.766  19.899  0.00  0.00    +0.000 A 
ATOM     20  C   UNL     1       2.542   7.392  18.720  0.00  0.00    +0.000 A 
ATOM     21  C   UNL     1       3.559   6.845  17.935  0.00  0.00    +0.000 A 
ATOM     22  C   UNL     1       4.187   5.640  18.284  0.00  0.00    +0.000 A 
ATOM     23  C   UNL     1       3.769   5.018  19.470  0.00  0.00    +0.000 A 
ATOM     24  C   UNL     1       2.763   5.577  20.273  0.00  0.00    +0.000 A 
BRANCH  22  25
ATOM     25  N   UNL     1       5.196   5.065  17.462  0.00  0.00    +0.000 N 
ATOM     26  C   UNL     1       5.014   4.856  16.044  0.00  0.00    +0.000 C 
ATOM     27  C   UNL     1       6.223   4.051  15.613  0.00  0.00    +0.000 C 
ATOM     28  C   UNL     1       7.303   4.467  16.591  0.00  0.00    +0.000 C 
ATOM     29  C   UNL     1       6.531   4.837  17.831  0.00  0.00    +0.000 C 
ATOM     30  O   UNL     1       7.063   4.932  18.930  0.00  0.00    +0.000 OA
ENDBRANCH  22  25
ENDBRANCH  18  19
ENDBRANCH   2  18
TORSDOF 6
ENDMDL
MODEL 3
REMARK VINA RESULT:      -8.3      0.496      1.293
REMARK  Name = 
REMARK  6 active torsions:
REMARK  status: ('A' for Active; 'I' for Inactive)
REMARK    1  A    between atoms: C_2  and  C_3
REMARK    2  A    between atoms: C_3  and  C_4
REMARK    3  A    between atoms: C_7  and  N_8
REMARK    4  A    between atoms: N_16  and  C_17
REMARK    5  A    between atoms: C_22  and  O_23
REMARK    6  A    between atoms: O_23  and  C_24
REMARK                            x       y       z     vdW  Elec       q    Type
REMARK                         _______ _______ _______ _____ _____    ______ ____
ROOT
ATOM      1  O   UNL     1       3.407   6.787  19.578  0.00  0.00    +0.000 OA
ATOM      2  C   UNL     1       2.702   6.862  18.573  0.00  0.00    +0.000 C 
ATOM      3  N   UNL     1       2.114   5.789  17.908  0.00  0.00    +0.000 N 
ATOM      4  H   UNL     1       1.827   5.922  16.942  0.00  0.00    +0.000 HD
ENDROOT
BRANCH   3   5
ATOM      5  C   UNL     1       2.049   4.450  18.392  0.00  0.00    +0.000 A 
ATOM      6  C   UNL     1       1.257   4.127  19.505  0.00  0.00    +0.000 A 
ATOM      7  C   UNL     1       1.197   2.824  20.004  0.00  0.00    +0.000 A 
ATOM      8  C   UNL     1       1.957   1.824  19.426  0.00  0.00    +0.000 A 
ATOM      9  C   UNL     1       2.752   2.122  18.319  0.00  0.00    +0.000 A 
ATOM     10  C   UNL     1       2.744   3.408  17.743  0.00  0.00    +0.000 A 
BRANCH  10  11
ATOM     11  O   UNL     1       3.428   3.682  16.564  0.00  0.00    +0.000 OA
BRANCH  11  12
ATOM     12  C   UNL     1       4.761   4.055  16.654  0.00  0.00    +0.000 A 
ATOM     13  C   UNL     1       5.602   4.153  15.537  0.00  0.00    +0.000 A 
ATOM     14  C   UNL     1       6.965   4.415  15.699  0.00  0.00    +0.000 A 
ATOM     15  C   UNL     1       7.481   4.651  16.972  0.00  0.00    +0.000 A 
ATOM     16  C   UNL     1       6.632   4.635  18.079  0.00  0.00    +0.000 A 
ATOM     17  C   UNL     1       5.273   4.337  17.923  0.00  0.00    +0.000 A 
ENDBRANCH  11  12
ENDBRANCH  10  11
ENDBRANCH   3   5
BRANCH   2  18
ATOM     18  C   UNL     1       2.390   8.221  17.976  0.00  0.00    +0.000 C 
BRANCH  18  19
ATOM     19  C   UNL     1       1.478   9.083  18.816  0.00  0.00    +0.000 A 
ATOM     20  C   UNL     1       0.888   8.551  19.965  0.00  0.00    +0.000 A 
ATOM     21  C   UNL     1       0.096   9.343  20.799  0.00  0.00    +0.000 A 
ATOM     22  C   UNL     1      -0.155  10.692  20.508  0.00  0.00    +0.000 A 
ATOM     23  C   UNL     1       0.443  11.222  19.354  0.00  0.00    +0.000 A 
ATOM     24  C   UNL     1       1.258  10.434  18.527  0.00  0.00    +0.000 A 
BRANCH  22  25
ATOM     25  N   UNL     1      -0.993  11.487  21.339  0.00  0.00    +0.000 N 
ATOM     26  C   UNL     1      -2.004  12.370  20.801  0.00  0.00    +0.000 C 
ATOM     27  C   UNL     1      -2.505  13.156  21.995  0.00  0.00    +0.000 C 
ATOM     28  C   UNL     1      -2.295  12.215  23.163  0.00  0.00    +0.000 C 
ATOM     29  C   UNL     1      -1.122  11.374  22.732  0.00  0.00    +0.000 C 
ATOM     30  O   UNL     1      -0.465  10.710  23.524  0.00  0.00    +0.000 OA
ENDBRANCH  22  25
ENDBRANCH  18  19
ENDBRANCH   2  18
TORSDOF 6
ENDMDL
MODEL 4
REMARK VINA RESULT:      -8.3      2.587      9.116
REMARK  Name = 
REMARK  6 active torsions:
REMARK  status: ('A' for Active; 'I' for Inactive)
REMARK    1  A    between atoms: C_2  and  C_3
REMARK    2  A    between atoms: C_3  and  C_4
REMARK    3  A    between atoms: C_7  and  N_8
REMARK    4  A    between atoms: N_16  and  C_17
REMARK    5  A    between atoms: C_22  and  O_23
REMARK    6  A    between atoms: O_23  and  C_24
REMARK                            x       y       z     vdW  Elec       q    Type
REMARK                         _______ _______ _______ _____ _____    ______ ____
ROOT
ATOM      1  O   UNL     1       1.466  10.081  21.977  0.00  0.00    +0.000 OA
ATOM      2  C   UNL     1       1.017   9.428  21.038  0.00  0.00    +0.000 C 
ATOM      3  N   UNL     1       0.423   9.950  19.891  0.00  0.00    +0.000 N 
ATOM      4  H   UNL     1      -0.180   9.342  19.344  0.00  0.00    +0.000 HD
ENDROOT
BRANCH   3   5
ATOM      5  C   UNL     1       0.424  11.323  19.511  0.00  0.00    +0.000 A 
ATOM      6  C   UNL     1       1.630  12.022  19.347  0.00  0.00    +0.000 A 
ATOM      7  C   UNL     1       1.649  13.373  18.992  0.00  0.00    +0.000 A 
ATOM      8  C   UNL     1       0.463  14.064  18.835  0.00  0.00    +0.000 A 
ATOM      9  C   UNL     1      -0.749  13.391  18.994  0.00  0.00    +0.000 A 
ATOM     10  C   UNL     1      -0.783  12.006  19.250  0.00  0.00    +0.000 A 
BRANCH  10  11
ATOM     11  O   UNL     1      -1.981  11.300  19.279  0.00  0.00    +0.000 OA
BRANCH  11  12
ATOM     12  C   UNL     1      -2.577  10.975  18.069  0.00  0.00    +0.000 A 
ATOM     13  C   UNL     1      -1.995  10.098  17.144  0.00  0.00    +0.000 A 
ATOM     14  C   UNL     1      -2.580   9.902  15.891  0.00  0.00    +0.000 A 
ATOM     15  C   UNL     1      -3.789  10.524  15.583  0.00  0.00    +0.000 A 
ATOM     16  C   UNL     1      -4.414  11.335  16.532  0.00  0.00    +0.000 A 
ATOM     17  C   UNL     1      -3.810  11.561  17.774  0.00  0.00    +0.000 A 
ENDBRANCH  11  12
ENDBRANCH  10  11
ENDBRANCH   3   5
BRANCH   2  18
ATOM     18  C   UNL     1       1.114   7.913  21.063  0.00  0.00    +0.000 C 
BRANCH  18  19
ATOM     19  C   UNL     1       2.014   7.324  20.004  0.00  0.00    +0.000 A 
ATOM     20  C   UNL     1       2.561   6.051  20.189  0.00  0.00    +0.000 A 
ATOM     21  C   UNL     1       3.339   5.451  19.198  0.00  0.00    +0.000 A 
ATOM     22  C   UNL     1       3.621   6.106  17.989  0.00  0.00    +0.000 A 
ATOM     23  C   UNL     1       3.066   7.382  17.806  0.00  0.00    +0.000 A 
ATOM     24  C   UNL     1       2.264   7.978  18.792  0.00  0.00    +0.000 A 
BRANCH  22  25
ATOM     25  N   UNL     1       4.446   5.509  16.996  0.00  0.00    +0.000 N 
ATOM     26  C   UNL     1       5.510   6.230  16.337  0.00  0.00    +0.000 C 
ATOM     27  C   UNL     1       5.981   5.303  15.235  0.00  0.00    +0.000 C 
ATOM     28  C   UNL     1       5.685   3.919  15.775  0.00  0.00    +0.000 C 
ATOM     29  C   UNL     1       4.505   4.141  16.684  0.00  0.00    +0.000 C 
ATOM     30  O   UNL     1       3.789   3.223  17.066  0.00  0.00    +0.000 OA
ENDBRANCH  22  25
ENDBRANCH  18  19
ENDBRANCH   2  18
TORSDOF 6
ENDMDL
MODEL 5
REMARK VINA RESULT:      -8.3      0.781      1.148
REMARK  Name = 
REMARK  6 active torsions:
REMARK  status: ('A' for Active; 'I' for Inactive)
REMARK    1  A    between atoms: C_2  and  C_3
REMARK    2  A    between atoms: C_3  and  C_4
REMARK    3  A    between atoms: C_7  and  N_8
REMARK    4  A    between atoms: N_16  and  C_17
REMARK    5  A    between atoms: C_22  and  O_23
REMARK    6  A    between atoms: O_23  and  C_24
REMARK                            x       y       z     vdW  Elec       q    Type
REMARK                         _______ _______ _______ _____ _____    ______ ____
ROOT
ATOM      1  O   UNL     1       4.122   7.044  18.633  0.00  0.00    +0.000 OA
ATOM      2  C   UNL     1       2.945   6.949  18.293  0.00  0.00    +0.000 C 
ATOM      3  N   UNL     1       2.141   5.821  18.440  0.00  0.00    +0.000 N 
ATOM      4  H   UNL     1       1.312   5.744  17.858  0.00  0.00    +0.000 HD
ENDROOT
BRANCH   3   5
ATOM      5  C   UNL     1       2.475   4.660  19.195  0.00  0.00    +0.000 A 
ATOM      6  C   UNL     1       2.067   4.531  20.533  0.00  0.00    +0.000 A 
ATOM      7  C   UNL     1       2.401   3.408  21.293  0.00  0.00    +0.000 A 
ATOM      8  C   UNL     1       3.185   2.410  20.746  0.00  0.00    +0.000 A 
ATOM      9  C   UNL     1       3.603   2.516  19.420  0.00  0.00    +0.000 A 
ATOM     10  C   UNL     1       3.188   3.592  18.611  0.00  0.00    +0.000 A 
BRANCH  10  11
ATOM     11  O   UNL     1       3.489   3.641  17.254  0.00  0.00    +0.000 OA
BRANCH  11  12
ATOM     12  C   UNL     1       4.762   4.046  16.881  0.00  0.00    +0.000 A 
ATOM     13  C   UNL     1       5.151   4.203  15.544  0.00  0.00    +0.000 A 
ATOM     14  C   UNL     1       6.479   4.495  15.224  0.00  0.00    +0.000 A 
ATOM     15  C   UNL     1       7.409   4.705  16.240  0.00  0.00    +0.000 A 
ATOM     16  C   UNL     1       7.008   4.630  17.575  0.00  0.00    +0.000 A 
ATOM     17  C   UNL     1       5.686   4.302  17.897  0.00  0.00    +0.000 A 
ENDBRANCH  11  12
ENDBRANCH  10  11
ENDBRANCH   3   5
BRANCH   2  18
ATOM     18  C   UNL     1       2.244   8.146  17.678  0.00  0.00    +0.000 C 
BRANCH  18  19
ATOM     19  C   UNL     1       1.443   8.975  18.652  0.00  0.00    +0.000 A 
ATOM     20  C   UNL     1       0.655  10.029  18.181  0.00  0.00    +0.000 A 
ATOM     21  C   UNL     1      -0.150  10.769  19.049  0.00  0.00    +0.000 A 
ATOM     22  C   UNL     1      -0.184  10.501  20.426  0.00  0.00    +0.000 A 
ATOM     23  C   UNL     1       0.606   9.440  20.893  0.00  0.00    +0.000 A 
ATOM     24  C   UNL     1       1.398   8.680  20.019  0.00  0.00    +0.000 A 
BRANCH  22  25
ATOM     25  N   UNL     1      -0.975  11.282  21.314  0.00  0.00    +0.000 N 
ATOM     26  C   UNL     1      -2.026  12.158  20.849  0.00  0.00    +0.000 C 
ATOM     27  C   UNL     1      -2.458  12.930  22.079  0.00  0.00    +0.000 C 
ATOM     28  C   UNL     1      -2.166  11.982  23.223  0.00  0.00    +0.000 C 
ATOM     29  C   UNL     1      -1.014  11.156  22.712  0.00  0.00    +0.000 C 
ATOM     30  O   UNL     1      -0.303  10.492  23.455  0.00  0.00    +0.000 OA
ENDBRANCH  22  25
ENDBRANCH  18  19
ENDBRANCH   2  18
TORSDOF 6
ENDMDL
MODEL 6
REMARK VINA RESULT:      -8.2      0.996      1.498
REMARK  Name = 
REMARK  6 active torsions:
REMARK  status: ('A' for Active; 'I' for Inactive)
REMARK    1  A    between atoms: C_2  and  C_3
REMARK    2  A    between atoms: C_3  and  C_4
REMARK    3  A    between atoms: C_7  and  N_8
REMARK    4  A    between atoms: N_16  and  C_17
REMARK    5  A    between atoms: C_22  and  O_23
REMARK    6  A    between atoms: O_23  and  C_24
REMARK                            x       y       z     vdW  Elec       q    Type
REMARK                         _______ _______ _______ _____ _____    ______ ____
ROOT
ATOM      1  O   UNL     1       3.691   6.718  19.379  0.00  0.00    +0.000 OA
ATOM      2  C   UNL     1       2.802   6.836  18.538  0.00  0.00    +0.000 C 
ATOM      3  N   UNL     1       2.022   5.802  18.026  0.00  0.00    +0.000 N 
ATOM      4  H   UNL     1       1.553   5.950  17.137  0.00  0.00    +0.000 HD
ENDROOT
BRANCH   3   5
ATOM      5  C   UNL     1       1.971   4.473  18.537  0.00  0.00    +0.000 A 
ATOM      6  C   UNL     1       1.226   4.175  19.689  0.00  0.00    +0.000 A 
ATOM      7  C   UNL     1       1.180   2.881  20.214  0.00  0.00    +0.000 A 
ATOM      8  C   UNL     1       1.909   1.867  19.622  0.00  0.00    +0.000 A 
ATOM      9  C   UNL     1       2.657   2.139  18.477  0.00  0.00    +0.000 A 
ATOM     10  C   UNL     1       2.631   3.415  17.878  0.00  0.00    +0.000 A 
BRANCH  10  11
ATOM     11  O   UNL     1       3.265   3.662  16.665  0.00  0.00    +0.000 OA
BRANCH  11  12
ATOM     12  C   UNL     1       4.597   4.051  16.692  0.00  0.00    +0.000 A 
ATOM     13  C   UNL     1       5.335   4.319  15.532  0.00  0.00    +0.000 A 
ATOM     14  C   UNL     1       6.704   4.588  15.611  0.00  0.00    +0.000 A 
ATOM     15  C   UNL     1       7.326   4.662  16.856  0.00  0.00    +0.000 A 
ATOM     16  C   UNL     1       6.578   4.476  18.019  0.00  0.00    +0.000 A 
ATOM     17  C   UNL     1       5.214   4.170  17.939  0.00  0.00    +0.000 A 
ENDBRANCH  11  12
ENDBRANCH  10  11
ENDBRANCH   3   5
BRANCH   2  18
ATOM     18  C   UNL     1       2.463   8.211  17.993  0.00  0.00    +0.000 C 
BRANCH  18  19
ATOM     19  C   UNL     1       1.551   9.029  18.874  0.00  0.00    +0.000 A 
ATOM     20  C   UNL     1       1.034  10.239  18.402  0.00  0.00    +0.000 A 
ATOM     21  C   UNL     1       0.133  10.983  19.166  0.00  0.00    +0.000 A 
ATOM     22  C   UNL     1      -0.272  10.560  20.441  0.00  0.00    +0.000 A 
ATOM     23  C   UNL     1       0.247   9.343  20.908  0.00  0.00    +0.000 A 
ATOM     24  C   UNL     1       1.135   8.582  20.133  0.00  0.00    +0.000 A 
BRANCH  22  25
ATOM     25  N   UNL     1      -1.160  11.339  21.234  0.00  0.00    +0.000 N 
ATOM     26  C   UNL     1      -1.010  11.468  22.665  0.00  0.00    +0.000 C 
ATOM     27  C   UNL     1      -2.258  12.197  23.120  0.00  0.00    +0.000 C 
ATOM     28  C   UNL     1      -2.649  13.033  21.920  0.00  0.00    +0.000 C 
ATOM     29  C   UNL     1      -2.125  12.238  20.752  0.00  0.00    +0.000 C 
ATOM     30  O   UNL     1      -2.507  12.430  19.604  0.00  0.00    +0.000 OA
ENDBRANCH  22  25
ENDBRANCH  18  19
ENDBRANCH   2  18
TORSDOF 6
ENDMDL
MODEL 7
REMARK VINA RESULT:      -8.2      3.478      9.749
REMARK  Name = 
REMARK  6 active torsions:
REMARK  status: ('A' for Active; 'I' for Inactive)
REMARK    1  A    between atoms: C_2  and  C_3
REMARK    2  A    between atoms: C_3  and  C_4
REMARK    3  A    between atoms: C_7  and  N_8
REMARK    4  A    between atoms: N_16  and  C_17
REMARK    5  A    between atoms: C_22  and  O_23
REMARK    6  A    between atoms: O_23  and  C_24
REMARK                            x       y       z     vdW  Elec       q    Type
REMARK                         _______ _______ _______ _____ _____    ______ ____
ROOT
ATOM      1  O   UNL     1      -0.185  12.138  18.485  0.00  0.00    +0.000 OA
ATOM      2  C   UNL     1      -0.427  11.021  18.936  0.00  0.00    +0.000 C 
ATOM      3  N   UNL     1      -1.508  10.215  18.584  0.00  0.00    +0.000 N 
ATOM      4  H   UNL     1      -1.783   9.476  19.224  0.00  0.00    +0.000 HD
ENDROOT
BRANCH   3   5
ATOM      5  C   UNL     1      -2.395  10.451  17.495  0.00  0.00    +0.000 A 
ATOM      6  C   UNL     1      -2.218   9.791  16.268  0.00  0.00    +0.000 A 
ATOM      7  C   UNL     1      -3.068  10.025  15.184  0.00  0.00    +0.000 A 
ATOM      8  C   UNL     1      -4.087  10.952  15.290  0.00  0.00    +0.000 A 
ATOM      9  C   UNL     1      -4.282  11.621  16.499  0.00  0.00    +0.000 A 
ATOM     10  C   UNL     1      -3.498  11.320  17.631  0.00  0.00    +0.000 A 
BRANCH  10  11
ATOM     11  O   UNL     1      -3.768  11.883  18.873  0.00  0.00    +0.000 OA
BRANCH  11  12
ATOM     12  C   UNL     1      -5.033  11.699  19.412  0.00  0.00    +0.000 A 
ATOM     13  C   UNL     1      -5.531  12.473  20.469  0.00  0.00    +0.000 A 
ATOM     14  C   UNL     1      -6.763  12.164  21.052  0.00  0.00    +0.000 A 
ATOM     15  C   UNL     1      -7.536  11.126  20.535  0.00  0.00    +0.000 A 
ATOM     16  C   UNL     1      -7.081  10.405  19.431  0.00  0.00    +0.000 A 
ATOM     17  C   UNL     1      -5.831  10.689  18.868  0.00  0.00    +0.000 A 
ENDBRANCH  11  12
ENDBRANCH  10  11
ENDBRANCH   3   5
BRANCH   2  18
ATOM     18  C   UNL     1       0.516  10.401  19.950  0.00  0.00    +0.000 C 
BRANCH  18  19
ATOM     19  C   UNL     1       1.270   9.192  19.452  0.00  0.00    +0.000 A 
ATOM     20  C   UNL     1       1.775   9.179  18.149  0.00  0.00    +0.000 A 
ATOM     21  C   UNL     1       2.536   8.105  17.683  0.00  0.00    +0.000 A 
ATOM     22  C   UNL     1       2.804   6.990  18.492  0.00  0.00    +0.000 A 
ATOM     23  C   UNL     1       2.297   7.010  19.801  0.00  0.00    +0.000 A 
ATOM     24  C   UNL     1       1.552   8.099  20.279  0.00  0.00    +0.000 A 
BRANCH  22  25
ATOM     25  N   UNL     1       3.547   5.879  18.003  0.00  0.00    +0.000 N 
ATOM     26  C   UNL     1       2.977   4.556  17.890  0.00  0.00    +0.000 C 
ATOM     27  C   UNL     1       4.145   3.661  17.532  0.00  0.00    +0.000 C 
ATOM     28  C   UNL     1       5.091   4.580  16.787  0.00  0.00    +0.000 C 
ATOM     29  C   UNL     1       4.800   5.937  17.374  0.00  0.00    +0.000 C 
ATOM     30  O   UNL     1       5.567   6.883  17.248  0.00  0.00    +0.000 OA
ENDBRANCH  22  25
ENDBRANCH  18  19
ENDBRANCH   2  18
TORSDOF 6
ENDMDL
MODEL 8
REMARK VINA RESULT:      -8.2      2.019      4.183
REMARK  Name = 
REMARK  6 active torsions:
REMARK  status: ('A' for Active; 'I' for Inactive)
REMARK    1  A    between atoms: C_2  and  C_3
REMARK    2  A    between atoms: C_3  and  C_4
REMARK    3  A    between atoms: C_7  and  N_8
REMARK    4  A    between atoms: N_16  and  C_17
REMARK    5  A    between atoms: C_22  and  O_23
REMARK    6  A    between atoms: O_23  and  C_24
REMARK                            x       y       z     vdW  Elec       q    Type
REMARK                         _______ _______ _______ _____ _____    ______ ____
ROOT
ATOM      1  O   UNL     1       2.236   5.760  17.988  0.00  0.00    +0.000 OA
ATOM      2  C   UNL     1       2.717   6.147  19.051  0.00  0.00    +0.000 C 
ATOM      3  N   UNL     1       4.062   6.091  19.407  0.00  0.00    +0.000 N 
ATOM      4  H   UNL     1       4.300   6.139  20.394  0.00  0.00    +0.000 HD
ENDROOT
BRANCH   3   5
ATOM      5  C   UNL     1       5.138   5.775  18.528  0.00  0.00    +0.000 A 
ATOM      6  C   UNL     1       5.678   6.750  17.674  0.00  0.00    +0.000 A 
ATOM      7  C   UNL     1       6.720   6.453  16.793  0.00  0.00    +0.000 A 
ATOM      8  C   UNL     1       7.217   5.166  16.717  0.00  0.00    +0.000 A 
ATOM      9  C   UNL     1       6.697   4.180  17.555  0.00  0.00    +0.000 A 
ATOM     10  C   UNL     1       5.717   4.489  18.520  0.00  0.00    +0.000 A 
BRANCH  10  11
ATOM     11  O   UNL     1       5.287   3.546  19.447  0.00  0.00    +0.000 OA
BRANCH  11  12
ATOM     12  C   UNL     1       4.028   2.988  19.275  0.00  0.00    +0.000 A 
ATOM     13  C   UNL     1       3.540   2.580  18.027  0.00  0.00    +0.000 A 
ATOM     14  C   UNL     1       2.222   2.138  17.894  0.00  0.00    +0.000 A 
ATOM     15  C   UNL     1       1.407   2.032  19.020  0.00  0.00    +0.000 A 
ATOM     16  C   UNL     1       1.915   2.360  20.277  0.00  0.00    +0.000 A 
ATOM     17  C   UNL     1       3.224   2.837  20.408  0.00  0.00    +0.000 A 
ENDBRANCH  11  12
ENDBRANCH  10  11
ENDBRANCH   3   5
BRANCH   2  18
ATOM     18  C   UNL     1       1.814   6.776  20.097  0.00  0.00    +0.000 C 
BRANCH  18  19
ATOM     19  C   UNL     1       1.569   8.253  19.910  0.00  0.00    +0.000 A 
ATOM     20  C   UNL     1       1.792   8.840  18.661  0.00  0.00    +0.000 A 
ATOM     21  C   UNL     1       1.509  10.189  18.439  0.00  0.00    +0.000 A 
ATOM     22  C   UNL     1       1.010  11.011  19.461  0.00  0.00    +0.000 A 
ATOM     23  C   UNL     1       0.784  10.416  20.712  0.00  0.00    +0.000 A 
ATOM     24  C   UNL     1       1.047   9.056  20.931  0.00  0.00    +0.000 A 
BRANCH  22  25
ATOM     25  N   UNL     1       0.758  12.395  19.243  0.00  0.00    +0.000 N 
ATOM     26  C   UNL     1       1.795  13.318  18.844  0.00  0.00    +0.000 C 
ATOM     27  C   UNL     1       1.149  14.685  18.926  0.00  0.00    +0.000 C 
ATOM     28  C   UNL     1      -0.317  14.410  18.663  0.00  0.00    +0.000 C 
ATOM     29  C   UNL     1      -0.506  13.001  19.161  0.00  0.00    +0.000 C 
ATOM     30  O   UNL     1      -1.612  12.532  19.397  0.00  0.00    +0.000 OA
ENDBRANCH  22  25
ENDBRANCH  18  19
ENDBRANCH   2  18
TORSDOF 6
ENDMDL
MODEL 9
REMARK VINA RESULT:      -8.2      2.874      3.587
REMARK  Name = 
REMARK  6 active torsions:
REMARK  status: ('A' for Active; 'I' for Inactive)
REMARK    1  A    between atoms: C_2  and  C_3
REMARK    2  A    between atoms: C_3  and  C_4
REMARK    3  A    between atoms: C_7  and  N_8
REMARK    4  A    between atoms: N_16  and  C_17
REMARK    5  A    between atoms: C_22  and  O_23
REMARK    6  A    between atoms: O_23  and  C_24
REMARK                            x       y       z     vdW  Elec       q    Type
REMARK                         _______ _______ _______ _____ _____    ______ ____
ROOT
ATOM      1  O   UNL     1       1.060   8.129  21.198  0.00  0.00    +0.000 OA
ATOM      2  C   UNL     1       1.603   8.252  20.102  0.00  0.00    +0.000 C 
ATOM      3  N   UNL     1       2.303   7.258  19.422  0.00  0.00    +0.000 N 
ATOM      4  H   UNL     1       2.960   7.542  18.701  0.00  0.00    +0.000 HD
ENDROOT
BRANCH   3   5
ATOM      5  C   UNL     1       2.332   5.878  19.775  0.00  0.00    +0.000 A 
ATOM      6  C   UNL     1       1.153   5.200  20.123  0.00  0.00    +0.000 A 
ATOM      7  C   UNL     1       1.166   3.853  20.489  0.00  0.00    +0.000 A 
ATOM      8  C   UNL     1       2.363   3.164  20.554  0.00  0.00    +0.000 A 
ATOM      9  C   UNL     1       3.548   3.816  20.214  0.00  0.00    +0.000 A 
ATOM     10  C   UNL     1       3.538   5.145  19.744  0.00  0.00    +0.000 A 
BRANCH  10  11
ATOM     11  O   UNL     1       4.693   5.761  19.278  0.00  0.00    +0.000 OA
BRANCH  11  12
ATOM     12  C   UNL     1       5.266   5.277  18.110  0.00  0.00    +0.000 A 
ATOM     13  C   UNL     1       4.520   4.984  16.961  0.00  0.00    +0.000 A 
ATOM     14  C   UNL     1       5.130   4.385  15.856  0.00  0.00    +0.000 A 
ATOM     15  C   UNL     1       6.502   4.143  15.866  0.00  0.00    +0.000 A 
ATOM     16  C   UNL     1       7.263   4.508  16.977  0.00  0.00    +0.000 A 
ATOM     17  C   UNL     1       6.648   5.075  18.099  0.00  0.00    +0.000 A 
ENDBRANCH  11  12
ENDBRANCH  10  11
ENDBRANCH   3   5
BRANCH   2  18
ATOM     18  C   UNL     1       1.511   9.575  19.363  0.00  0.00    +0.000 C 
BRANCH  18  19
ATOM     19  C   UNL     1       0.105  10.024  19.050  0.00  0.00    +0.000 A 
ATOM     20  C   UNL     1      -0.528  10.952  19.883  0.00  0.00    +0.000 A 
ATOM     21  C   UNL     1      -1.801  11.438  19.581  0.00  0.00    +0.000 A 
ATOM     22  C   UNL     1      -2.503  11.003  18.447  0.00  0.00    +0.000 A 
ATOM     23  C   UNL     1      -1.862  10.074  17.612  0.00  0.00    +0.000 A 
ATOM     24  C   UNL     1      -0.573   9.600  17.902  0.00  0.00    +0.000 A 
BRANCH  22  25
ATOM     25  N   UNL     1      -3.816  11.471  18.161  0.00  0.00    +0.000 N 
ATOM     26  C   UNL     1      -4.641  12.117  19.156  0.00  0.00    +0.000 C 
ATOM     27  C   UNL     1      -5.998  12.261  18.499  0.00  0.00    +0.000 C 
ATOM     28  C   UNL     1      -5.677  12.361  17.022  0.00  0.00    +0.000 C 
ATOM     29  C   UNL     1      -4.394  11.582  16.887  0.00  0.00    +0.000 C 
ATOM     30  O   UNL     1      -3.983  11.180  15.806  0.00  0.00    +0.000 OA
ENDBRANCH  22  25
ENDBRANCH  18  19
ENDBRANCH   2  18
TORSDOF 6
ENDMDL
