MODEL 1
REMARK VINA RESULT:      -8.9      0.000      0.000
REMARK  Name = 
REMARK  8 active torsions:
REMARK  status: ('A' for Active; 'I' for Inactive)
REMARK    1  A    between atoms: C_1  and  C_2
REMARK    2  A    between atoms: C_2  and  C_3
REMARK    3  A    between atoms: C_2  and  C_4
REMARK    4  A    between atoms: C_6  and  C_7
REMARK    5  A    between atoms: N_9  and  C_10
REMARK    6  A    between atoms: C_10  and  C_11
REMARK    7  A    between atoms: C_14  and  C_15
REMARK    8  A    between atoms: C_15  and  N_16
REMARK                            x       y       z     vdW  Elec       q    Type
REMARK                         _______ _______ _______ _____ _____    ______ ____
ROOT
ATOM      1  C   UNL     1       1.778   7.899  19.695  0.00  0.00    +0.000 C 
ATOM      2  O   UNL     1       1.673   7.942  20.917  0.00  0.00    +0.000 OA
ATOM      3  N   UNL     1       1.318   8.904  18.872  0.00  0.00    +0.000 N 
ATOM      4  H   UNL     1       1.630   8.942  17.910  0.00  0.00    +0.000 HD
ENDROOT
BRANCH   1   7
ATOM      5  C   UNL     1       4.205   6.132  17.481  0.00  0.00    +0.000 A 
ATOM      6  C   UNL     1       3.481   7.125  18.121  0.00  0.00    +0.000 A 
ATOM      7  C   UNL     1       2.503   6.761  19.059  0.00  0.00    +0.000 A 
ATOM      8  C   UNL     1       2.287   5.392  19.369  0.00  0.00    +0.000 A 
ATOM      9  C   UNL     1       1.395   4.882  20.349  0.00  0.00    +0.000 A 
ATOM     10  C   UNL     1       1.246   3.510  20.555  0.00  0.00    +0.000 A 
ATOM     11  C   UNL     1       2.003   2.620  19.812  0.00  0.00    +0.000 A 
ATOM     12  C   UNL     1       2.913   3.109  18.876  0.00  0.00    +0.000 A 
ATOM     13  C   UNL     1       3.071   4.467  18.644  0.00  0.00    +0.000 A 
ATOM     14  N   UNL     1       3.987   4.825  17.734  0.00  0.00    +0.000 NA
BRANCH   5  16
ATOM     15  C   UNL     1       6.618   6.743  17.144  0.00  0.00    +0.000 C 
ATOM     16  C   UNL     1       5.274   6.474  16.462  0.00  0.00    +0.000 C 
ATOM     17  C   UNL     1       5.413   5.352  15.429  0.00  0.00    +0.000 C 
ENDBRANCH   5  16
ENDBRANCH   1   7
BRANCH   3  18
ATOM     18  C   UNL     1       0.683  10.080  19.431  0.00  0.00    +0.000 C 
BRANCH  18  19
ATOM     19  C   UNL     1      -0.556  10.457  18.659  0.00  0.00    +0.000 A 
ATOM     20  C   UNL     1      -1.332  11.557  19.044  0.00  0.00    +0.000 A 
ATOM     21  C   UNL     1      -2.511  11.873  18.359  0.00  0.00    +0.000 A 
ATOM     22  C   UNL     1      -2.938  11.096  17.273  0.00  0.00    +0.000 A 
ATOM     23  C   UNL     1      -2.148  10.009  16.872  0.00  0.00    +0.000 A 
ATOM     24  C   UNL     1      -0.975   9.689  17.564  0.00  0.00    +0.000 A 
BRANCH  22  25
ATOM     25  C   UNL     1      -4.237  11.400  16.565  0.00  0.00    +0.000 C 
BRANCH  25  26
ATOM     26  N   UNL     1      -5.371  11.526  17.464  0.00  0.00    +0.000 N 
ATOM     27  C   UNL     1      -5.849  10.604  18.344  0.00  0.00    +0.000 A 
ATOM     28  N   UNL     1      -6.996  11.014  18.836  0.00  0.00    +0.000 NA
ATOM     29  C   UNL     1      -7.188  12.210  18.208  0.00  0.00    +0.000 A 
ATOM     30  N   UNL     1      -6.226  12.565  17.351  0.00  0.00    +0.000 NA
ENDBRANCH  25  26
ENDBRANCH  22  25
ENDBRANCH  18  19
ENDBRANCH   3  18
TORSDOF 6
ENDMDL
MODEL 2
REMARK VINA RESULT:      -8.9      0.466      1.141
REMARK  Name = 
REMARK  8 active torsions:
REMARK  status: ('A' for Active; 'I' for Inactive)
REMARK    1  A    between atoms: C_1  and  C_2
REMARK    2  A    between atoms: C_2  and  C_3
REMARK    3  A    between atoms: C_2  and  C_4
REMARK    4  A    between atoms: C_6  and  C_7
REMARK    5  A    between atoms: N_9  and  C_10
REMARK    6  A    between atoms: C_10  and  C_11
REMARK    7  A    between atoms: C_14  and  C_15
REMARK    8  A    between atoms: C_15  and  N_16
REMARK                            x       y       z     vdW  Elec       q    Type
REMARK                         _______ _______ _______ _____ _____    ______ ____
ROOT
ATOM      1  C   UNL     1       1.770   7.978  19.654  0.00  0.00    +0.000 C 
ATOM      2  O   UNL     1       1.699   8.072  20.875  0.00  0.00    +0.000 OA
ATOM      3  N   UNL     1       1.297   8.952  18.803  0.00  0.00    +0.000 N 
ATOM      4  H   UNL     1       1.583   8.948  17.832  0.00  0.00    +0.000 HD
ENDROOT
BRANCH   1   7
ATOM      5  C   UNL     1       4.141   6.098  17.472  0.00  0.00    +0.000 A 
ATOM      6  C   UNL     1       3.442   7.124  18.089  0.00  0.00    +0.000 A 
ATOM      7  C   UNL     1       2.467   6.806  19.046  0.00  0.00    +0.000 A 
ATOM      8  C   UNL     1       2.227   5.452  19.399  0.00  0.00    +0.000 A 
ATOM      9  C   UNL     1       1.336   4.990  20.403  0.00  0.00    +0.000 A 
ATOM     10  C   UNL     1       1.162   3.628  20.652  0.00  0.00    +0.000 A 
ATOM     11  C   UNL     1       1.895   2.700  19.929  0.00  0.00    +0.000 A 
ATOM     12  C   UNL     1       2.805   3.143  18.970  0.00  0.00    +0.000 A 
ATOM     13  C   UNL     1       2.987   4.490  18.696  0.00  0.00    +0.000 A 
ATOM     14  N   UNL     1       3.901   4.803  17.767  0.00  0.00    +0.000 NA
BRANCH   5  16
ATOM     15  C   UNL     1       6.512   6.838  17.095  0.00  0.00    +0.000 C 
ATOM     16  C   UNL     1       5.207   6.388  16.433  0.00  0.00    +0.000 C 
ATOM     17  C   UNL     1       5.449   5.159  15.552  0.00  0.00    +0.000 C 
ENDBRANCH   5  16
ENDBRANCH   1   7
BRANCH   3  18
ATOM     18  C   UNL     1       0.689  10.157  19.330  0.00  0.00    +0.000 C 
BRANCH  18  19
ATOM     19  C   UNL     1      -0.642  10.433  18.676  0.00  0.00    +0.000 A 
ATOM     20  C   UNL     1      -1.038   9.725  17.534  0.00  0.00    +0.000 A 
ATOM     21  C   UNL     1      -2.248  10.019  16.896  0.00  0.00    +0.000 A 
ATOM     22  C   UNL     1      -3.089  11.028  17.388  0.00  0.00    +0.000 A 
ATOM     23  C   UNL     1      -2.704  11.719  18.545  0.00  0.00    +0.000 A 
ATOM     24  C   UNL     1      -1.489  11.431  19.175  0.00  0.00    +0.000 A 
BRANCH  22  25
ATOM     25  C   UNL     1      -4.370  11.386  16.672  0.00  0.00    +0.000 C 
BRANCH  25  26
ATOM     26  N   UNL     1      -5.535  11.392  17.538  0.00  0.00    +0.000 N 
ATOM     27  C   UNL     1      -6.374  12.429  17.809  0.00  0.00    +0.000 A 
ATOM     28  N   UNL     1      -7.191  12.097  18.782  0.00  0.00    +0.000 NA
ATOM     29  C   UNL     1      -6.801  10.825  19.088  0.00  0.00    +0.000 A 
ATOM     30  N   UNL     1      -5.785  10.350  18.362  0.00  0.00    +0.000 NA
ENDBRANCH  25  26
ENDBRANCH  22  25
ENDBRANCH  18  19
ENDBRANCH   3  18
TORSDOF 6
ENDMDL
MODEL 3
REMARK VINA RESULT:      -8.6      2.246      9.704
REMARK  Name = 
REMARK  8 active torsions:
REMARK  status: ('A' for Active; 'I' for Inactive)
REMARK    1  A    between atoms: C_1  and  C_2
REMARK    2  A    between atoms: C_2  and  C_3
REMARK    3  A    between atoms: C_2  and  C_4
REMARK    4  A    between atoms: C_6  and  C_7
REMARK    5  A    between atoms: N_9  and  C_10
REMARK    6  A    between atoms: C_10  and  C_11
REMARK    7  A    between atoms: C_14  and  C_15
REMARK    8  A    between atoms: C_15  and  N_16
REMARK                            x       y       z     vdW  Elec       q    Type
REMARK                         _______ _______ _______ _____ _____    ______ ____
ROOT
ATOM      1  C   UNL     1       0.030   9.510  20.459  0.00  0.00    +0.000 C 
ATOM      2  O   UNL     1      -0.693   9.181  21.394  0.00  0.00    +0.000 OA
ATOM      3  N   UNL     1       1.157   8.801  20.103  0.00  0.00    +0.000 N 
ATOM      4  H   UNL     1       1.583   8.963  19.199  0.00  0.00    +0.000 HD
ENDROOT
BRANCH   1   7
ATOM      5  C   UNL     1      -1.783  11.449  17.839  0.00  0.00    +0.000 A 
ATOM      6  C   UNL     1      -1.364  10.423  18.671  0.00  0.00    +0.000 A 
ATOM      7  C   UNL     1      -0.352  10.675  19.609  0.00  0.00    +0.000 A 
ATOM      8  C   UNL     1       0.207  11.976  19.724  0.00  0.00    +0.000 A 
ATOM      9  C   UNL     1       1.172  12.395  20.676  0.00  0.00    +0.000 A 
ATOM     10  C   UNL     1       1.671  13.699  20.684  0.00  0.00    +0.000 A 
ATOM     11  C   UNL     1       1.195  14.619  19.764  0.00  0.00    +0.000 A 
ATOM     12  C   UNL     1       0.216  14.231  18.850  0.00  0.00    +0.000 A 
ATOM     13  C   UNL     1      -0.286  12.939  18.815  0.00  0.00    +0.000 A 
ATOM     14  N   UNL     1      -1.238  12.682  17.907  0.00  0.00    +0.000 NA
BRANCH   5  16
ATOM     15  C   UNL     1      -2.696   9.886  16.098  0.00  0.00    +0.000 C 
ATOM     16  C   UNL     1      -2.875  11.229  16.810  0.00  0.00    +0.000 C 
ATOM     17  C   UNL     1      -4.257  11.307  17.465  0.00  0.00    +0.000 C 
ENDBRANCH   5  16
ENDBRANCH   1   7
BRANCH   3  18
ATOM     18  C   UNL     1       1.536   7.608  20.832  0.00  0.00    +0.000 C 
BRANCH  18  19
ATOM     19  C   UNL     1       2.220   6.609  19.934  0.00  0.00    +0.000 A 
ATOM     20  C   UNL     1       2.360   5.271  20.327  0.00  0.00    +0.000 A 
ATOM     21  C   UNL     1       3.044   4.357  19.516  0.00  0.00    +0.000 A 
ATOM     22  C   UNL     1       3.600   4.761  18.294  0.00  0.00    +0.000 A 
ATOM     23  C   UNL     1       3.438   6.094  17.890  0.00  0.00    +0.000 A 
ATOM     24  C   UNL     1       2.764   7.008  18.706  0.00  0.00    +0.000 A 
BRANCH  22  25
ATOM     25  C   UNL     1       4.385   3.792  17.442  0.00  0.00    +0.000 C 
BRANCH  25  26
ATOM     26  N   UNL     1       5.758   4.204  17.213  0.00  0.00    +0.000 N 
ATOM     27  C   UNL     1       6.442   4.226  16.036  0.00  0.00    +0.000 A 
ATOM     28  N   UNL     1       7.711   4.475  16.265  0.00  0.00    +0.000 NA
ATOM     29  C   UNL     1       7.760   4.591  17.624  0.00  0.00    +0.000 A 
ATOM     30  N   UNL     1       6.593   4.425  18.253  0.00  0.00    +0.000 NA
ENDBRANCH  25  26
ENDBRANCH  22  25
ENDBRANCH  18  19
ENDBRANCH   3  18
TORSDOF 6
ENDMDL
MODEL 4
REMARK VINA RESULT:      -8.4      2.117      9.598
REMARK  Name = 
REMARK  8 active torsions:
REMARK  status: ('A' for Active; 'I' for Inactive)
REMARK    1  A    between atoms: C_1  and  C_2
REMARK    2  A    between atoms: C_2  and  C_3
REMARK    3  A    between atoms: C_2  and  C_4
REMARK    4  A    between atoms: C_6  and  C_7
REMARK    5  A    between atoms: N_9  and  C_10
REMARK    6  A    between atoms: C_10  and  C_11
REMARK    7  A    between atoms: C_14  and  C_15
REMARK    8  A    between atoms: C_15  and  N_16
REMARK                            x       y       z     vdW  Elec       q    Type
REMARK                         _______ _______ _______ _____ _____    ______ ____
ROOT
ATOM      1  C   UNL     1       0.180   9.340  20.340  0.00  0.00    +0.000 C 
ATOM      2  O   UNL     1      -0.425   8.986  21.347  0.00  0.00    +0.000 OA
ATOM      3  N   UNL     1       1.333   8.722  19.908  0.00  0.00    +0.000 N 
ATOM      4  H   UNL     1       1.663   8.884  18.965  0.00  0.00    +0.000 HD
ENDROOT
BRANCH   1   7
ATOM      5  C   UNL     1      -2.043  10.998  17.845  0.00  0.00    +0.000 A 
ATOM      6  C   UNL     1      -1.457  10.050  18.669  0.00  0.00    +0.000 A 
ATOM      7  C   UNL     1      -0.382  10.428  19.488  0.00  0.00    +0.000 A 
ATOM      8  C   UNL     1       0.072  11.774  19.493  0.00  0.00    +0.000 A 
ATOM      9  C   UNL     1       1.087  12.315  20.324  0.00  0.00    +0.000 A 
ATOM     10  C   UNL     1       1.471  13.654  20.229  0.00  0.00    +0.000 A 
ATOM     11  C   UNL     1       0.830  14.487  19.327  0.00  0.00    +0.000 A 
ATOM     12  C   UNL     1      -0.198  13.977  18.535  0.00  0.00    +0.000 A 
ATOM     13  C   UNL     1      -0.589  12.649  18.602  0.00  0.00    +0.000 A 
ATOM     14  N   UNL     1      -1.600  12.272  17.808  0.00  0.00    +0.000 NA
BRANCH   5  16
ATOM     15  C   UNL     1      -4.412  11.545  17.216  0.00  0.00    +0.000 C 
ATOM     16  C   UNL     1      -3.208  10.640  16.943  0.00  0.00    +0.000 C 
ATOM     17  C   UNL     1      -2.796  10.726  15.470  0.00  0.00    +0.000 C 
ENDBRANCH   5  16
ENDBRANCH   1   7
BRANCH   3  18
ATOM     18  C   UNL     1       1.885   7.600  20.641  0.00  0.00    +0.000 C 
BRANCH  18  19
ATOM     19  C   UNL     1       2.447   6.557  19.709  0.00  0.00    +0.000 A 
ATOM     20  C   UNL     1       2.553   5.220  20.112  0.00  0.00    +0.000 A 
ATOM     21  C   UNL     1       3.125   4.262  19.266  0.00  0.00    +0.000 A 
ATOM     22  C   UNL     1       3.601   4.622  17.997  0.00  0.00    +0.000 A 
ATOM     23  C   UNL     1       3.471   5.956  17.584  0.00  0.00    +0.000 A 
ATOM     24  C   UNL     1       2.909   6.913  18.435  0.00  0.00    +0.000 A 
BRANCH  22  25
ATOM     25  C   UNL     1       4.267   3.604  17.102  0.00  0.00    +0.000 C 
BRANCH  25  26
ATOM     26  N   UNL     1       5.532   4.058  16.551  0.00  0.00    +0.000 N 
ATOM     27  C   UNL     1       6.630   4.499  17.224  0.00  0.00    +0.000 A 
ATOM     28  N   UNL     1       7.499   4.998  16.376  0.00  0.00    +0.000 NA
ATOM     29  C   UNL     1       6.873   4.847  15.172  0.00  0.00    +0.000 A 
ATOM     30  N   UNL     1       5.663   4.285  15.226  0.00  0.00    +0.000 NA
ENDBRANCH  25  26
ENDBRANCH  22  25
ENDBRANCH  18  19
ENDBRANCH   3  18
TORSDOF 6
ENDMDL
MODEL 5
REMARK VINA RESULT:      -8.4      3.310      4.084
REMARK  Name = 
REMARK  8 active torsions:
REMARK  status: ('A' for Active; 'I' for Inactive)
REMARK    1  A    between atoms: C_1  and  C_2
REMARK    2  A    between atoms: C_2  and  C_3
REMARK    3  A    between atoms: C_2  and  C_4
REMARK    4  A    between atoms: C_6  and  C_7
REMARK    5  A    between atoms: N_9  and  C_10
REMARK    6  A    between atoms: C_10  and  C_11
REMARK    7  A    between atoms: C_14  and  C_15
REMARK    8  A    between atoms: C_15  and  N_16
REMARK                            x       y       z     vdW  Elec       q    Type
REMARK                         _______ _______ _______ _____ _____    ______ ____
ROOT
ATOM      1  C   UNL     1       3.187   7.266  17.897  0.00  0.00    +0.000 C 
ATOM      2  O   UNL     1       4.131   8.048  17.918  0.00  0.00    +0.000 OA
ATOM      3  N   UNL     1       1.874   7.680  17.962  0.00  0.00    +0.000 N 
ATOM      4  H   UNL     1       1.135   7.038  17.706  0.00  0.00    +0.000 HD
ENDROOT
BRANCH   1   7
ATOM      5  C   UNL     1       4.803   4.162  16.606  0.00  0.00    +0.000 A 
ATOM      6  C   UNL     1       4.493   5.493  16.836  0.00  0.00    +0.000 A 
ATOM      7  C   UNL     1       3.444   5.807  17.713  0.00  0.00    +0.000 A 
ATOM      8  C   UNL     1       2.736   4.772  18.379  0.00  0.00    +0.000 A 
ATOM      9  C   UNL     1       1.713   4.942  19.349  0.00  0.00    +0.000 A 
ATOM     10  C   UNL     1       1.067   3.848  19.926  0.00  0.00    +0.000 A 
ATOM     11  C   UNL     1       1.446   2.564  19.572  0.00  0.00    +0.000 A 
ATOM     12  C   UNL     1       2.478   2.383  18.652  0.00  0.00    +0.000 A 
ATOM     13  C   UNL     1       3.128   3.454  18.056  0.00  0.00    +0.000 A 
ATOM     14  N   UNL     1       4.116   3.163  17.200  0.00  0.00    +0.000 NA
BRANCH   5  16
ATOM     15  C   UNL     1       5.621   4.194  14.231  0.00  0.00    +0.000 C 
ATOM     16  C   UNL     1       5.929   3.769  15.669  0.00  0.00    +0.000 C 
ATOM     17  C   UNL     1       7.255   4.378  16.134  0.00  0.00    +0.000 C 
ENDBRANCH   5  16
ENDBRANCH   1   7
BRANCH   3  18
ATOM     18  C   UNL     1       1.552   9.090  18.053  0.00  0.00    +0.000 C 
BRANCH  18  19
ATOM     19  C   UNL     1       0.857   9.413  19.351  0.00  0.00    +0.000 A 
ATOM     20  C   UNL     1      -0.193  10.339  19.390  0.00  0.00    +0.000 A 
ATOM     21  C   UNL     1      -0.801  10.679  20.604  0.00  0.00    +0.000 A 
ATOM     22  C   UNL     1      -0.373  10.097  21.806  0.00  0.00    +0.000 A 
ATOM     23  C   UNL     1       0.661   9.151  21.764  0.00  0.00    +0.000 A 
ATOM     24  C   UNL     1       1.274   8.821  20.551  0.00  0.00    +0.000 A 
BRANCH  22  25
ATOM     25  C   UNL     1      -0.989  10.500  23.124  0.00  0.00    +0.000 C 
BRANCH  25  26
ATOM     26  N   UNL     1      -1.363  11.902  23.184  0.00  0.00    +0.000 N 
ATOM     27  C   UNL     1      -2.613  12.439  23.148  0.00  0.00    +0.000 A 
ATOM     28  N   UNL     1      -2.532  13.745  23.033  0.00  0.00    +0.000 NA
ATOM     29  C   UNL     1      -1.186  13.965  22.991  0.00  0.00    +0.000 A 
ATOM     30  N   UNL     1      -0.426  12.869  23.072  0.00  0.00    +0.000 NA
ENDBRANCH  25  26
ENDBRANCH  22  25
ENDBRANCH  18  19
ENDBRANCH   3  18
TORSDOF 6
ENDMDL
MODEL 6
REMARK VINA RESULT:      -8.4      2.240      9.595
REMARK  Name = 
REMARK  8 active torsions:
REMARK  status: ('A' for Active; 'I' for Inactive)
REMARK    1  A    between atoms: C_1  and  C_2
REMARK    2  A    between atoms: C_2  and  C_3
REMARK    3  A    between atoms: C_2  and  C_4
REMARK    4  A    between atoms: C_6  and  C_7
REMARK    5  A    between atoms: N_9  and  C_10
REMARK    6  A    between atoms: C_10  and  C_11
REMARK    7  A    between atoms: C_14  and  C_15
REMARK    8  A    between atoms: C_15  and  N_16
REMARK                            x       y       z     vdW  Elec       q    Type
REMARK                         _______ _______ _______ _____ _____    ______ ____
ROOT
ATOM      1  C   UNL     1       0.287   9.529  20.482  0.00  0.00    +0.000 C 
ATOM      2  O   UNL     1      -0.253   9.308  21.561  0.00  0.00    +0.000 OA
ATOM      3  N   UNL     1       1.272   8.717  19.963  0.00  0.00    +0.000 N 
ATOM      4  H   UNL     1       1.518   8.796  18.984  0.00  0.00    +0.000 HD
ENDROOT
BRANCH   1   7
ATOM      5  C   UNL     1      -1.759  11.381  17.973  0.00  0.00    +0.000 A 
ATOM      6  C   UNL     1      -1.255  10.379  18.788  0.00  0.00    +0.000 A 
ATOM      7  C   UNL     1      -0.183  10.670  19.644  0.00  0.00    +0.000 A 
ATOM      8  C   UNL     1       0.354  11.984  19.695  0.00  0.00    +0.000 A 
ATOM      9  C   UNL     1       1.377  12.441  20.566  0.00  0.00    +0.000 A 
ATOM     10  C   UNL     1       1.846  13.755  20.515  0.00  0.00    +0.000 A 
ATOM     11  C   UNL     1       1.283  14.647  19.618  0.00  0.00    +0.000 A 
ATOM     12  C   UNL     1       0.248  14.222  18.786  0.00  0.00    +0.000 A 
ATOM     13  C   UNL     1      -0.227  12.920  18.810  0.00  0.00    +0.000 A 
ATOM     14  N   UNL     1      -1.237  12.626  17.980  0.00  0.00    +0.000 NA
BRANCH   5  16
ATOM     15  C   UNL     1      -2.573  10.016  16.027  0.00  0.00    +0.000 C 
ATOM     16  C   UNL     1      -2.918  11.119  17.032  0.00  0.00    +0.000 C 
ATOM     17  C   UNL     1      -4.179  10.750  17.819  0.00  0.00    +0.000 C 
ENDBRANCH   5  16
ENDBRANCH   1   7
BRANCH   3  18
ATOM     18  C   UNL     1       1.713   7.541  20.685  0.00  0.00    +0.000 C 
BRANCH  18  19
ATOM     19  C   UNL     1       2.406   6.562  19.771  0.00  0.00    +0.000 A 
ATOM     20  C   UNL     1       2.820   6.949  18.490  0.00  0.00    +0.000 A 
ATOM     21  C   UNL     1       3.413   6.025  17.623  0.00  0.00    +0.000 A 
ATOM     22  C   UNL     1       3.608   4.694  18.019  0.00  0.00    +0.000 A 
ATOM     23  C   UNL     1       3.217   4.314  19.311  0.00  0.00    +0.000 A 
ATOM     24  C   UNL     1       2.614   5.236  20.173  0.00  0.00    +0.000 A 
BRANCH  22  25
ATOM     25  C   UNL     1       4.198   3.681  17.068  0.00  0.00    +0.000 C 
BRANCH  25  26
ATOM     26  N   UNL     1       5.509   4.053  16.566  0.00  0.00    +0.000 N 
ATOM     27  C   UNL     1       6.606   4.428  17.280  0.00  0.00    +0.000 A 
ATOM     28  N   UNL     1       7.536   4.869  16.465  0.00  0.00    +0.000 NA
ATOM     29  C   UNL     1       6.948   4.753  15.238  0.00  0.00    +0.000 A 
ATOM     30  N   UNL     1       5.704   4.267  15.246  0.00  0.00    +0.000 NA
ENDBRANCH  25  26
ENDBRANCH  22  25
ENDBRANCH  18  19
ENDBRANCH   3  18
TORSDOF 6
ENDMDL
MODEL 7
REMARK VINA RESULT:      -8.4      1.983      9.515
REMARK  Name = 
REMARK  8 active torsions:
REMARK  status: ('A' for Active; 'I' for Inactive)
REMARK    1  A    between atoms: C_1  and  C_2
REMARK    2  A    between atoms: C_2  and  C_3
REMARK    3  A    between atoms: C_2  and  C_4
REMARK    4  A    between atoms: C_6  and  C_7
REMARK    5  A    between atoms: N_9  and  C_10
REMARK    6  A    between atoms: C_10  and  C_11
REMARK    7  A    between atoms: C_14  and  C_15
REMARK    8  A    between atoms: C_15  and  N_16
REMARK                            x       y       z     vdW  Elec       q    Type
REMARK                         _______ _______ _______ _____ _____    ______ ____
ROOT
ATOM      1  C   UNL     1      -0.572  11.049  19.636  0.00  0.00    +0.000 C 
ATOM      2  O   UNL     1       0.340  11.840  19.417  0.00  0.00    +0.000 OA
ATOM      3  N   UNL     1      -0.382   9.861  20.309  0.00  0.00    +0.000 N 
ATOM      4  H   UNL     1      -1.183   9.360  20.671  0.00  0.00    +0.000 HD
ENDROOT
BRANCH   1   7
ATOM      5  C   UNL     1      -3.991  12.514  19.902  0.00  0.00    +0.000 A 
ATOM      6  C   UNL     1      -2.688  12.140  20.188  0.00  0.00    +0.000 A 
ATOM      7  C   UNL     1      -1.965  11.403  19.238  0.00  0.00    +0.000 A 
ATOM      8  C   UNL     1      -2.555  11.078  17.988  0.00  0.00    +0.000 A 
ATOM      9  C   UNL     1      -1.920  10.413  16.906  0.00  0.00    +0.000 A 
ATOM     10  C   UNL     1      -2.606  10.124  15.725  0.00  0.00    +0.000 A 
ATOM     11  C   UNL     1      -3.927  10.518  15.586  0.00  0.00    +0.000 A 
ATOM     12  C   UNL     1      -4.549  11.208  16.625  0.00  0.00    +0.000 A 
ATOM     13  C   UNL     1      -3.893  11.497  17.812  0.00  0.00    +0.000 A 
ATOM     14  N   UNL     1      -4.582  12.182  18.735  0.00  0.00    +0.000 NA
BRANCH   5  16
ATOM     15  C   UNL     1      -6.286  12.894  20.851  0.00  0.00    +0.000 C 
ATOM     16  C   UNL     1      -4.814  13.313  20.895  0.00  0.00    +0.000 C 
ATOM     17  C   UNL     1      -4.254  13.154  22.311  0.00  0.00    +0.000 C 
ENDBRANCH   5  16
ENDBRANCH   1   7
BRANCH   3  18
ATOM     18  C   UNL     1       0.932   9.497  20.801  0.00  0.00    +0.000 C 
BRANCH  18  19
ATOM     19  C   UNL     1       1.568   8.438  19.938  0.00  0.00    +0.000 A 
ATOM     20  C   UNL     1       1.856   7.169  20.457  0.00  0.00    +0.000 A 
ATOM     21  C   UNL     1       2.496   6.204  19.671  0.00  0.00    +0.000 A 
ATOM     22  C   UNL     1       2.861   6.487  18.347  0.00  0.00    +0.000 A 
ATOM     23  C   UNL     1       2.550   7.749  17.819  0.00  0.00    +0.000 A 
ATOM     24  C   UNL     1       1.919   8.715  18.610  0.00  0.00    +0.000 A 
BRANCH  22  25
ATOM     25  C   UNL     1       3.600   5.469  17.512  0.00  0.00    +0.000 C 
BRANCH  25  26
ATOM     26  N   UNL     1       3.274   4.095  17.852  0.00  0.00    +0.000 N 
ATOM     27  C   UNL     1       4.054   3.181  18.490  0.00  0.00    +0.000 A 
ATOM     28  N   UNL     1       3.483   1.999  18.442  0.00  0.00    +0.000 NA
ATOM     29  C   UNL     1       2.337   2.242  17.742  0.00  0.00    +0.000 A 
ATOM     30  N   UNL     1       2.165   3.507  17.350  0.00  0.00    +0.000 NA
ENDBRANCH  25  26
ENDBRANCH  22  25
ENDBRANCH  18  19
ENDBRANCH   3  18
TORSDOF 6
ENDMDL
MODEL 8
REMARK VINA RESULT:      -8.4      3.385      4.099
REMARK  Name = 
REMARK  8 active torsions:
REMARK  status: ('A' for Active; 'I' for Inactive)
REMARK    1  A    between atoms: C_1  and  C_2
REMARK    2  A    between atoms: C_2  and  C_3
REMARK    3  A    between atoms: C_2  and  C_4
REMARK    4  A    between atoms: C_6  and  C_7
REMARK    5  A    between atoms: N_9  and  C_10
REMARK    6  A    between atoms: C_10  and  C_11
REMARK    7  A    between atoms: C_14  and  C_15
REMARK    8  A    between atoms: C_15  and  N_16
REMARK                            x       y       z     vdW  Elec       q    Type
REMARK                         _______ _______ _______ _____ _____    ______ ____
ROOT
ATOM      1  C   UNL     1       2.405   6.715  18.224  0.00  0.00    +0.000 C 
ATOM      2  O   UNL     1       1.457   6.454  17.491  0.00  0.00    +0.000 OA
ATOM      3  N   UNL     1       2.635   7.979  18.722  0.00  0.00    +0.000 N 
ATOM      4  H   UNL     1       3.274   8.100  19.497  0.00  0.00    +0.000 HD
ENDROOT
BRANCH   1   7
ATOM      5  C   UNL     1       5.540   4.721  18.553  0.00  0.00    +0.000 A 
ATOM      6  C   UNL     1       4.627   5.697  18.187  0.00  0.00    +0.000 A 
ATOM      7  C   UNL     1       3.313   5.619  18.672  0.00  0.00    +0.000 A 
ATOM      8  C   UNL     1       2.939   4.571  19.554  0.00  0.00    +0.000 A 
ATOM      9  C   UNL     1       1.677   4.412  20.184  0.00  0.00    +0.000 A 
ATOM     10  C   UNL     1       1.410   3.326  21.019  0.00  0.00    +0.000 A 
ATOM     11  C   UNL     1       2.404   2.394  21.268  0.00  0.00    +0.000 A 
ATOM     12  C   UNL     1       3.660   2.561  20.688  0.00  0.00    +0.000 A 
ATOM     13  C   UNL     1       3.947   3.624  19.846  0.00  0.00    +0.000 A 
ATOM     14  N   UNL     1       5.193   3.696  19.359  0.00  0.00    +0.000 NA
BRANCH   5  16
ATOM     15  C   UNL     1       7.035   4.557  16.541  0.00  0.00    +0.000 C 
ATOM     16  C   UNL     1       6.973   4.761  18.057  0.00  0.00    +0.000 C 
ATOM     17  C   UNL     1       7.641   6.082  18.448  0.00  0.00    +0.000 C 
ENDBRANCH   5  16
ENDBRANCH   1   7
BRANCH   3  18
ATOM     18  C   UNL     1       1.740   9.072  18.398  0.00  0.00    +0.000 C 
BRANCH  18  19
ATOM     19  C   UNL     1       0.935   9.498  19.599  0.00  0.00    +0.000 A 
ATOM     20  C   UNL     1       0.012  10.548  19.505  0.00  0.00    +0.000 A 
ATOM     21  C   UNL     1      -0.695  10.979  20.633  0.00  0.00    +0.000 A 
ATOM     22  C   UNL     1      -0.496  10.368  21.879  0.00  0.00    +0.000 A 
ATOM     23  C   UNL     1       0.409   9.301  21.967  0.00  0.00    +0.000 A 
ATOM     24  C   UNL     1       1.123   8.878  20.841  0.00  0.00    +0.000 A 
BRANCH  22  25
ATOM     25  C   UNL     1      -1.217  10.865  23.110  0.00  0.00    +0.000 C 
BRANCH  25  26
ATOM     26  N   UNL     1      -1.453  12.298  23.104  0.00  0.00    +0.000 N 
ATOM     27  C   UNL     1      -2.623  12.954  22.873  0.00  0.00    +0.000 A 
ATOM     28  N   UNL     1      -2.395  14.243  22.764  0.00  0.00    +0.000 NA
ATOM     29  C   UNL     1      -1.042  14.329  22.929  0.00  0.00    +0.000 A 
ATOM     30  N   UNL     1      -0.418  13.165  23.131  0.00  0.00    +0.000 NA
ENDBRANCH  25  26
ENDBRANCH  22  25
ENDBRANCH  18  19
ENDBRANCH   3  18
TORSDOF 6
ENDMDL
MODEL 9
REMARK VINA RESULT:      -8.3      1.049      3.367
REMARK  Name = 
REMARK  8 active torsions:
REMARK  status: ('A' for Active; 'I' for Inactive)
REMARK    1  A    between atoms: C_1  and  C_2
REMARK    2  A    between atoms: C_2  and  C_3
REMARK    3  A    between atoms: C_2  and  C_4
REMARK    4  A    between atoms: C_6  and  C_7
REMARK    5  A    between atoms: N_9  and  C_10
REMARK    6  A    between atoms: C_10  and  C_11
REMARK    7  A    between atoms: C_14  and  C_15
REMARK    8  A    between atoms: C_15  and  N_16
REMARK                            x       y       z     vdW  Elec       q    Type
REMARK                         _______ _______ _______ _____ _____    ______ ____
ROOT
ATOM      1  C   UNL     1       1.860   8.020  19.582  0.00  0.00    +0.000 C 
ATOM      2  O   UNL     1       1.911   8.368  20.757  0.00  0.00    +0.000 OA
ATOM      3  N   UNL     1       1.514   8.883  18.565  0.00  0.00    +0.000 N 
ATOM      4  H   UNL     1       1.711   8.627  17.606  0.00  0.00    +0.000 HD
ENDROOT
BRANCH   1   7
ATOM      5  C   UNL     1       1.874   4.290  19.580  0.00  0.00    +0.000 A 
ATOM      6  C   UNL     1       1.567   5.611  19.867  0.00  0.00    +0.000 A 
ATOM      7  C   UNL     1       2.264   6.634  19.207  0.00  0.00    +0.000 A 
ATOM      8  C   UNL     1       3.246   6.314  18.233  0.00  0.00    +0.000 A 
ATOM      9  C   UNL     1       3.967   7.238  17.431  0.00  0.00    +0.000 A 
ATOM     10  C   UNL     1       4.931   6.812  16.516  0.00  0.00    +0.000 A 
ATOM     11  C   UNL     1       5.173   5.457  16.358  0.00  0.00    +0.000 A 
ATOM     12  C   UNL     1       4.442   4.538  17.108  0.00  0.00    +0.000 A 
ATOM     13  C   UNL     1       3.488   4.936  18.032  0.00  0.00    +0.000 A 
ATOM     14  N   UNL     1       2.832   3.967  18.685  0.00  0.00    +0.000 NA
BRANCH   5  16
ATOM     15  C   UNL     1       1.101   1.910  19.365  0.00  0.00    +0.000 C 
ATOM     16  C   UNL     1       1.149   3.148  20.264  0.00  0.00    +0.000 C 
ATOM     17  C   UNL     1       1.813   2.813  21.603  0.00  0.00    +0.000 C 
ENDBRANCH   5  16
ENDBRANCH   1   7
BRANCH   3  18
ATOM     18  C   UNL     1       1.196  10.267  18.850  0.00  0.00    +0.000 C 
BRANCH  18  19
ATOM     19  C   UNL     1      -0.257  10.566  18.578  0.00  0.00    +0.000 A 
ATOM     20  C   UNL     1      -0.980   9.809  17.647  0.00  0.00    +0.000 A 
ATOM     21  C   UNL     1      -2.312  10.121  17.354  0.00  0.00    +0.000 A 
ATOM     22  C   UNL     1      -2.951  11.196  17.989  0.00  0.00    +0.000 A 
ATOM     23  C   UNL     1      -2.234  11.938  18.939  0.00  0.00    +0.000 A 
ATOM     24  C   UNL     1      -0.900  11.630  19.222  0.00  0.00    +0.000 A 
BRANCH  22  25
ATOM     25  C   UNL     1      -4.371  11.571  17.637  0.00  0.00    +0.000 C 
BRANCH  25  26
ATOM     26  N   UNL     1      -5.318  11.318  18.709  0.00  0.00    +0.000 N 
ATOM     27  C   UNL     1      -6.318  10.395  18.745  0.00  0.00    +0.000 A 
ATOM     28  N   UNL     1      -7.075  10.602  19.798  0.00  0.00    +0.000 NA
ATOM     29  C   UNL     1      -6.494  11.690  20.383  0.00  0.00    +0.000 A 
ATOM     30  N   UNL     1      -5.421  12.172  19.751  0.00  0.00    +0.000 NA
ENDBRANCH  25  26
ENDBRANCH  22  25
ENDBRANCH  18  19
ENDBRANCH   3  18
TORSDOF 6
ENDMDL
