MODEL 1
REMARK VINA RESULT:      -8.3      0.000      0.000
REMARK  Name = 
REMARK  2 active torsions:
REMARK  status: ('A' for Active; 'I' for Inactive)
REMARK    1  A    between atoms: C_2  and  C_15
REMARK    2  A    between atoms: C_7  and  C_8
REMARK                            x       y       z     vdW  Elec       q    Type
REMARK                         _______ _______ _______ _____ _____    ______ ____
ROOT
ATOM      1  O   UNL     1       4.679   3.916  16.940  0.00  0.00    +0.000 OA
ATOM      2  C   UNL     1       5.065   4.996  16.511  0.00  0.00    +0.000 C 
ATOM      3  N   UNL     1       4.639   6.244  16.931  0.00  0.00    +0.000 N 
ATOM      4  C   UNL     1       3.728   6.368  17.947  0.00  0.00    +0.000 A 
ATOM      5  N   UNL     1       3.183   5.423  18.679  0.00  0.00    +0.000 NA
ATOM      6  N   UNL     1       2.297   6.002  19.552  0.00  0.00    +0.000 NA
ATOM      7  C   UNL     1       2.306   7.302  19.340  0.00  0.00    +0.000 A 
ATOM      8  N   UNL     1       3.230   7.573  18.361  0.00  0.00    +0.000 N 
ATOM      9  H   UNL     1       5.028   7.045  16.447  0.00  0.00    +0.000 HD
ATOM     10  H   UNL     1       3.437   8.493  18.005  0.00  0.00    +0.000 HD
ENDROOT
BRANCH   2  11
ATOM     11  C   UNL     1       6.080   5.071  15.446  0.00  0.00    +0.000 A 
ATOM     12  N   UNL     1       7.238   5.755  15.596  0.00  0.00    +0.000 NA
ATOM     13  N   UNL     1       7.888   5.531  14.435  0.00  0.00    +0.000 N 
ATOM     14  C   UNL     1       7.206   4.757  13.537  0.00  0.00    +0.000 A 
ATOM     15  C   UNL     1       7.537   4.297  12.257  0.00  0.00    +0.000 A 
ATOM     16  C   UNL     1       6.586   3.511  11.594  0.00  0.00    +0.000 A 
ATOM     17  C   UNL     1       5.363   3.204  12.187  0.00  0.00    +0.000 A 
ATOM     18  C   UNL     1       5.059   3.666  13.471  0.00  0.00    +0.000 A 
ATOM     19  C   UNL     1       6.002   4.454  14.161  0.00  0.00    +0.000 A 
ATOM     20  H   UNL     1       8.810   5.935  14.312  0.00  0.00    +0.000 HD
ENDBRANCH   2  11
BRANCH   7  21
ATOM     21  C   UNL     1       1.475   8.307  19.981  0.00  0.00    +0.000 A 
ATOM     22  C   UNL     1       1.050   8.146  21.297  0.00  0.00    +0.000 A 
ATOM     23  C   UNL     1       0.224   9.115  21.854  0.00  0.00    +0.000 A 
ATOM     24  C   UNL     1      -0.145  10.213  21.087  0.00  0.00    +0.000 A 
ATOM     25  C   UNL     1       0.332  10.295  19.785  0.00  0.00    +0.000 A 
ATOM     26  N   UNL     1       1.129   9.367  19.207  0.00  0.00    +0.000 NA
ENDBRANCH   7  21
TORSDOF 2
ENDMDL
MODEL 2
REMARK VINA RESULT:      -8.2      0.571      1.003
REMARK  Name = 
REMARK  2 active torsions:
REMARK  status: ('A' for Active; 'I' for Inactive)
REMARK    1  A    between atoms: C_2  and  C_15
REMARK    2  A    between atoms: C_7  and  C_8
REMARK                            x       y       z     vdW  Elec       q    Type
REMARK                         _______ _______ _______ _____ _____    ______ ____
ROOT
ATOM      1  O   UNL     1       4.761   3.952  17.040  0.00  0.00    +0.000 OA
ATOM      2  C   UNL     1       5.104   5.026  16.561  0.00  0.00    +0.000 C 
ATOM      3  N   UNL     1       4.644   6.275  16.936  0.00  0.00    +0.000 N 
ATOM      4  C   UNL     1       3.745   6.412  17.962  0.00  0.00    +0.000 A 
ATOM      5  N   UNL     1       3.243   5.481  18.741  0.00  0.00    +0.000 NA
ATOM      6  N   UNL     1       2.352   6.068  19.604  0.00  0.00    +0.000 NA
ATOM      7  C   UNL     1       2.315   7.357  19.340  0.00  0.00    +0.000 A 
ATOM      8  N   UNL     1       3.215   7.616  18.335  0.00  0.00    +0.000 N 
ATOM      9  H   UNL     1       4.999   7.067  16.414  0.00  0.00    +0.000 HD
ATOM     10  H   UNL     1       3.386   8.528  17.938  0.00  0.00    +0.000 HD
ENDROOT
BRANCH   2  11
ATOM     11  C   UNL     1       6.099   5.089  15.477  0.00  0.00    +0.000 A 
ATOM     12  N   UNL     1       7.265   5.765  15.602  0.00  0.00    +0.000 NA
ATOM     13  N   UNL     1       7.892   5.531  14.430  0.00  0.00    +0.000 N 
ATOM     14  C   UNL     1       7.187   4.758  13.549  0.00  0.00    +0.000 A 
ATOM     15  C   UNL     1       7.490   4.291  12.264  0.00  0.00    +0.000 A 
ATOM     16  C   UNL     1       6.522   3.510  11.623  0.00  0.00    +0.000 A 
ATOM     17  C   UNL     1       5.307   3.214  12.240  0.00  0.00    +0.000 A 
ATOM     18  C   UNL     1       5.030   3.684  13.528  0.00  0.00    +0.000 A 
ATOM     19  C   UNL     1       5.993   4.467  14.196  0.00  0.00    +0.000 A 
ATOM     20  H   UNL     1       8.814   5.928  14.288  0.00  0.00    +0.000 HD
ENDBRANCH   2  11
BRANCH   7  21
ATOM     21  C   UNL     1       1.462   8.360  19.953  0.00  0.00    +0.000 A 
ATOM     22  C   UNL     1       1.048   9.479  19.236  0.00  0.00    +0.000 A 
ATOM     23  C   UNL     1       0.264  10.430  19.879  0.00  0.00    +0.000 A 
ATOM     24  C   UNL     1      -0.086  10.233  21.208  0.00  0.00    +0.000 A 
ATOM     25  C   UNL     1       0.365   9.084  21.844  0.00  0.00    +0.000 A 
ATOM     26  N   UNL     1       1.136   8.142  21.253  0.00  0.00    +0.000 NA
ENDBRANCH   7  21
TORSDOF 2
ENDMDL
MODEL 3
REMARK VINA RESULT:      -8.1      5.960      7.087
REMARK  Name = 
REMARK  2 active torsions:
REMARK  status: ('A' for Active; 'I' for Inactive)
REMARK    1  A    between atoms: C_2  and  C_15
REMARK    2  A    between atoms: C_7  and  C_8
REMARK                            x       y       z     vdW  Elec       q    Type
REMARK                         _______ _______ _______ _____ _____    ______ ____
ROOT
ATOM      1  O   UNL     1       8.264   6.824  19.007  0.00  0.00    +0.000 OA
ATOM      2  C   UNL     1       7.724   7.176  17.966  0.00  0.00    +0.000 C 
ATOM      3  N   UNL     1       7.722   8.453  17.435  0.00  0.00    +0.000 N 
ATOM      4  C   UNL     1       8.401   9.470  18.054  0.00  0.00    +0.000 A 
ATOM      5  N   UNL     1       9.153   9.418  19.130  0.00  0.00    +0.000 NA
ATOM      6  N   UNL     1       9.602  10.683  19.411  0.00  0.00    +0.000 NA
ATOM      7  C   UNL     1       9.114  11.501  18.502  0.00  0.00    +0.000 A 
ATOM      8  N   UNL     1       8.384  10.762  17.604  0.00  0.00    +0.000 N 
ATOM      9  H   UNL     1       7.193   8.592  16.582  0.00  0.00    +0.000 HD
ATOM     10  H   UNL     1       7.900  11.143  16.806  0.00  0.00    +0.000 HD
ENDROOT
BRANCH   2  11
ATOM     11  C   UNL     1       6.982   6.214  17.133  0.00  0.00    +0.000 A 
ATOM     12  N   UNL     1       7.418   5.824  15.914  0.00  0.00    +0.000 NA
ATOM     13  N   UNL     1       6.496   4.920  15.523  0.00  0.00    +0.000 N 
ATOM     14  C   UNL     1       5.478   4.719  16.415  0.00  0.00    +0.000 A 
ATOM     15  C   UNL     1       4.363   3.874  16.386  0.00  0.00    +0.000 A 
ATOM     16  C   UNL     1       3.496   3.921  17.485  0.00  0.00    +0.000 A 
ATOM     17  C   UNL     1       3.737   4.777  18.558  0.00  0.00    +0.000 A 
ATOM     18  C   UNL     1       4.864   5.605  18.569  0.00  0.00    +0.000 A 
ATOM     19  C   UNL     1       5.754   5.570  17.477  0.00  0.00    +0.000 A 
ATOM     20  H   UNL     1       6.617   4.463  14.626  0.00  0.00    +0.000 HD
ENDBRANCH   2  11
BRANCH   7  21
ATOM     21  C   UNL     1       9.266  12.946  18.442  0.00  0.00    +0.000 A 
ATOM     22  C   UNL     1       8.179  13.764  18.154  0.00  0.00    +0.000 A 
ATOM     23  C   UNL     1       8.382  15.137  18.069  0.00  0.00    +0.000 A 
ATOM     24  C   UNL     1       9.657  15.647  18.278  0.00  0.00    +0.000 A 
ATOM     25  C   UNL     1      10.682  14.756  18.567  0.00  0.00    +0.000 A 
ATOM     26  N   UNL     1      10.523  13.415  18.649  0.00  0.00    +0.000 NA
ENDBRANCH   7  21
TORSDOF 2
ENDMDL
MODEL 4
REMARK VINA RESULT:      -8.0      6.829      9.501
REMARK  Name = 
REMARK  2 active torsions:
REMARK  status: ('A' for Active; 'I' for Inactive)
REMARK    1  A    between atoms: C_2  and  C_15
REMARK    2  A    between atoms: C_7  and  C_8
REMARK                            x       y       z     vdW  Elec       q    Type
REMARK                         _______ _______ _______ _____ _____    ______ ____
ROOT
ATOM      1  O   UNL     1       9.810  10.228  19.814  0.00  0.00    +0.000 OA
ATOM      2  C   UNL     1       9.261  10.780  18.868  0.00  0.00    +0.000 C 
ATOM      3  N   UNL     1       8.460  10.174  17.917  0.00  0.00    +0.000 N 
ATOM      4  C   UNL     1       8.172   8.836  17.994  0.00  0.00    +0.000 A 
ATOM      5  N   UNL     1       8.522   7.974  18.922  0.00  0.00    +0.000 NA
ATOM      6  N   UNL     1       8.045   6.737  18.571  0.00  0.00    +0.000 NA
ATOM      7  C   UNL     1       7.410   6.854  17.423  0.00  0.00    +0.000 A 
ATOM      8  N   UNL     1       7.435   8.176  17.050  0.00  0.00    +0.000 N 
ATOM      9  H   UNL     1       8.111  10.764  17.172  0.00  0.00    +0.000 HD
ATOM     10  H   UNL     1       7.020   8.542  16.207  0.00  0.00    +0.000 HD
ENDROOT
BRANCH   2  11
ATOM     11  C   UNL     1       9.413  12.228  18.643  0.00  0.00    +0.000 A 
ATOM     12  N   UNL     1       9.297  12.786  17.417  0.00  0.00    +0.000 NA
ATOM     13  N   UNL     1       9.450  14.105  17.655  0.00  0.00    +0.000 N 
ATOM     14  C   UNL     1       9.678  14.427  18.965  0.00  0.00    +0.000 A 
ATOM     15  C   UNL     1       9.871  15.657  19.606  0.00  0.00    +0.000 A 
ATOM     16  C   UNL     1      10.090  15.629  20.989  0.00  0.00    +0.000 A 
ATOM     17  C   UNL     1      10.116  14.426  21.692  0.00  0.00    +0.000 A 
ATOM     18  C   UNL     1       9.910  13.211  21.032  0.00  0.00    +0.000 A 
ATOM     19  C   UNL     1       9.682  13.214  19.641  0.00  0.00    +0.000 A 
ATOM     20  H   UNL     1       9.385  14.749  16.874  0.00  0.00    +0.000 HD
ENDBRANCH   2  11
BRANCH   7  21
ATOM     21  C   UNL     1       6.805   5.792  16.636  0.00  0.00    +0.000 A 
ATOM     22  C   UNL     1       5.713   5.081  17.121  0.00  0.00    +0.000 A 
ATOM     23  C   UNL     1       5.193   4.048  16.348  0.00  0.00    +0.000 A 
ATOM     24  C   UNL     1       5.774   3.765  15.119  0.00  0.00    +0.000 A 
ATOM     25  C   UNL     1       6.857   4.532  14.710  0.00  0.00    +0.000 A 
ATOM     26  N   UNL     1       7.394   5.537  15.440  0.00  0.00    +0.000 NA
ENDBRANCH   7  21
TORSDOF 2
ENDMDL
MODEL 5
REMARK VINA RESULT:      -7.9      5.714      6.955
REMARK  Name = 
REMARK  2 active torsions:
REMARK  status: ('A' for Active; 'I' for Inactive)
REMARK    1  A    between atoms: C_2  and  C_15
REMARK    2  A    between atoms: C_7  and  C_8
REMARK                            x       y       z     vdW  Elec       q    Type
REMARK                         _______ _______ _______ _____ _____    ______ ____
ROOT
ATOM      1  O   UNL     1       8.254   6.494  19.200  0.00  0.00    +0.000 OA
ATOM      2  C   UNL     1       7.669   6.745  18.154  0.00  0.00    +0.000 C 
ATOM      3  N   UNL     1       7.623   7.972  17.516  0.00  0.00    +0.000 N 
ATOM      4  C   UNL     1       8.305   9.049  18.018  0.00  0.00    +0.000 A 
ATOM      5  N   UNL     1       9.097   9.102  19.065  0.00  0.00    +0.000 NA
ATOM      6  N   UNL     1       9.533  10.394  19.218  0.00  0.00    +0.000 NA
ATOM      7  C   UNL     1       8.996  11.122  18.262  0.00  0.00    +0.000 A 
ATOM      8  N   UNL     1       8.247  10.297  17.460  0.00  0.00    +0.000 N 
ATOM      9  H   UNL     1       7.061   8.027  16.675  0.00  0.00    +0.000 HD
ATOM     10  H   UNL     1       7.727  10.599  16.651  0.00  0.00    +0.000 HD
ENDROOT
BRANCH   2  11
ATOM     11  C   UNL     1       6.914   5.703  17.437  0.00  0.00    +0.000 A 
ATOM     12  N   UNL     1       7.492   4.892  16.521  0.00  0.00    +0.000 NA
ATOM     13  N   UNL     1       6.489   4.069  16.152  0.00  0.00    +0.000 N 
ATOM     14  C   UNL     1       5.291   4.317  16.764  0.00  0.00    +0.000 A 
ATOM     15  C   UNL     1       4.042   3.692  16.664  0.00  0.00    +0.000 A 
ATOM     16  C   UNL     1       3.002   4.213  17.443  0.00  0.00    +0.000 A 
ATOM     17  C   UNL     1       3.206   5.309  18.280  0.00  0.00    +0.000 A 
ATOM     18  C   UNL     1       4.464   5.911  18.371  0.00  0.00    +0.000 A 
ATOM     19  C   UNL     1       5.529   5.400  17.601  0.00  0.00    +0.000 A 
ATOM     20  H   UNL     1       6.684   3.344  15.470  0.00  0.00    +0.000 HD
ENDBRANCH   2  11
BRANCH   7  21
ATOM     21  C   UNL     1       9.118  12.558  18.071  0.00  0.00    +0.000 A 
ATOM     22  C   UNL     1      10.352  13.137  17.790  0.00  0.00    +0.000 A 
ATOM     23  C   UNL     1      10.425  14.518  17.654  0.00  0.00    +0.000 A 
ATOM     24  C   UNL     1       9.269  15.275  17.796  0.00  0.00    +0.000 A 
ATOM     25  C   UNL     1       8.079  14.612  18.070  0.00  0.00    +0.000 A 
ATOM     26  N   UNL     1       7.972  13.272  18.217  0.00  0.00    +0.000 NA
ENDBRANCH   7  21
TORSDOF 2
ENDMDL
MODEL 6
REMARK VINA RESULT:      -7.9      3.657      4.707
REMARK  Name = 
REMARK  2 active torsions:
REMARK  status: ('A' for Active; 'I' for Inactive)
REMARK    1  A    between atoms: C_2  and  C_15
REMARK    2  A    between atoms: C_7  and  C_8
REMARK                            x       y       z     vdW  Elec       q    Type
REMARK                         _______ _______ _______ _____ _____    ______ ____
ROOT
ATOM      1  O   UNL     1       3.520   7.512  17.166  0.00  0.00    +0.000 OA
ATOM      2  C   UNL     1       3.217   6.758  18.083  0.00  0.00    +0.000 C 
ATOM      3  N   UNL     1       2.436   7.075  19.180  0.00  0.00    +0.000 N 
ATOM      4  C   UNL     1       1.878   8.321  19.307  0.00  0.00    +0.000 A 
ATOM      5  N   UNL     1       1.928   9.330  18.468  0.00  0.00    +0.000 NA
ATOM      6  N   UNL     1       1.260  10.393  19.022  0.00  0.00    +0.000 NA
ATOM      7  C   UNL     1       0.811  10.022  20.203  0.00  0.00    +0.000 A 
ATOM      8  N   UNL     1       1.148   8.704  20.398  0.00  0.00    +0.000 N 
ATOM      9  H   UNL     1       2.310   6.349  19.874  0.00  0.00    +0.000 HD
ATOM     10  H   UNL     1       0.925   8.171  21.224  0.00  0.00    +0.000 HD
ENDROOT
BRANCH   2  11
ATOM     11  C   UNL     1       3.684   5.361  18.103  0.00  0.00    +0.000 A 
ATOM     12  N   UNL     1       4.985   5.031  17.939  0.00  0.00    +0.000 NA
ATOM     13  N   UNL     1       4.988   3.688  18.073  0.00  0.00    +0.000 N 
ATOM     14  C   UNL     1       3.758   3.133  18.295  0.00  0.00    +0.000 A 
ATOM     15  C   UNL     1       3.352   1.808  18.496  0.00  0.00    +0.000 A 
ATOM     16  C   UNL     1       1.984   1.581  18.693  0.00  0.00    +0.000 A 
ATOM     17  C   UNL     1       1.069   2.633  18.686  0.00  0.00    +0.000 A 
ATOM     18  C   UNL     1       1.499   3.949  18.493  0.00  0.00    +0.000 A 
ATOM     19  C   UNL     1       2.872   4.203  18.299  0.00  0.00    +0.000 A 
ATOM     20  H   UNL     1       5.873   3.197  18.006  0.00  0.00    +0.000 HD
ENDBRANCH   2  11
BRANCH   7  21
ATOM     21  C   UNL     1       0.109  10.840  21.178  0.00  0.00    +0.000 A 
ATOM     22  C   UNL     1      -0.559  10.255  22.249  0.00  0.00    +0.000 A 
ATOM     23  C   UNL     1      -1.249  11.077  23.133  0.00  0.00    +0.000 A 
ATOM     24  C   UNL     1      -1.245  12.450  22.925  0.00  0.00    +0.000 A 
ATOM     25  C   UNL     1      -0.545  12.947  21.834  0.00  0.00    +0.000 A 
ATOM     26  N   UNL     1       0.129  12.178  20.948  0.00  0.00    +0.000 NA
ENDBRANCH   7  21
TORSDOF 2
ENDMDL
MODEL 7
REMARK VINA RESULT:      -7.7      3.730      4.721
REMARK  Name = 
REMARK  2 active torsions:
REMARK  status: ('A' for Active; 'I' for Inactive)
REMARK    1  A    between atoms: C_2  and  C_15
REMARK    2  A    between atoms: C_7  and  C_8
REMARK                            x       y       z     vdW  Elec       q    Type
REMARK                         _______ _______ _______ _____ _____    ______ ____
ROOT
ATOM      1  O   UNL     1       4.196   7.113  16.857  0.00  0.00    +0.000 OA
ATOM      2  C   UNL     1       3.714   6.556  17.836  0.00  0.00    +0.000 C 
ATOM      3  N   UNL     1       2.772   7.086  18.700  0.00  0.00    +0.000 N 
ATOM      4  C   UNL     1       2.249   8.335  18.485  0.00  0.00    +0.000 A 
ATOM      5  N   UNL     1       2.479   9.159  17.488  0.00  0.00    +0.000 NA
ATOM      6  N   UNL     1       1.769  10.313  17.703  0.00  0.00    +0.000 NA
ATOM      7  C   UNL     1       1.113  10.184  18.838  0.00  0.00    +0.000 A 
ATOM      8  N   UNL     1       1.361   8.929  19.338  0.00  0.00    +0.000 N 
ATOM      9  H   UNL     1       2.502   6.511  19.488  0.00  0.00    +0.000 HD
ATOM     10  H   UNL     1       0.981   8.570  20.200  0.00  0.00    +0.000 HD
ENDROOT
BRANCH   2  11
ATOM     11  C   UNL     1       4.116   5.188  18.205  0.00  0.00    +0.000 A 
ATOM     12  N   UNL     1       5.401   4.857  18.467  0.00  0.00    +0.000 NA
ATOM     13  N   UNL     1       5.327   3.553  18.806  0.00  0.00    +0.000 N 
ATOM     14  C   UNL     1       4.069   3.019  18.758  0.00  0.00    +0.000 A 
ATOM     15  C   UNL     1       3.585   1.737  19.043  0.00  0.00    +0.000 A 
ATOM     16  C   UNL     1       2.211   1.522  18.881  0.00  0.00    +0.000 A 
ATOM     17  C   UNL     1       1.365   2.543  18.453  0.00  0.00    +0.000 A 
ATOM     18  C   UNL     1       1.870   3.819  18.184  0.00  0.00    +0.000 A 
ATOM     19  C   UNL     1       3.248   4.062  18.345  0.00  0.00    +0.000 A 
ATOM     20  H   UNL     1       6.181   3.072  19.068  0.00  0.00    +0.000 HD
ENDBRANCH   2  11
BRANCH   7  21
ATOM     21  C   UNL     1       0.289  11.182  19.500  0.00  0.00    +0.000 A 
ATOM     22  C   UNL     1      -0.914  11.598  18.939  0.00  0.00    +0.000 A 
ATOM     23  C   UNL     1      -1.648  12.583  19.590  0.00  0.00    +0.000 A 
ATOM     24  C   UNL     1      -1.164  13.113  20.778  0.00  0.00    +0.000 A 
ATOM     25  C   UNL     1       0.043  12.633  21.270  0.00  0.00    +0.000 A 
ATOM     26  N   UNL     1       0.788  11.683  20.659  0.00  0.00    +0.000 NA
ENDBRANCH   7  21
TORSDOF 2
ENDMDL
MODEL 8
REMARK VINA RESULT:      -7.7      3.713      4.709
REMARK  Name = 
REMARK  2 active torsions:
REMARK  status: ('A' for Active; 'I' for Inactive)
REMARK    1  A    between atoms: C_2  and  C_15
REMARK    2  A    between atoms: C_7  and  C_8
REMARK                            x       y       z     vdW  Elec       q    Type
REMARK                         _______ _______ _______ _____ _____    ______ ____
ROOT
ATOM      1  O   UNL     1       4.192   7.093  16.863  0.00  0.00    +0.000 OA
ATOM      2  C   UNL     1       3.673   6.536  17.822  0.00  0.00    +0.000 C 
ATOM      3  N   UNL     1       2.725   7.078  18.671  0.00  0.00    +0.000 N 
ATOM      4  C   UNL     1       2.238   8.343  18.461  0.00  0.00    +0.000 A 
ATOM      5  N   UNL     1       2.512   9.174  17.481  0.00  0.00    +0.000 NA
ATOM      6  N   UNL     1       1.826  10.342  17.695  0.00  0.00    +0.000 NA
ATOM      7  C   UNL     1       1.140  10.215  18.812  0.00  0.00    +0.000 A 
ATOM      8  N   UNL     1       1.345   8.948  19.301  0.00  0.00    +0.000 N 
ATOM      9  H   UNL     1       2.422   6.500  19.445  0.00  0.00    +0.000 HD
ATOM     10  H   UNL     1       0.936   8.587  20.149  0.00  0.00    +0.000 HD
ENDROOT
BRANCH   2  11
ATOM     11  C   UNL     1       4.033   5.153  18.182  0.00  0.00    +0.000 A 
ATOM     12  N   UNL     1       5.312   4.770  18.395  0.00  0.00    +0.000 NA
ATOM     13  N   UNL     1       5.198   3.472  18.743  0.00  0.00    +0.000 N 
ATOM     14  C   UNL     1       3.918   2.991  18.747  0.00  0.00    +0.000 A 
ATOM     15  C   UNL     1       3.393   1.731  19.058  0.00  0.00    +0.000 A 
ATOM     16  C   UNL     1       2.006   1.572  18.951  0.00  0.00    +0.000 A 
ATOM     17  C   UNL     1       1.187   2.627  18.551  0.00  0.00    +0.000 A 
ATOM     18  C   UNL     1       1.733   3.880  18.256  0.00  0.00    +0.000 A 
ATOM     19  C   UNL     1       3.126   4.065  18.362  0.00  0.00    +0.000 A 
ATOM     20  H   UNL     1       6.042   2.957  18.973  0.00  0.00    +0.000 HD
ENDBRANCH   2  11
BRANCH   7  21
ATOM     21  C   UNL     1       0.325  11.224  19.468  0.00  0.00    +0.000 A 
ATOM     22  C   UNL     1       0.571  11.589  20.788  0.00  0.00    +0.000 A 
ATOM     23  C   UNL     1      -0.260  12.531  21.385  0.00  0.00    +0.000 A 
ATOM     24  C   UNL     1      -1.301  13.080  20.647  0.00  0.00    +0.000 A 
ATOM     25  C   UNL     1      -1.467  12.662  19.333  0.00  0.00    +0.000 A 
ATOM     26  N   UNL     1      -0.684  11.742  18.723  0.00  0.00    +0.000 NA
ENDBRANCH   7  21
TORSDOF 2
ENDMDL
MODEL 9
REMARK VINA RESULT:      -7.6      4.540      5.973
REMARK  Name = 
REMARK  2 active torsions:
REMARK  status: ('A' for Active; 'I' for Inactive)
REMARK    1  A    between atoms: C_2  and  C_15
REMARK    2  A    between atoms: C_7  and  C_8
REMARK                            x       y       z     vdW  Elec       q    Type
REMARK                         _______ _______ _______ _____ _____    ______ ____
ROOT
ATOM      1  O   UNL     1       2.295   7.826  17.837  0.00  0.00    +0.000 OA
ATOM      2  C   UNL     1       2.386   7.348  18.961  0.00  0.00    +0.000 C 
ATOM      3  N   UNL     1       1.902   7.906  20.130  0.00  0.00    +0.000 N 
ATOM      4  C   UNL     1       1.208   9.087  20.108  0.00  0.00    +0.000 A 
ATOM      5  N   UNL     1       0.857   9.812  19.070  0.00  0.00    +0.000 NA
ATOM      6  N   UNL     1       0.208  10.934  19.520  0.00  0.00    +0.000 NA
ATOM      7  C   UNL     1       0.172  10.886  20.835  0.00  0.00    +0.000 A 
ATOM      8  N   UNL     1       0.759   9.711  21.239  0.00  0.00    +0.000 N 
ATOM      9  H   UNL     1       2.094   7.403  20.989  0.00  0.00    +0.000 HD
ATOM     10  H   UNL     1       0.864   9.424  22.200  0.00  0.00    +0.000 HD
ENDROOT
BRANCH   2  11
ATOM     11  C   UNL     1       3.060   6.057  19.184  0.00  0.00    +0.000 A 
ATOM     12  N   UNL     1       4.345   5.839  18.822  0.00  0.00    +0.000 NA
ATOM     13  N   UNL     1       4.580   4.578  19.242  0.00  0.00    +0.000 N 
ATOM     14  C   UNL     1       3.512   3.964  19.836  0.00  0.00    +0.000 A 
ATOM     15  C   UNL     1       3.360   2.693  20.403  0.00  0.00    +0.000 A 
ATOM     16  C   UNL     1       2.104   2.375  20.932  0.00  0.00    +0.000 A 
ATOM     17  C   UNL     1       1.051   3.288  20.892  0.00  0.00    +0.000 A 
ATOM     18  C   UNL     1       1.229   4.555  20.329  0.00  0.00    +0.000 A 
ATOM     19  C   UNL     1       2.487   4.901  19.796  0.00  0.00    +0.000 A 
ATOM     20  H   UNL     1       5.504   4.184  19.096  0.00  0.00    +0.000 HD
ENDBRANCH   2  11
BRANCH   7  21
ATOM     21  C   UNL     1      -0.353  11.893  21.742  0.00  0.00    +0.000 A 
ATOM     22  C   UNL     1      -1.446  11.617  22.557  0.00  0.00    +0.000 A 
ATOM     23  C   UNL     1      -1.936  12.625  23.379  0.00  0.00    +0.000 A 
ATOM     24  C   UNL     1      -1.318  13.869  23.367  0.00  0.00    +0.000 A 
ATOM     25  C   UNL     1      -0.228  14.054  22.527  0.00  0.00    +0.000 A 
ATOM     26  N   UNL     1       0.270  13.099  21.707  0.00  0.00    +0.000 NA
ENDBRANCH   7  21
TORSDOF 2
ENDMDL
