MODEL 1
REMARK VINA RESULT:      -9.3      0.000      0.000
REMARK  Name = 
REMARK  4 active torsions:
REMARK  status: ('A' for Active; 'I' for Inactive)
REMARK    1  A    between atoms: C_2  and  C_18
REMARK    2  A    between atoms: N_3  and  C_4
REMARK    3  A    between atoms: C_9  and  C_10
REMARK    4  A    between atoms: C_22  and  N_23
REMARK                            x       y       z     vdW  Elec       q    Type
REMARK                         _______ _______ _______ _____ _____    ______ ____
ROOT
ATOM      1  O   UNL     1       3.543   6.405  19.636  0.00  0.00    +0.000 OA
ATOM      2  C   UNL     1       3.045   6.987  18.676  0.00  0.00    +0.000 C 
ATOM      3  N   UNL     1       3.351   6.713  17.353  0.00  0.00    +0.000 N 
ATOM      4  H   UNL     1       3.248   7.473  16.701  0.00  0.00    +0.000 HD
ENDROOT
BRANCH   3   5
ATOM      5  C   UNL     1       4.344   5.782  17.003  0.00  0.00    +0.000 A 
ATOM      6  C   UNL     1       5.551   6.348  16.571  0.00  0.00    +0.000 A 
ATOM      7  C   UNL     1       6.641   5.548  16.251  0.00  0.00    +0.000 A 
ATOM      8  C   UNL     1       6.519   4.166  16.318  0.00  0.00    +0.000 A 
ATOM      9  C   UNL     1       5.300   3.591  16.695  0.00  0.00    +0.000 A 
ATOM     10  C   UNL     1       4.183   4.386  17.033  0.00  0.00    +0.000 A 
BRANCH  10  11
ATOM     11  C   UNL     1       2.946   3.624  17.387  0.00  0.00    +0.000 C 
ATOM     12  O   UNL     1       2.107   3.509  16.490  0.00  0.00    +0.000 OA
ATOM     13  N   UNL     1       2.686   3.147  18.684  0.00  0.00    +0.000 N 
ATOM     14  C   UNL     1       1.549   2.238  18.852  0.00  0.00    +0.000 C 
ATOM     15  C   UNL     1       0.737   2.561  20.103  0.00  0.00    +0.000 C 
ATOM     16  C   UNL     1       1.629   2.601  21.339  0.00  0.00    +0.000 C 
ATOM     17  C   UNL     1       2.757   3.600  21.132  0.00  0.00    +0.000 C 
ATOM     18  C   UNL     1       3.542   3.304  19.856  0.00  0.00    +0.000 C 
ENDBRANCH  10  11
ENDBRANCH   3   5
BRANCH   2  19
ATOM     19  C   UNL     1       2.080   8.108  18.912  0.00  0.00    +0.000 A 
ATOM     20  C   UNL     1       1.581   8.782  17.791  0.00  0.00    +0.000 A 
ATOM     21  C   UNL     1       0.680   9.838  17.934  0.00  0.00    +0.000 A 
ATOM     22  C   UNL     1       0.243  10.228  19.198  0.00  0.00    +0.000 A 
ATOM     23  C   UNL     1       0.718   9.560  20.329  0.00  0.00    +0.000 A 
ATOM     24  C   UNL     1       1.646   8.513  20.186  0.00  0.00    +0.000 A 
BRANCH  23  25
ATOM     25  N   UNL     1       0.260   9.908  21.629  0.00  0.00    +0.000 N 
ATOM     26  C   UNL     1      -0.723  10.790  22.004  0.00  0.00    +0.000 A 
ATOM     27  N   UNL     1      -0.834  10.785  23.312  0.00  0.00    +0.000 NA
ATOM     28  N   UNL     1       0.098   9.886  23.763  0.00  0.00    +0.000 NA
ATOM     29  N   UNL     1       0.761   9.346  22.751  0.00  0.00    +0.000 NA
ENDBRANCH  23  25
ENDBRANCH   2  19
TORSDOF 4
ENDMDL
MODEL 2
REMARK VINA RESULT:      -9.1      1.581      4.084
REMARK  Name = 
REMARK  4 active torsions:
REMARK  status: ('A' for Active; 'I' for Inactive)
REMARK    1  A    between atoms: C_2  and  C_18
REMARK    2  A    between atoms: N_3  and  C_4
REMARK    3  A    between atoms: C_9  and  C_10
REMARK    4  A    between atoms: C_22  and  N_23
REMARK                            x       y       z     vdW  Elec       q    Type
REMARK                         _______ _______ _______ _____ _____    ______ ____
ROOT
ATOM      1  O   UNL     1       2.177   5.999  17.861  0.00  0.00    +0.000 OA
ATOM      2  C   UNL     1       2.368   6.611  18.908  0.00  0.00    +0.000 C 
ATOM      3  N   UNL     1       2.880   6.042  20.063  0.00  0.00    +0.000 N 
ATOM      4  H   UNL     1       2.606   6.465  20.933  0.00  0.00    +0.000 HD
ENDROOT
BRANCH   3   5
ATOM      5  C   UNL     1       3.150   4.665  20.149  0.00  0.00    +0.000 A 
ATOM      6  C   UNL     1       2.154   3.913  20.786  0.00  0.00    +0.000 A 
ATOM      7  C   UNL     1       2.258   2.531  20.888  0.00  0.00    +0.000 A 
ATOM      8  C   UNL     1       3.387   1.891  20.392  0.00  0.00    +0.000 A 
ATOM      9  C   UNL     1       4.412   2.640  19.805  0.00  0.00    +0.000 A 
ATOM     10  C   UNL     1       4.321   4.044  19.682  0.00  0.00    +0.000 A 
BRANCH  10  11
ATOM     11  C   UNL     1       5.509   4.705  19.057  0.00  0.00    +0.000 C 
ATOM     12  O   UNL     1       6.143   5.473  19.783  0.00  0.00    +0.000 OA
ATOM     13  N   UNL     1       5.842   4.554  17.699  0.00  0.00    +0.000 N 
ATOM     14  C   UNL     1       7.140   5.076  17.262  0.00  0.00    +0.000 C 
ATOM     15  C   UNL     1       7.044   5.798  15.922  0.00  0.00    +0.000 C 
ATOM     16  C   UNL     1       6.397   4.909  14.866  0.00  0.00    +0.000 C 
ATOM     17  C   UNL     1       5.031   4.443  15.347  0.00  0.00    +0.000 C 
ATOM     18  C   UNL     1       5.120   3.760  16.710  0.00  0.00    +0.000 C 
ENDBRANCH  10  11
ENDBRANCH   3   5
BRANCH   2  19
ATOM     19  C   UNL     1       1.982   8.056  18.999  0.00  0.00    +0.000 A 
ATOM     20  C   UNL     1       2.193   8.856  17.871  0.00  0.00    +0.000 A 
ATOM     21  C   UNL     1       1.858  10.211  17.882  0.00  0.00    +0.000 A 
ATOM     22  C   UNL     1       1.289  10.788  19.014  0.00  0.00    +0.000 A 
ATOM     23  C   UNL     1       1.057  10.005  20.147  0.00  0.00    +0.000 A 
ATOM     24  C   UNL     1       1.418   8.645  20.144  0.00  0.00    +0.000 A 
BRANCH  23  25
ATOM     25  N   UNL     1       0.440  10.555  21.303  0.00  0.00    +0.000 N 
ATOM     26  C   UNL     1      -0.174   9.922  22.354  0.00  0.00    +0.000 A 
ATOM     27  N   UNL     1      -0.585  10.818  23.221  0.00  0.00    +0.000 NA
ATOM     28  N   UNL     1      -0.224  12.034  22.701  0.00  0.00    +0.000 NA
ATOM     29  N   UNL     1       0.402  11.885  21.543  0.00  0.00    +0.000 NA
ENDBRANCH  23  25
ENDBRANCH   2  19
TORSDOF 4
ENDMDL
MODEL 3
REMARK VINA RESULT:      -9.1      1.460      3.967
REMARK  Name = 
REMARK  4 active torsions:
REMARK  status: ('A' for Active; 'I' for Inactive)
REMARK    1  A    between atoms: C_2  and  C_18
REMARK    2  A    between atoms: N_3  and  C_4
REMARK    3  A    between atoms: C_9  and  C_10
REMARK    4  A    between atoms: C_22  and  N_23
REMARK                            x       y       z     vdW  Elec       q    Type
REMARK                         _______ _______ _______ _____ _____    ______ ____
ROOT
ATOM      1  O   UNL     1       2.861   6.310  17.452  0.00  0.00    +0.000 OA
ATOM      2  C   UNL     1       2.435   6.588  18.569  0.00  0.00    +0.000 C 
ATOM      3  N   UNL     1       2.261   5.667  19.590  0.00  0.00    +0.000 N 
ATOM      4  H   UNL     1       1.546   5.875  20.266  0.00  0.00    +0.000 HD
ENDROOT
BRANCH   3   5
ATOM      5  C   UNL     1       2.488   4.294  19.392  0.00  0.00    +0.000 A 
ATOM      6  C   UNL     1       1.367   3.480  19.606  0.00  0.00    +0.000 A 
ATOM      7  C   UNL     1       1.429   2.109  19.388  0.00  0.00    +0.000 A 
ATOM      8  C   UNL     1       2.629   1.532  18.993  0.00  0.00    +0.000 A 
ATOM      9  C   UNL     1       3.766   2.330  18.831  0.00  0.00    +0.000 A 
ATOM     10  C   UNL     1       3.723   3.726  19.038  0.00  0.00    +0.000 A 
BRANCH  10  11
ATOM     11  C   UNL     1       5.026   4.436  18.851  0.00  0.00    +0.000 C 
ATOM     12  O   UNL     1       5.429   5.088  19.817  0.00  0.00    +0.000 OA
ATOM     13  N   UNL     1       5.717   4.457  17.627  0.00  0.00    +0.000 N 
ATOM     14  C   UNL     1       7.077   5.003  17.631  0.00  0.00    +0.000 C 
ATOM     15  C   UNL     1       7.339   5.897  16.422  0.00  0.00    +0.000 C 
ATOM     16  C   UNL     1       7.015   5.169  15.122  0.00  0.00    +0.000 C 
ATOM     17  C   UNL     1       5.576   4.675  15.150  0.00  0.00    +0.000 C 
ATOM     18  C   UNL     1       5.302   3.817  16.383  0.00  0.00    +0.000 C 
ENDBRANCH  10  11
ENDBRANCH   3   5
BRANCH   2  19
ATOM     19  C   UNL     1       2.012   7.993  18.869  0.00  0.00    +0.000 A 
ATOM     20  C   UNL     1       2.137   8.940  17.845  0.00  0.00    +0.000 A 
ATOM     21  C   UNL     1       1.764  10.270  18.052  0.00  0.00    +0.000 A 
ATOM     22  C   UNL     1       1.241  10.675  19.277  0.00  0.00    +0.000 A 
ATOM     23  C   UNL     1       1.096   9.743  20.308  0.00  0.00    +0.000 A 
ATOM     24  C   UNL     1       1.495   8.409  20.108  0.00  0.00    +0.000 A 
BRANCH  23  25
ATOM     25  N   UNL     1       0.528  10.117  21.555  0.00  0.00    +0.000 N 
ATOM     26  C   UNL     1      -0.357  11.125  21.848  0.00  0.00    +0.000 A 
ATOM     27  N   UNL     1      -0.638  11.097  23.130  0.00  0.00    +0.000 NA
ATOM     28  N   UNL     1       0.087  10.055  23.650  0.00  0.00    +0.000 NA
ATOM     29  N   UNL     1       0.791   9.452  22.703  0.00  0.00    +0.000 NA
ENDBRANCH  23  25
ENDBRANCH   2  19
TORSDOF 4
ENDMDL
MODEL 4
REMARK VINA RESULT:      -8.8      1.744      2.273
REMARK  Name = 
REMARK  4 active torsions:
REMARK  status: ('A' for Active; 'I' for Inactive)
REMARK    1  A    between atoms: C_2  and  C_18
REMARK    2  A    between atoms: N_3  and  C_4
REMARK    3  A    between atoms: C_9  and  C_10
REMARK    4  A    between atoms: C_22  and  N_23
REMARK                            x       y       z     vdW  Elec       q    Type
REMARK                         _______ _______ _______ _____ _____    ______ ____
ROOT
ATOM      1  O   UNL     1       3.029   7.925  16.758  0.00  0.00    +0.000 OA
ATOM      2  C   UNL     1       3.026   7.566  17.933  0.00  0.00    +0.000 C 
ATOM      3  N   UNL     1       3.809   6.541  18.438  0.00  0.00    +0.000 N 
ATOM      4  H   UNL     1       3.449   6.053  19.240  0.00  0.00    +0.000 HD
ENDROOT
BRANCH   3   5
ATOM      5  C   UNL     1       4.628   5.759  17.605  0.00  0.00    +0.000 A 
ATOM      6  C   UNL     1       5.814   6.385  17.197  0.00  0.00    +0.000 A 
ATOM      7  C   UNL     1       6.748   5.708  16.422  0.00  0.00    +0.000 A 
ATOM      8  C   UNL     1       6.483   4.408  16.010  0.00  0.00    +0.000 A 
ATOM      9  C   UNL     1       5.277   3.796  16.367  0.00  0.00    +0.000 A 
ATOM     10  C   UNL     1       4.319   4.463  17.161  0.00  0.00    +0.000 A 
BRANCH  10  11
ATOM     11  C   UNL     1       3.070   3.685  17.435  0.00  0.00    +0.000 C 
ATOM     12  O   UNL     1       2.338   3.481  16.463  0.00  0.00    +0.000 OA
ATOM     13  N   UNL     1       2.682   3.290  18.727  0.00  0.00    +0.000 N 
ATOM     14  C   UNL     1       1.558   2.357  18.837  0.00  0.00    +0.000 C 
ATOM     15  C   UNL     1       0.606   2.737  19.967  0.00  0.00    +0.000 C 
ATOM     16  C   UNL     1       1.356   2.891  21.285  0.00  0.00    +0.000 C 
ATOM     17  C   UNL     1       2.473   3.912  21.130  0.00  0.00    +0.000 C 
ATOM     18  C   UNL     1       3.400   3.555  19.970  0.00  0.00    +0.000 C 
ENDBRANCH  10  11
ENDBRANCH   3   5
BRANCH   2  19
ATOM     19  C   UNL     1       2.087   8.218  18.900  0.00  0.00    +0.000 A 
ATOM     20  C   UNL     1       1.947   7.632  20.164  0.00  0.00    +0.000 A 
ATOM     21  C   UNL     1       1.089   8.183  21.117  0.00  0.00    +0.000 A 
ATOM     22  C   UNL     1       0.370   9.341  20.834  0.00  0.00    +0.000 A 
ATOM     23  C   UNL     1       0.505   9.950  19.584  0.00  0.00    +0.000 A 
ATOM     24  C   UNL     1       1.350   9.380  18.615  0.00  0.00    +0.000 A 
BRANCH  23  25
ATOM     25  N   UNL     1      -0.185  11.155  19.280  0.00  0.00    +0.000 N 
ATOM     26  C   UNL     1       0.308  12.363  18.851  0.00  0.00    +0.000 A 
ATOM     27  N   UNL     1      -0.688  13.198  18.668  0.00  0.00    +0.000 NA
ATOM     28  N   UNL     1      -1.824  12.502  18.992  0.00  0.00    +0.000 NA
ATOM     29  N   UNL     1      -1.530  11.263  19.358  0.00  0.00    +0.000 NA
ENDBRANCH  23  25
ENDBRANCH   2  19
TORSDOF 4
ENDMDL
MODEL 5
REMARK VINA RESULT:      -8.7      1.572      3.654
REMARK  Name = 
REMARK  4 active torsions:
REMARK  status: ('A' for Active; 'I' for Inactive)
REMARK    1  A    between atoms: C_2  and  C_18
REMARK    2  A    between atoms: N_3  and  C_4
REMARK    3  A    between atoms: C_9  and  C_10
REMARK    4  A    between atoms: C_22  and  N_23
REMARK                            x       y       z     vdW  Elec       q    Type
REMARK                         _______ _______ _______ _____ _____    ______ ____
ROOT
ATOM      1  O   UNL     1       2.658   5.840  20.669  0.00  0.00    +0.000 OA
ATOM      2  C   UNL     1       2.182   6.261  19.619  0.00  0.00    +0.000 C 
ATOM      3  N   UNL     1       2.007   5.494  18.478  0.00  0.00    +0.000 N 
ATOM      4  H   UNL     1       2.030   5.983  17.600  0.00  0.00    +0.000 HD
ENDROOT
BRANCH   3   5
ATOM      5  C   UNL     1       2.450   4.162  18.410  0.00  0.00    +0.000 A 
ATOM      6  C   UNL     1       1.672   3.250  19.135  0.00  0.00    +0.000 A 
ATOM      7  C   UNL     1       1.956   1.889  19.108  0.00  0.00    +0.000 A 
ATOM      8  C   UNL     1       3.053   1.433  18.387  0.00  0.00    +0.000 A 
ATOM      9  C   UNL     1       3.867   2.343  17.705  0.00  0.00    +0.000 A 
ATOM     10  C   UNL     1       3.590   3.728  17.712  0.00  0.00    +0.000 A 
BRANCH  10  11
ATOM     11  C   UNL     1       4.568   4.574  16.960  0.00  0.00    +0.000 C 
ATOM     12  O   UNL     1       4.558   4.449  15.733  0.00  0.00    +0.000 OA
ATOM     13  N   UNL     1       5.519   5.393  17.594  0.00  0.00    +0.000 N 
ATOM     14  C   UNL     1       6.271   6.328  16.754  0.00  0.00    +0.000 C 
ATOM     15  C   UNL     1       7.750   6.371  17.127  0.00  0.00    +0.000 C 
ATOM     16  C   UNL     1       7.931   6.661  18.613  0.00  0.00    +0.000 C 
ATOM     17  C   UNL     1       7.178   5.628  19.437  0.00  0.00    +0.000 C 
ATOM     18  C   UNL     1       5.707   5.552  19.033  0.00  0.00    +0.000 C 
ENDBRANCH  10  11
ENDBRANCH   3   5
BRANCH   2  19
ATOM     19  C   UNL     1       1.805   7.706  19.507  0.00  0.00    +0.000 A 
ATOM     20  C   UNL     1       2.005   8.335  18.272  0.00  0.00    +0.000 A 
ATOM     21  C   UNL     1       1.678   9.681  18.094  0.00  0.00    +0.000 A 
ATOM     22  C   UNL     1       1.127  10.418  19.138  0.00  0.00    +0.000 A 
ATOM     23  C   UNL     1       0.907   9.806  20.375  0.00  0.00    +0.000 A 
ATOM     24  C   UNL     1       1.260   8.458  20.562  0.00  0.00    +0.000 A 
BRANCH  23  25
ATOM     25  N   UNL     1       0.308  10.522  21.447  0.00  0.00    +0.000 N 
ATOM     26  C   UNL     1      -0.016  11.852  21.540  0.00  0.00    +0.000 A 
ATOM     27  N   UNL     1      -0.576  12.082  22.705  0.00  0.00    +0.000 NA
ATOM     28  N   UNL     1      -0.601  10.874  23.353  0.00  0.00    +0.000 NA
ATOM     29  N   UNL     1      -0.073   9.923  22.598  0.00  0.00    +0.000 NA
ENDBRANCH  23  25
ENDBRANCH   2  19
TORSDOF 4
ENDMDL
MODEL 6
REMARK VINA RESULT:      -8.7      1.230      1.791
REMARK  Name = 
REMARK  4 active torsions:
REMARK  status: ('A' for Active; 'I' for Inactive)
REMARK    1  A    between atoms: C_2  and  C_18
REMARK    2  A    between atoms: N_3  and  C_4
REMARK    3  A    between atoms: C_9  and  C_10
REMARK    4  A    between atoms: C_22  and  N_23
REMARK                            x       y       z     vdW  Elec       q    Type
REMARK                         _______ _______ _______ _____ _____    ______ ____
ROOT
ATOM      1  O   UNL     1       1.682   6.929  17.425  0.00  0.00    +0.000 OA
ATOM      2  C   UNL     1       2.492   7.786  17.766  0.00  0.00    +0.000 C 
ATOM      3  N   UNL     1       3.862   7.680  17.587  0.00  0.00    +0.000 N 
ATOM      4  H   UNL     1       4.441   8.176  18.243  0.00  0.00    +0.000 HD
ENDROOT
BRANCH   3   5
ATOM      5  C   UNL     1       4.450   6.517  17.062  0.00  0.00    +0.000 A 
ATOM      6  C   UNL     1       4.869   6.624  15.729  0.00  0.00    +0.000 A 
ATOM      7  C   UNL     1       5.523   5.572  15.099  0.00  0.00    +0.000 A 
ATOM      8  C   UNL     1       5.725   4.382  15.786  0.00  0.00    +0.000 A 
ATOM      9  C   UNL     1       5.261   4.247  17.099  0.00  0.00    +0.000 A 
ATOM     10  C   UNL     1       4.603   5.307  17.760  0.00  0.00    +0.000 A 
BRANCH  10  11
ATOM     11  C   UNL     1       4.142   4.999  19.150  0.00  0.00    +0.000 C 
ATOM     12  O   UNL     1       4.949   5.236  20.051  0.00  0.00    +0.000 OA
ATOM     13  N   UNL     1       2.909   4.383  19.429  0.00  0.00    +0.000 N 
ATOM     14  C   UNL     1       2.483   4.331  20.830  0.00  0.00    +0.000 C 
ATOM     15  C   UNL     1       1.879   2.978  21.195  0.00  0.00    +0.000 C 
ATOM     16  C   UNL     1       0.753   2.606  20.238  0.00  0.00    +0.000 C 
ATOM     17  C   UNL     1       1.264   2.620  18.805  0.00  0.00    +0.000 C 
ATOM     18  C   UNL     1       1.909   3.959  18.453  0.00  0.00    +0.000 C 
ENDBRANCH  10  11
ENDBRANCH   3   5
BRANCH   2  19
ATOM     19  C   UNL     1       2.012   9.015  18.475  0.00  0.00    +0.000 A 
ATOM     20  C   UNL     1       2.074  10.230  17.783  0.00  0.00    +0.000 A 
ATOM     21  C   UNL     1       1.645  11.417  18.380  0.00  0.00    +0.000 A 
ATOM     22  C   UNL     1       1.127  11.410  19.672  0.00  0.00    +0.000 A 
ATOM     23  C   UNL     1       1.044  10.206  20.377  0.00  0.00    +0.000 A 
ATOM     24  C   UNL     1       1.500   9.015  19.784  0.00  0.00    +0.000 A 
BRANCH  23  25
ATOM     25  N   UNL     1       0.482  10.160  21.681  0.00  0.00    +0.000 N 
ATOM     26  C   UNL     1      -0.679  10.719  22.156  0.00  0.00    +0.000 A 
ATOM     27  N   UNL     1      -0.825  10.405  23.422  0.00  0.00    +0.000 NA
ATOM     28  N   UNL     1       0.264   9.638  23.746  0.00  0.00    +0.000 NA
ATOM     29  N   UNL     1       1.058   9.480  22.698  0.00  0.00    +0.000 NA
ENDBRANCH  23  25
ENDBRANCH   2  19
TORSDOF 4
ENDMDL
MODEL 7
REMARK VINA RESULT:      -8.7      1.764      4.075
REMARK  Name = 
REMARK  4 active torsions:
REMARK  status: ('A' for Active; 'I' for Inactive)
REMARK    1  A    between atoms: C_2  and  C_18
REMARK    2  A    between atoms: N_3  and  C_4
REMARK    3  A    between atoms: C_9  and  C_10
REMARK    4  A    between atoms: C_22  and  N_23
REMARK                            x       y       z     vdW  Elec       q    Type
REMARK                         _______ _______ _______ _____ _____    ______ ____
ROOT
ATOM      1  O   UNL     1       2.117   5.933  20.890  0.00  0.00    +0.000 OA
ATOM      2  C   UNL     1       1.956   6.344  19.744  0.00  0.00    +0.000 C 
ATOM      3  N   UNL     1       2.000   5.544  18.614  0.00  0.00    +0.000 N 
ATOM      4  H   UNL     1       2.283   5.990  17.759  0.00  0.00    +0.000 HD
ENDROOT
BRANCH   3   5
ATOM      5  C   UNL     1       2.325   4.178  18.689  0.00  0.00    +0.000 A 
ATOM      6  C   UNL     1       1.230   3.329  18.899  0.00  0.00    +0.000 A 
ATOM      7  C   UNL     1       1.394   1.949  18.932  0.00  0.00    +0.000 A 
ATOM      8  C   UNL     1       2.666   1.407  18.800  0.00  0.00    +0.000 A 
ATOM      9  C   UNL     1       3.771   2.250  18.646  0.00  0.00    +0.000 A 
ATOM     10  C   UNL     1       3.625   3.654  18.600  0.00  0.00    +0.000 A 
BRANCH  10  11
ATOM     11  C   UNL     1       4.903   4.421  18.459  0.00  0.00    +0.000 C 
ATOM     12  O   UNL     1       5.207   5.143  19.411  0.00  0.00    +0.000 OA
ATOM     13  N   UNL     1       5.673   4.413  17.283  0.00  0.00    +0.000 N 
ATOM     14  C   UNL     1       7.002   5.028  17.344  0.00  0.00    +0.000 C 
ATOM     15  C   UNL     1       7.301   5.870  16.107  0.00  0.00    +0.000 C 
ATOM     16  C   UNL     1       7.102   5.059  14.832  0.00  0.00    +0.000 C 
ATOM     17  C   UNL     1       5.690   4.493  14.793  0.00  0.00    +0.000 C 
ATOM     18  C   UNL     1       5.375   3.688  16.052  0.00  0.00    +0.000 C 
ENDBRANCH  10  11
ENDBRANCH   3   5
BRANCH   2  19
ATOM     19  C   UNL     1       1.750   7.809  19.509  0.00  0.00    +0.000 A 
ATOM     20  C   UNL     1       2.078   8.315  18.246  0.00  0.00    +0.000 A 
ATOM     21  C   UNL     1       1.914   9.671  17.954  0.00  0.00    +0.000 A 
ATOM     22  C   UNL     1       1.400  10.542  18.910  0.00  0.00    +0.000 A 
ATOM     23  C   UNL     1       1.053  10.055  20.173  0.00  0.00    +0.000 A 
ATOM     24  C   UNL     1       1.243   8.694  20.475  0.00  0.00    +0.000 A 
BRANCH  23  25
ATOM     25  N   UNL     1       0.488  10.911  21.156  0.00  0.00    +0.000 N 
ATOM     26  C   UNL     1      -0.307  10.605  22.233  0.00  0.00    +0.000 A 
ATOM     27  N   UNL     1      -0.582  11.704  22.896  0.00  0.00    +0.000 NA
ATOM     28  N   UNL     1       0.049  12.717  22.220  0.00  0.00    +0.000 NA
ATOM     29  N   UNL     1       0.704  12.246  21.169  0.00  0.00    +0.000 NA
ENDBRANCH  23  25
ENDBRANCH   2  19
TORSDOF 4
ENDMDL
MODEL 8
REMARK VINA RESULT:      -8.2      1.690      2.109
REMARK  Name = 
REMARK  4 active torsions:
REMARK  status: ('A' for Active; 'I' for Inactive)
REMARK    1  A    between atoms: C_2  and  C_18
REMARK    2  A    between atoms: N_3  and  C_4
REMARK    3  A    between atoms: C_9  and  C_10
REMARK    4  A    between atoms: C_22  and  N_23
REMARK                            x       y       z     vdW  Elec       q    Type
REMARK                         _______ _______ _______ _____ _____    ______ ____
ROOT
ATOM      1  O   UNL     1       2.142   8.218  17.241  0.00  0.00    +0.000 OA
ATOM      2  C   UNL     1       2.414   7.882  18.391  0.00  0.00    +0.000 C 
ATOM      3  N   UNL     1       3.342   6.907  18.719  0.00  0.00    +0.000 N 
ATOM      4  H   UNL     1       3.191   6.416  19.585  0.00  0.00    +0.000 HD
ENDROOT
BRANCH   3   5
ATOM      5  C   UNL     1       3.999   6.151  17.734  0.00  0.00    +0.000 A 
ATOM      6  C   UNL     1       5.110   6.783  17.157  0.00  0.00    +0.000 A 
ATOM      7  C   UNL     1       5.892   6.129  16.213  0.00  0.00    +0.000 A 
ATOM      8  C   UNL     1       5.544   4.848  15.803  0.00  0.00    +0.000 A 
ATOM      9  C   UNL     1       4.405   4.232  16.332  0.00  0.00    +0.000 A 
ATOM     10  C   UNL     1       3.602   4.875  17.300  0.00  0.00    +0.000 A 
BRANCH  10  11
ATOM     11  C   UNL     1       2.404   4.098  17.748  0.00  0.00    +0.000 C 
ATOM     12  O   UNL     1       1.447   4.087  16.971  0.00  0.00    +0.000 OA
ATOM     13  N   UNL     1       2.314   3.495  19.015  0.00  0.00    +0.000 N 
ATOM     14  C   UNL     1       1.186   2.590  19.251  0.00  0.00    +0.000 C 
ATOM     15  C   UNL     1       0.566   2.795  20.630  0.00  0.00    +0.000 C 
ATOM     16  C   UNL     1       1.622   2.696  21.725  0.00  0.00    +0.000 C 
ATOM     17  C   UNL     1       2.737   3.695  21.461  0.00  0.00    +0.000 C 
ATOM     18  C   UNL     1       3.328   3.520  20.064  0.00  0.00    +0.000 C 
ENDBRANCH  10  11
ENDBRANCH   3   5
BRANCH   2  19
ATOM     19  C   UNL     1       1.675   8.504  19.536  0.00  0.00    +0.000 A 
ATOM     20  C   UNL     1       1.478   7.724  20.681  0.00  0.00    +0.000 A 
ATOM     21  C   UNL     1       0.798   8.237  21.787  0.00  0.00    +0.000 A 
ATOM     22  C   UNL     1       0.319   9.544  21.778  0.00  0.00    +0.000 A 
ATOM     23  C   UNL     1       0.517  10.344  20.650  0.00  0.00    +0.000 A 
ATOM     24  C   UNL     1       1.180   9.819  19.526  0.00  0.00    +0.000 A 
BRANCH  23  25
ATOM     25  N   UNL     1       0.076  11.695  20.626  0.00  0.00    +0.000 N 
ATOM     26  C   UNL     1      -1.055  12.238  20.068  0.00  0.00    +0.000 A 
ATOM     27  N   UNL     1      -1.079  13.529  20.305  0.00  0.00    +0.000 NA
ATOM     28  N   UNL     1       0.059  13.799  21.021  0.00  0.00    +0.000 NA
ATOM     29  N   UNL     1       0.761  12.694  21.226  0.00  0.00    +0.000 NA
ENDBRANCH  23  25
ENDBRANCH   2  19
TORSDOF 4
ENDMDL
MODEL 9
REMARK VINA RESULT:      -7.9      2.245      4.630
REMARK  Name = 
REMARK  4 active torsions:
REMARK  status: ('A' for Active; 'I' for Inactive)
REMARK    1  A    between atoms: C_2  and  C_18
REMARK    2  A    between atoms: N_3  and  C_4
REMARK    3  A    between atoms: C_9  and  C_10
REMARK    4  A    between atoms: C_22  and  N_23
REMARK                            x       y       z     vdW  Elec       q    Type
REMARK                         _______ _______ _______ _____ _____    ______ ____
ROOT
ATOM      1  O   UNL     1       2.131   6.814  18.055  0.00  0.00    +0.000 OA
ATOM      2  C   UNL     1       1.927   6.804  19.266  0.00  0.00    +0.000 C 
ATOM      3  N   UNL     1       1.956   5.664  20.053  0.00  0.00    +0.000 N 
ATOM      4  H   UNL     1       1.385   5.674  20.881  0.00  0.00    +0.000 HD
ENDROOT
BRANCH   3   5
ATOM      5  C   UNL     1       2.145   4.388  19.497  0.00  0.00    +0.000 A 
ATOM      6  C   UNL     1       1.017   3.557  19.545  0.00  0.00    +0.000 A 
ATOM      7  C   UNL     1       1.040   2.289  18.977  0.00  0.00    +0.000 A 
ATOM      8  C   UNL     1       2.210   1.821  18.391  0.00  0.00    +0.000 A 
ATOM      9  C   UNL     1       3.356   2.623  18.388  0.00  0.00    +0.000 A 
ATOM     10  C   UNL     1       3.352   3.918  18.952  0.00  0.00    +0.000 A 
BRANCH  10  11
ATOM     11  C   UNL     1       4.661   4.639  18.895  0.00  0.00    +0.000 C 
ATOM     12  O   UNL     1       4.953   5.307  19.889  0.00  0.00    +0.000 OA
ATOM     13  N   UNL     1       5.478   4.653  17.750  0.00  0.00    +0.000 N 
ATOM     14  C   UNL     1       6.825   5.212  17.891  0.00  0.00    +0.000 C 
ATOM     15  C   UNL     1       7.206   6.095  16.706  0.00  0.00    +0.000 C 
ATOM     16  C   UNL     1       7.028   5.347  15.389  0.00  0.00    +0.000 C 
ATOM     17  C   UNL     1       5.600   4.839  15.270  0.00  0.00    +0.000 C 
ATOM     18  C   UNL     1       5.203   3.993  16.478  0.00  0.00    +0.000 C 
ENDBRANCH  10  11
ENDBRANCH   3   5
BRANCH   2  19
ATOM     19  C   UNL     1       1.566   8.080  19.964  0.00  0.00    +0.000 A 
ATOM     20  C   UNL     1       1.515   8.062  21.362  0.00  0.00    +0.000 A 
ATOM     21  C   UNL     1       1.184   9.213  22.080  0.00  0.00    +0.000 A 
ATOM     22  C   UNL     1       0.918  10.407  21.417  0.00  0.00    +0.000 A 
ATOM     23  C   UNL     1       0.977  10.450  20.021  0.00  0.00    +0.000 A 
ATOM     24  C   UNL     1       1.285   9.284  19.297  0.00  0.00    +0.000 A 
BRANCH  23  25
ATOM     25  N   UNL     1       0.750  11.664  19.318  0.00  0.00    +0.000 N 
ATOM     26  C   UNL     1       1.617  12.693  19.044  0.00  0.00    +0.000 A 
ATOM     27  N   UNL     1       0.992  13.611  18.344  0.00  0.00    +0.000 NA
ATOM     28  N   UNL     1      -0.288  13.150  18.179  0.00  0.00    +0.000 NA
ATOM     29  N   UNL     1      -0.443  11.969  18.761  0.00  0.00    +0.000 NA
ENDBRANCH  23  25
ENDBRANCH   2  19
TORSDOF 4
ENDMDL
