MODEL 1
REMARK VINA RESULT:      -8.6      0.000      0.000
REMARK  Name = 
REMARK  4 active torsions:
REMARK  status: ('A' for Active; 'I' for Inactive)
REMARK    1  A    between atoms: C_1  and  C_2
REMARK    2  A    between atoms: C_7  and  C_8
REMARK    3  A    between atoms: N_10  and  C_11
REMARK    4  A    between atoms: C_15  and  C_16
REMARK                            x       y       z     vdW  Elec       q    Type
REMARK                         _______ _______ _______ _____ _____    ______ ____
ROOT
ATOM      1  C   UNL     1       1.666   7.310  20.182  0.00  0.00    +0.000 C 
ATOM      2  O   UNL     1       1.772   6.381  20.980  0.00  0.00    +0.000 OA
ATOM      3  N   UNL     1       2.048   7.210  18.850  0.00  0.00    +0.000 N 
ATOM      4  H   UNL     1       2.255   8.085  18.383  0.00  0.00    +0.000 HD
ENDROOT
BRANCH   1  11
ATOM      5  C   UNL     1      -1.342  13.168  23.307  0.00  0.00    +0.000 C 
ATOM      6  C   UNL     1      -0.664  12.303  22.280  0.00  0.00    +0.000 A 
ATOM      7  C   UNL     1      -0.474  12.769  20.970  0.00  0.00    +0.000 A 
ATOM      8  C   UNL     1       0.145  11.958  20.013  0.00  0.00    +0.000 A 
ATOM      9  C   UNL     1       0.511  10.695  20.463  0.00  0.00    +0.000 A 
ATOM     10  O   UNL     1       1.096   9.676  19.751  0.00  0.00    +0.000 OA
ATOM     11  C   UNL     1       1.203   8.613  20.619  0.00  0.00    +0.000 A 
ATOM     12  C   UNL     1       0.754   8.978  21.875  0.00  0.00    +0.000 A 
ATOM     13  C   UNL     1       0.293  10.297  21.777  0.00  0.00    +0.000 A 
ATOM     14  N   UNL     1      -0.286  11.081  22.710  0.00  0.00    +0.000 NA
ENDBRANCH   1  11
BRANCH   3  15
ATOM     15  C   UNL     1       2.603   6.015  18.343  0.00  0.00    +0.000 A 
ATOM     16  C   UNL     1       1.771   4.922  18.114  0.00  0.00    +0.000 A 
ATOM     17  C   UNL     1       2.286   3.782  17.493  0.00  0.00    +0.000 A 
ATOM     18  C   UNL     1       3.646   3.703  17.179  0.00  0.00    +0.000 A 
ATOM     19  C   UNL     1       4.513   4.760  17.482  0.00  0.00    +0.000 A 
ATOM     20  C   UNL     1       3.971   5.924  18.044  0.00  0.00    +0.000 A 
BRANCH  19  21
ATOM     21  C   UNL     1       5.948   4.606  17.253  0.00  0.00    +0.000 A 
ATOM     22  N   UNL     1       6.586   4.675  16.098  0.00  0.00    +0.000 NA
ATOM     23  N   UNL     1       7.906   4.397  16.362  0.00  0.00    +0.000 NA
ATOM     24  N   UNL     1       8.095   4.184  17.654  0.00  0.00    +0.000 NA
ATOM     25  N   UNL     1       6.886   4.332  18.211  0.00  0.00    +0.000 N 
ATOM     26  H   UNL     1       6.782   4.234  19.212  0.00  0.00    +0.000 HD
ENDBRANCH  19  21
ENDBRANCH   3  15
TORSDOF 3
ENDMDL
MODEL 2
REMARK VINA RESULT:      -8.5      1.096      1.724
REMARK  Name = 
REMARK  4 active torsions:
REMARK  status: ('A' for Active; 'I' for Inactive)
REMARK    1  A    between atoms: C_1  and  C_2
REMARK    2  A    between atoms: C_7  and  C_8
REMARK    3  A    between atoms: N_10  and  C_11
REMARK    4  A    between atoms: C_15  and  C_16
REMARK                            x       y       z     vdW  Elec       q    Type
REMARK                         _______ _______ _______ _____ _____    ______ ____
ROOT
ATOM      1  C   UNL     1       1.865   8.121  19.129  0.00  0.00    +0.000 C 
ATOM      2  O   UNL     1       2.317   8.438  18.030  0.00  0.00    +0.000 OA
ATOM      3  N   UNL     1       1.964   6.835  19.645  0.00  0.00    +0.000 N 
ATOM      4  H   UNL     1       1.282   6.589  20.353  0.00  0.00    +0.000 HD
ENDROOT
BRANCH   1  11
ATOM      5  C   UNL     1      -1.030  13.812  22.644  0.00  0.00    +0.000 C 
ATOM      6  C   UNL     1      -0.696  12.389  22.288  0.00  0.00    +0.000 A 
ATOM      7  C   UNL     1      -1.049  11.338  23.149  0.00  0.00    +0.000 A 
ATOM      8  C   UNL     1      -0.725  10.017  22.822  0.00  0.00    +0.000 A 
ATOM      9  C   UNL     1      -0.031   9.861  21.628  0.00  0.00    +0.000 A 
ATOM     10  O   UNL     1       0.450   8.702  21.070  0.00  0.00    +0.000 OA
ATOM     11  C   UNL     1       1.115   9.074  19.924  0.00  0.00    +0.000 A 
ATOM     12  C   UNL     1       0.999  10.438  19.728  0.00  0.00    +0.000 A 
ATOM     13  C   UNL     1       0.287  10.949  20.821  0.00  0.00    +0.000 A 
ATOM     14  N   UNL     1      -0.039  12.223  21.121  0.00  0.00    +0.000 NA
ENDBRANCH   1  11
BRANCH   3  15
ATOM     15  C   UNL     1       2.590   5.805  18.910  0.00  0.00    +0.000 A 
ATOM     16  C   UNL     1       1.803   4.865  18.250  0.00  0.00    +0.000 A 
ATOM     17  C   UNL     1       2.408   3.922  17.416  0.00  0.00    +0.000 A 
ATOM     18  C   UNL     1       3.801   3.866  17.309  0.00  0.00    +0.000 A 
ATOM     19  C   UNL     1       4.611   4.749  18.034  0.00  0.00    +0.000 A 
ATOM     20  C   UNL     1       3.989   5.733  18.814  0.00  0.00    +0.000 A 
BRANCH  19  21
ATOM     21  C   UNL     1       6.063   4.594  17.997  0.00  0.00    +0.000 A 
ATOM     22  N   UNL     1       6.920   4.845  18.971  0.00  0.00    +0.000 NA
ATOM     23  N   UNL     1       8.175   4.624  18.457  0.00  0.00    +0.000 NA
ATOM     24  N   UNL     1       8.105   4.219  17.198  0.00  0.00    +0.000 NA
ATOM     25  N   UNL     1       6.796   4.182  16.918  0.00  0.00    +0.000 N 
ATOM     26  H   UNL     1       6.490   3.877  16.003  0.00  0.00    +0.000 HD
ENDBRANCH  19  21
ENDBRANCH   3  15
TORSDOF 3
ENDMDL
MODEL 3
REMARK VINA RESULT:      -8.5      5.916      7.609
REMARK  Name = 
REMARK  4 active torsions:
REMARK  status: ('A' for Active; 'I' for Inactive)
REMARK    1  A    between atoms: C_1  and  C_2
REMARK    2  A    between atoms: C_7  and  C_8
REMARK    3  A    between atoms: N_10  and  C_11
REMARK    4  A    between atoms: C_15  and  C_16
REMARK                            x       y       z     vdW  Elec       q    Type
REMARK                         _______ _______ _______ _____ _____    ______ ____
ROOT
ATOM      1  C   UNL     1       7.855   7.869  18.153  0.00  0.00    +0.000 C 
ATOM      2  O   UNL     1       8.268   6.907  18.798  0.00  0.00    +0.000 OA
ATOM      3  N   UNL     1       6.895   7.754  17.156  0.00  0.00    +0.000 N 
ATOM      4  H   UNL     1       6.882   8.496  16.466  0.00  0.00    +0.000 HD
ENDROOT
BRANCH   1  11
ATOM      5  C   UNL     1      10.536  14.638  17.805  0.00  0.00    +0.000 C 
ATOM      6  C   UNL     1      10.248  13.254  18.320  0.00  0.00    +0.000 A 
ATOM      7  C   UNL     1      10.932  12.755  19.440  0.00  0.00    +0.000 A 
ATOM      8  C   UNL     1      10.672  11.463  19.909  0.00  0.00    +0.000 A 
ATOM      9  C   UNL     1       9.734  10.749  19.173  0.00  0.00    +0.000 A 
ATOM     10  O   UNL     1       9.307   9.458  19.366  0.00  0.00    +0.000 OA
ATOM     11  C   UNL     1       8.422   9.189  18.347  0.00  0.00    +0.000 A 
ATOM     12  C   UNL     1       8.245  10.315  17.562  0.00  0.00    +0.000 A 
ATOM     13  C   UNL     1       9.094  11.306  18.071  0.00  0.00    +0.000 A 
ATOM     14  N   UNL     1       9.325  12.558  17.625  0.00  0.00    +0.000 NA
ENDBRANCH   1  11
BRANCH   3  15
ATOM     15  C   UNL     1       6.346   6.497  16.819  0.00  0.00    +0.000 A 
ATOM     16  C   UNL     1       7.043   5.661  15.952  0.00  0.00    +0.000 A 
ATOM     17  C   UNL     1       6.573   4.367  15.715  0.00  0.00    +0.000 A 
ATOM     18  C   UNL     1       5.367   3.941  16.278  0.00  0.00    +0.000 A 
ATOM     19  C   UNL     1       4.609   4.801  17.083  0.00  0.00    +0.000 A 
ATOM     20  C   UNL     1       5.125   6.072  17.366  0.00  0.00    +0.000 A 
BRANCH  19  21
ATOM     21  C   UNL     1       3.296   4.374  17.561  0.00  0.00    +0.000 A 
ATOM     22  N   UNL     1       2.556   4.951  18.491  0.00  0.00    +0.000 NA
ATOM     23  N   UNL     1       1.444   4.161  18.655  0.00  0.00    +0.000 NA
ATOM     24  N   UNL     1       1.474   3.125  17.830  0.00  0.00    +0.000 NA
ATOM     25  N   UNL     1       2.612   3.266  17.138  0.00  0.00    +0.000 N 
ATOM     26  H   UNL     1       2.847   2.593  16.421  0.00  0.00    +0.000 HD
ENDBRANCH  19  21
ENDBRANCH   3  15
TORSDOF 3
ENDMDL
MODEL 4
REMARK VINA RESULT:      -8.5      2.488      3.530
REMARK  Name = 
REMARK  4 active torsions:
REMARK  status: ('A' for Active; 'I' for Inactive)
REMARK    1  A    between atoms: C_1  and  C_2
REMARK    2  A    between atoms: C_7  and  C_8
REMARK    3  A    between atoms: N_10  and  C_11
REMARK    4  A    between atoms: C_15  and  C_16
REMARK                            x       y       z     vdW  Elec       q    Type
REMARK                         _______ _______ _______ _____ _____    ______ ____
ROOT
ATOM      1  C   UNL     1       3.262   6.778  18.175  0.00  0.00    +0.000 C 
ATOM      2  O   UNL     1       3.039   5.585  18.375  0.00  0.00    +0.000 OA
ATOM      3  N   UNL     1       4.436   7.240  17.595  0.00  0.00    +0.000 N 
ATOM      4  H   UNL     1       4.676   8.205  17.793  0.00  0.00    +0.000 HD
ENDROOT
BRANCH   1  11
ATOM      5  C   UNL     1      -0.927  12.610  19.424  0.00  0.00    +0.000 C 
ATOM      6  C   UNL     1      -0.211  11.307  19.651  0.00  0.00    +0.000 A 
ATOM      7  C   UNL     1      -0.164  10.735  20.933  0.00  0.00    +0.000 A 
ATOM      8  C   UNL     1       0.514   9.530  21.144  0.00  0.00    +0.000 A 
ATOM      9  C   UNL     1       1.130   8.997  20.018  0.00  0.00    +0.000 A 
ATOM     10  O   UNL     1       1.892   7.859  19.925  0.00  0.00    +0.000 OA
ATOM     11  C   UNL     1       2.324   7.791  18.620  0.00  0.00    +0.000 A 
ATOM     12  C   UNL     1       1.789   8.834  17.887  0.00  0.00    +0.000 A 
ATOM     13  C   UNL     1       1.043   9.618  18.776  0.00  0.00    +0.000 A 
ATOM     14  N   UNL     1       0.374  10.770  18.561  0.00  0.00    +0.000 NA
ENDBRANCH   1  11
BRANCH   3  15
ATOM     15  C   UNL     1       5.458   6.345  17.213  0.00  0.00    +0.000 A 
ATOM     16  C   UNL     1       6.343   5.869  18.177  0.00  0.00    +0.000 A 
ATOM     17  C   UNL     1       7.273   4.886  17.835  0.00  0.00    +0.000 A 
ATOM     18  C   UNL     1       7.374   4.440  16.514  0.00  0.00    +0.000 A 
ATOM     19  C   UNL     1       6.551   4.972  15.514  0.00  0.00    +0.000 A 
ATOM     20  C   UNL     1       5.576   5.908  15.884  0.00  0.00    +0.000 A 
BRANCH  19  21
ATOM     21  C   UNL     1       6.756   4.577  14.122  0.00  0.00    +0.000 A 
ATOM     22  N   UNL     1       7.485   5.198  13.213  0.00  0.00    +0.000 NA
ATOM     23  N   UNL     1       7.323   4.505  12.038  0.00  0.00    +0.000 NA
ATOM     24  N   UNL     1       6.529   3.460  12.211  0.00  0.00    +0.000 NA
ATOM     25  N   UNL     1       6.193   3.492  13.507  0.00  0.00    +0.000 N 
ATOM     26  H   UNL     1       5.596   2.768  13.886  0.00  0.00    +0.000 HD
ENDBRANCH  19  21
ENDBRANCH   3  15
TORSDOF 3
ENDMDL
MODEL 5
REMARK VINA RESULT:      -8.4      1.066      1.105
REMARK  Name = 
REMARK  4 active torsions:
REMARK  status: ('A' for Active; 'I' for Inactive)
REMARK    1  A    between atoms: C_1  and  C_2
REMARK    2  A    between atoms: C_7  and  C_8
REMARK    3  A    between atoms: N_10  and  C_11
REMARK    4  A    between atoms: C_15  and  C_16
REMARK                            x       y       z     vdW  Elec       q    Type
REMARK                         _______ _______ _______ _____ _____    ______ ____
ROOT
ATOM      1  C   UNL     1       1.898   8.246  18.667  0.00  0.00    +0.000 C 
ATOM      2  O   UNL     1       2.126   8.359  17.463  0.00  0.00    +0.000 OA
ATOM      3  N   UNL     1       2.143   7.077  19.375  0.00  0.00    +0.000 N 
ATOM      4  H   UNL     1       1.615   6.960  20.232  0.00  0.00    +0.000 HD
ENDROOT
BRANCH   1  11
ATOM      5  C   UNL     1      -1.484  12.727  23.314  0.00  0.00    +0.000 C 
ATOM      6  C   UNL     1      -0.914  12.186  22.033  0.00  0.00    +0.000 A 
ATOM      7  C   UNL     1      -1.191  12.815  20.808  0.00  0.00    +0.000 A 
ATOM      8  C   UNL     1      -0.670  12.302  19.616  0.00  0.00    +0.000 A 
ATOM      9  C   UNL     1       0.090  11.146  19.756  0.00  0.00    +0.000 A 
ATOM     10  O   UNL     1       0.691  10.400  18.773  0.00  0.00    +0.000 OA
ATOM     11  C   UNL     1       1.271   9.324  19.406  0.00  0.00    +0.000 A 
ATOM     12  C   UNL     1       1.094   9.426  20.774  0.00  0.00    +0.000 A 
ATOM     13  C   UNL     1       0.325  10.574  21.002  0.00  0.00    +0.000 A 
ATOM     14  N   UNL     1      -0.158  11.075  22.158  0.00  0.00    +0.000 NA
ENDBRANCH   1  11
BRANCH   3  15
ATOM     15  C   UNL     1       2.662   5.934  18.730  0.00  0.00    +0.000 A 
ATOM     16  C   UNL     1       1.810   4.874  18.431  0.00  0.00    +0.000 A 
ATOM     17  C   UNL     1       2.286   3.797  17.680  0.00  0.00    +0.000 A 
ATOM     18  C   UNL     1       3.630   3.740  17.301  0.00  0.00    +0.000 A 
ATOM     19  C   UNL     1       4.521   4.756  17.668  0.00  0.00    +0.000 A 
ATOM     20  C   UNL     1       4.016   5.863  18.364  0.00  0.00    +0.000 A 
BRANCH  19  21
ATOM     21  C   UNL     1       5.942   4.616  17.363  0.00  0.00    +0.000 A 
ATOM     22  N   UNL     1       6.526   4.748  16.185  0.00  0.00    +0.000 NA
ATOM     23  N   UNL     1       7.856   4.457  16.370  0.00  0.00    +0.000 NA
ATOM     24  N   UNL     1       8.106   4.173  17.639  0.00  0.00    +0.000 NA
ATOM     25  N   UNL     1       6.925   4.291  18.260  0.00  0.00    +0.000 N 
ATOM     26  H   UNL     1       6.867   4.138  19.258  0.00  0.00    +0.000 HD
ENDBRANCH  19  21
ENDBRANCH   3  15
TORSDOF 3
ENDMDL
MODEL 6
REMARK VINA RESULT:      -8.4      5.867      7.242
REMARK  Name = 
REMARK  4 active torsions:
REMARK  status: ('A' for Active; 'I' for Inactive)
REMARK    1  A    between atoms: C_1  and  C_2
REMARK    2  A    between atoms: C_7  and  C_8
REMARK    3  A    between atoms: N_10  and  C_11
REMARK    4  A    between atoms: C_15  and  C_16
REMARK                            x       y       z     vdW  Elec       q    Type
REMARK                         _______ _______ _______ _____ _____    ______ ____
ROOT
ATOM      1  C   UNL     1       7.748   7.770  18.012  0.00  0.00    +0.000 C 
ATOM      2  O   UNL     1       8.158   6.814  18.669  0.00  0.00    +0.000 OA
ATOM      3  N   UNL     1       6.781   7.648  17.023  0.00  0.00    +0.000 N 
ATOM      4  H   UNL     1       6.770   8.381  16.323  0.00  0.00    +0.000 HD
ENDROOT
BRANCH   1  11
ATOM      5  C   UNL     1      10.816  14.024  20.158  0.00  0.00    +0.000 C 
ATOM      6  C   UNL     1      10.026  13.045  19.333  0.00  0.00    +0.000 A 
ATOM      7  C   UNL     1       9.234  13.491  18.263  0.00  0.00    +0.000 A 
ATOM      8  C   UNL     1       8.490  12.580  17.506  0.00  0.00    +0.000 A 
ATOM      9  C   UNL     1       8.588  11.256  17.918  0.00  0.00    +0.000 A 
ATOM     10  O   UNL     1       7.951  10.156  17.400  0.00  0.00    +0.000 OA
ATOM     11  C   UNL     1       8.326   9.089  18.185  0.00  0.00    +0.000 A 
ATOM     12  C   UNL     1       9.236   9.500  19.141  0.00  0.00    +0.000 A 
ATOM     13  C   UNL     1       9.393  10.883  18.989  0.00  0.00    +0.000 A 
ATOM     14  N   UNL     1      10.128  11.754  19.711  0.00  0.00    +0.000 NA
ENDBRANCH   1  11
BRANCH   3  15
ATOM     15  C   UNL     1       6.222   6.391  16.707  0.00  0.00    +0.000 A 
ATOM     16  C   UNL     1       6.882   5.559  15.806  0.00  0.00    +0.000 A 
ATOM     17  C   UNL     1       6.406   4.265  15.586  0.00  0.00    +0.000 A 
ATOM     18  C   UNL     1       5.228   3.833  16.201  0.00  0.00    +0.000 A 
ATOM     19  C   UNL     1       4.504   4.687  17.042  0.00  0.00    +0.000 A 
ATOM     20  C   UNL     1       5.028   5.960  17.306  0.00  0.00    +0.000 A 
BRANCH  19  21
ATOM     21  C   UNL     1       3.216   4.255  17.576  0.00  0.00    +0.000 A 
ATOM     22  N   UNL     1       2.403   3.344  17.071  0.00  0.00    +0.000 NA
ATOM     23  N   UNL     1       1.286   3.326  17.870  0.00  0.00    +0.000 NA
ATOM     24  N   UNL     1       1.404   4.189  18.867  0.00  0.00    +0.000 NA
ATOM     25  N   UNL     1       2.607   4.752  18.698  0.00  0.00    +0.000 N 
ATOM     26  H   UNL     1       2.934   5.442  19.361  0.00  0.00    +0.000 HD
ENDBRANCH  19  21
ENDBRANCH   3  15
TORSDOF 3
ENDMDL
MODEL 7
REMARK VINA RESULT:      -8.3      1.192      1.673
REMARK  Name = 
REMARK  4 active torsions:
REMARK  status: ('A' for Active; 'I' for Inactive)
REMARK    1  A    between atoms: C_1  and  C_2
REMARK    2  A    between atoms: C_7  and  C_8
REMARK    3  A    between atoms: N_10  and  C_11
REMARK    4  A    between atoms: C_15  and  C_16
REMARK                            x       y       z     vdW  Elec       q    Type
REMARK                         _______ _______ _______ _____ _____    ______ ____
ROOT
ATOM      1  C   UNL     1       1.813   8.281  18.731  0.00  0.00    +0.000 C 
ATOM      2  O   UNL     1       2.123   8.523  17.565  0.00  0.00    +0.000 OA
ATOM      3  N   UNL     1       2.003   7.038  19.320  0.00  0.00    +0.000 N 
ATOM      4  H   UNL     1       1.418   6.834  20.122  0.00  0.00    +0.000 HD
ENDROOT
BRANCH   1  11
ATOM      5  C   UNL     1      -0.617  14.133  22.333  0.00  0.00    +0.000 C 
ATOM      6  C   UNL     1      -0.396  12.693  21.957  0.00  0.00    +0.000 A 
ATOM      7  C   UNL     1      -0.824  11.661  22.807  0.00  0.00    +0.000 A 
ATOM      8  C   UNL     1      -0.606  10.324  22.462  0.00  0.00    +0.000 A 
ATOM      9  C   UNL     1       0.070  10.130  21.262  0.00  0.00    +0.000 A 
ATOM     10  O   UNL     1       0.457   8.945  20.687  0.00  0.00    +0.000 OA
ATOM     11  C   UNL     1       1.143   9.279  19.542  0.00  0.00    +0.000 A 
ATOM     12  C   UNL     1       1.131  10.650  19.364  0.00  0.00    +0.000 A 
ATOM     13  C   UNL     1       0.466  11.200  20.467  0.00  0.00    +0.000 A 
ATOM     14  N   UNL     1       0.241  12.492  20.785  0.00  0.00    +0.000 NA
ENDBRANCH   1  11
BRANCH   3  15
ATOM     15  C   UNL     1       2.559   5.966  18.589  0.00  0.00    +0.000 A 
ATOM     16  C   UNL     1       1.816   4.801  18.417  0.00  0.00    +0.000 A 
ATOM     17  C   UNL     1       2.303   3.788  17.588  0.00  0.00    +0.000 A 
ATOM     18  C   UNL     1       3.567   3.904  17.001  0.00  0.00    +0.000 A 
ATOM     19  C   UNL     1       4.364   5.031  17.235  0.00  0.00    +0.000 A 
ATOM     20  C   UNL     1       3.836   6.069  18.013  0.00  0.00    +0.000 A 
BRANCH  19  21
ATOM     21  C   UNL     1       5.726   5.075  16.708  0.00  0.00    +0.000 A 
ATOM     22  N   UNL     1       6.226   5.947  15.851  0.00  0.00    +0.000 NA
ATOM     23  N   UNL     1       7.516   5.551  15.594  0.00  0.00    +0.000 NA
ATOM     24  N   UNL     1       7.827   4.470  16.292  0.00  0.00    +0.000 NA
ATOM     25  N   UNL     1       6.725   4.185  16.998  0.00  0.00    +0.000 N 
ATOM     26  H   UNL     1       6.728   3.397  17.632  0.00  0.00    +0.000 HD
ENDBRANCH  19  21
ENDBRANCH   3  15
TORSDOF 3
ENDMDL
MODEL 8
REMARK VINA RESULT:      -8.3      1.279      1.636
REMARK  Name = 
REMARK  4 active torsions:
REMARK  status: ('A' for Active; 'I' for Inactive)
REMARK    1  A    between atoms: C_1  and  C_2
REMARK    2  A    between atoms: C_7  and  C_8
REMARK    3  A    between atoms: N_10  and  C_11
REMARK    4  A    between atoms: C_15  and  C_16
REMARK                            x       y       z     vdW  Elec       q    Type
REMARK                         _______ _______ _______ _____ _____    ______ ____
ROOT
ATOM      1  C   UNL     1       1.910   7.727  19.459  0.00  0.00    +0.000 C 
ATOM      2  O   UNL     1       2.143   7.773  18.251  0.00  0.00    +0.000 OA
ATOM      3  N   UNL     1       2.228   6.628  20.247  0.00  0.00    +0.000 N 
ATOM      4  H   UNL     1       1.700   6.534  21.107  0.00  0.00    +0.000 HD
ENDROOT
BRANCH   1  11
ATOM      5  C   UNL     1      -0.694  13.936  22.250  0.00  0.00    +0.000 C 
ATOM      6  C   UNL     1      -0.452  12.465  22.053  0.00  0.00    +0.000 A 
ATOM      7  C   UNL     1      -0.913  11.535  22.998  0.00  0.00    +0.000 A 
ATOM      8  C   UNL     1      -0.676  10.168  22.820  0.00  0.00    +0.000 A 
ATOM      9  C   UNL     1       0.052   9.842  21.681  0.00  0.00    +0.000 A 
ATOM     10  O   UNL     1       0.468   8.601  21.265  0.00  0.00    +0.000 OA
ATOM     11  C   UNL     1       1.203   8.807  20.119  0.00  0.00    +0.000 A 
ATOM     12  C   UNL     1       1.194  10.148  19.783  0.00  0.00    +0.000 A 
ATOM     13  C   UNL     1       0.479  10.816  20.785  0.00  0.00    +0.000 A 
ATOM     14  N   UNL     1       0.237  12.134  20.941  0.00  0.00    +0.000 NA
ENDBRANCH   1  11
BRANCH   3  15
ATOM     15  C   UNL     1       2.832   5.483  19.685  0.00  0.00    +0.000 A 
ATOM     16  C   UNL     1       2.169   4.260  19.754  0.00  0.00    +0.000 A 
ATOM     17  C   UNL     1       2.697   3.151  19.090  0.00  0.00    +0.000 A 
ATOM     18  C   UNL     1       3.925   3.243  18.430  0.00  0.00    +0.000 A 
ATOM     19  C   UNL     1       4.648   4.443  18.425  0.00  0.00    +0.000 A 
ATOM     20  C   UNL     1       4.075   5.566  19.038  0.00  0.00    +0.000 A 
BRANCH  19  21
ATOM     21  C   UNL     1       5.982   4.482  17.831  0.00  0.00    +0.000 A 
ATOM     22  N   UNL     1       6.287   4.640  16.555  0.00  0.00    +0.000 NA
ATOM     23  N   UNL     1       7.653   4.538  16.462  0.00  0.00    +0.000 NA
ATOM     24  N   UNL     1       8.196   4.345  17.654  0.00  0.00    +0.000 NA
ATOM     25  N   UNL     1       7.163   4.330  18.506  0.00  0.00    +0.000 N 
ATOM     26  H   UNL     1       7.333   4.213  19.496  0.00  0.00    +0.000 HD
ENDBRANCH  19  21
ENDBRANCH   3  15
TORSDOF 3
ENDMDL
MODEL 9
REMARK VINA RESULT:      -8.3      1.354      1.539
REMARK  Name = 
REMARK  4 active torsions:
REMARK  status: ('A' for Active; 'I' for Inactive)
REMARK    1  A    between atoms: C_1  and  C_2
REMARK    2  A    between atoms: C_7  and  C_8
REMARK    3  A    between atoms: N_10  and  C_11
REMARK    4  A    between atoms: C_15  and  C_16
REMARK                            x       y       z     vdW  Elec       q    Type
REMARK                         _______ _______ _______ _____ _____    ______ ____
ROOT
ATOM      1  C   UNL     1       1.807   7.823  19.938  0.00  0.00    +0.000 C 
ATOM      2  O   UNL     1       2.271   7.957  18.806  0.00  0.00    +0.000 OA
ATOM      3  N   UNL     1       1.898   6.637  20.655  0.00  0.00    +0.000 N 
ATOM      4  H   UNL     1       1.209   6.509  21.387  0.00  0.00    +0.000 HD
ENDROOT
BRANCH   1  11
ATOM      5  C   UNL     1      -2.637  12.211  23.695  0.00  0.00    +0.000 C 
ATOM      6  C   UNL     1      -1.680  11.736  22.637  0.00  0.00    +0.000 A 
ATOM      7  C   UNL     1      -1.413  12.530  21.510  0.00  0.00    +0.000 A 
ATOM      8  C   UNL     1      -0.533  12.080  20.520  0.00  0.00    +0.000 A 
ATOM      9  C   UNL     1       0.005  10.818  20.742  0.00  0.00    +0.000 A 
ATOM     10  O   UNL     1       0.859  10.105  19.938  0.00  0.00    +0.000 OA
ATOM     11  C   UNL     1       1.053   8.893  20.561  0.00  0.00    +0.000 A 
ATOM     12  C   UNL     1       0.383   8.869  21.771  0.00  0.00    +0.000 A 
ATOM     13  C   UNL     1      -0.303  10.084  21.883  0.00  0.00    +0.000 A 
ATOM     14  N   UNL     1      -1.136  10.520  22.851  0.00  0.00    +0.000 NA
ENDBRANCH   1  11
BRANCH   3  15
ATOM     15  C   UNL     1       2.527   5.501  20.102  0.00  0.00    +0.000 A 
ATOM     16  C   UNL     1       1.832   4.296  20.048  0.00  0.00    +0.000 A 
ATOM     17  C   UNL     1       2.397   3.203  19.387  0.00  0.00    +0.000 A 
ATOM     18  C   UNL     1       3.687   3.290  18.856  0.00  0.00    +0.000 A 
ATOM     19  C   UNL     1       4.435   4.468  18.979  0.00  0.00    +0.000 A 
ATOM     20  C   UNL     1       3.830   5.578  19.585  0.00  0.00    +0.000 A 
BRANCH  19  21
ATOM     21  C   UNL     1       5.822   4.495  18.522  0.00  0.00    +0.000 A 
ATOM     22  N   UNL     1       6.894   4.799  19.233  0.00  0.00    +0.000 NA
ATOM     23  N   UNL     1       7.961   4.761  18.370  0.00  0.00    +0.000 NA
ATOM     24  N   UNL     1       7.573   4.418  17.151  0.00  0.00    +0.000 NA
ATOM     25  N   UNL     1       6.250   4.234  17.249  0.00  0.00    +0.000 N 
ATOM     26  H   UNL     1       5.725   3.942  16.435  0.00  0.00    +0.000 HD
ENDBRANCH  19  21
ENDBRANCH   3  15
TORSDOF 3
ENDMDL
