MODEL 1
REMARK VINA RESULT:      -8.7      0.000      0.000
REMARK  Name = 
REMARK  10 active torsions:
REMARK  status: ('A' for Active; 'I' for Inactive)
REMARK    1  A    between atoms: C_1  and  C_2
REMARK    2  A    between atoms: C_2  and  C_3
REMARK    3  A    between atoms: C_2  and  C_10
REMARK    4  A    between atoms: C_3  and  C_4
REMARK    5  A    between atoms: N_8  and  C_9
REMARK    6  A    between atoms: C_14  and  N_15
REMARK    7  A    between atoms: C_16  and  C_18
REMARK    8  A    between atoms: C_20  and  C_21
REMARK    9  A    between atoms: C_21  and  O_22
REMARK   10  A    between atoms: C_25  and  C_26
REMARK                            x       y       z     vdW  Elec       q    Type
REMARK                         _______ _______ _______ _____ _____    ______ ____
ROOT
ATOM      1  N   UNL     1       2.307   7.477  19.680  0.00  0.00    +0.000 N 
ATOM      2  C   UNL     1       2.468   7.346  18.312  0.00  0.00    +0.000 C 
ATOM      3  O   UNL     1       1.849   7.935  17.435  0.00  0.00    +0.000 OA
ATOM      4  H   UNL     1       2.848   6.875  20.285  0.00  0.00    +0.000 HD
ENDROOT
BRANCH   1   9
ATOM      5  C   UNL     1      -0.052  10.331  20.119  0.00  0.00    +0.000 A 
ATOM      6  C   UNL     1      -0.351  10.224  21.485  0.00  0.00    +0.000 A 
ATOM      7  C   UNL     1       0.254   9.245  22.263  0.00  0.00    +0.000 A 
ATOM      8  C   UNL     1       1.156   8.343  21.692  0.00  0.00    +0.000 A 
ATOM      9  C   UNL     1       1.457   8.405  20.332  0.00  0.00    +0.000 A 
ATOM     10  C   UNL     1       0.856   9.411  19.555  0.00  0.00    +0.000 A 
BRANCH   5  12
ATOM     11  C   UNL     1       0.113  12.573  18.917  0.00  0.00    +0.000 C 
ATOM     12  C   UNL     1      -0.782  11.380  19.284  0.00  0.00    +0.000 C 
BRANCH  12  13
ATOM     13  C   UNL     1      -1.404  10.687  18.054  0.00  0.00    +0.000 C 
BRANCH  13  14
ATOM     14  C   UNL     1      -2.805  11.113  17.768  0.00  0.00    +0.000 A 
ATOM     15  N   UNL     1      -3.642  11.622  18.645  0.00  0.00    +0.000 NA
ATOM     16  N   UNL     1      -4.819  11.923  18.001  0.00  0.00    +0.000 NA
ATOM     17  C   UNL     1      -4.671  11.596  16.740  0.00  0.00    +0.000 A 
ATOM     18  N   UNL     1      -3.429  11.076  16.546  0.00  0.00    +0.000 N 
ATOM     19  C   UNL     1      -2.907  10.605  15.295  0.00  0.00    +0.000 C 
ENDBRANCH  13  14
ENDBRANCH  12  13
ENDBRANCH   5  12
ENDBRANCH   1   9
BRANCH   2  20
ATOM     20  C   UNL     1       3.461   6.345  17.840  0.00  0.00    +0.000 A 
ATOM     21  C   UNL     1       4.772   6.769  17.567  0.00  0.00    +0.000 A 
ATOM     22  C   UNL     1       5.806   5.842  17.364  0.00  0.00    +0.000 A 
ATOM     23  C   UNL     1       5.521   4.480  17.497  0.00  0.00    +0.000 A 
ATOM     24  C   UNL     1       4.213   4.051  17.726  0.00  0.00    +0.000 A 
ATOM     25  C   UNL     1       3.156   4.971  17.858  0.00  0.00    +0.000 A 
BRANCH  25  26
ATOM     26  C   UNL     1       1.757   4.415  18.012  0.00  0.00    +0.000 C 
ATOM     27  F   UNL     1       0.808   4.935  17.192  0.00  0.00    +0.000 F 
ATOM     28  F   UNL     1       1.745   3.073  17.723  0.00  0.00    +0.000 F 
ATOM     29  F   UNL     1       1.286   4.501  19.286  0.00  0.00    +0.000 F 
ENDBRANCH  25  26
BRANCH  22  30
ATOM     30  C   UNL     1       7.222   6.298  17.126  0.00  0.00    +0.000 C 
BRANCH  30  31
ATOM     31  O   UNL     1       7.619   6.024  15.789  0.00  0.00    +0.000 OA
ATOM     32  H   UNL     1       7.054   6.565  15.212  0.00  0.00    +0.000 HD
ENDBRANCH  30  31
ENDBRANCH  22  30
ENDBRANCH   2  20
TORSDOF 8
ENDMDL
MODEL 2
REMARK VINA RESULT:      -8.4      0.933      1.153
REMARK  Name = 
REMARK  10 active torsions:
REMARK  status: ('A' for Active; 'I' for Inactive)
REMARK    1  A    between atoms: C_1  and  C_2
REMARK    2  A    between atoms: C_2  and  C_3
REMARK    3  A    between atoms: C_2  and  C_10
REMARK    4  A    between atoms: C_3  and  C_4
REMARK    5  A    between atoms: N_8  and  C_9
REMARK    6  A    between atoms: C_14  and  N_15
REMARK    7  A    between atoms: C_16  and  C_18
REMARK    8  A    between atoms: C_20  and  C_21
REMARK    9  A    between atoms: C_21  and  O_22
REMARK   10  A    between atoms: C_25  and  C_26
REMARK                            x       y       z     vdW  Elec       q    Type
REMARK                         _______ _______ _______ _____ _____    ______ ____
ROOT
ATOM      1  N   UNL     1       2.296   7.638  18.972  0.00  0.00    +0.000 N 
ATOM      2  C   UNL     1       2.831   6.415  19.332  0.00  0.00    +0.000 C 
ATOM      3  O   UNL     1       2.808   5.894  20.440  0.00  0.00    +0.000 OA
ATOM      4  H   UNL     1       2.451   7.969  18.029  0.00  0.00    +0.000 HD
ENDROOT
BRANCH   1   9
ATOM      5  C   UNL     1      -0.053  10.363  19.950  0.00  0.00    +0.000 A 
ATOM      6  C   UNL     1      -0.156  10.145  21.331  0.00  0.00    +0.000 A 
ATOM      7  C   UNL     1       0.578   9.136  21.941  0.00  0.00    +0.000 A 
ATOM      8  C   UNL     1       1.414   8.312  21.184  0.00  0.00    +0.000 A 
ATOM      9  C   UNL     1       1.521   8.484  19.804  0.00  0.00    +0.000 A 
ATOM     10  C   UNL     1       0.791   9.520  19.197  0.00  0.00    +0.000 A 
BRANCH   5  12
ATOM     11  C   UNL     1      -0.171  12.769  19.115  0.00  0.00    +0.000 C 
ATOM     12  C   UNL     1      -0.920  11.442  19.306  0.00  0.00    +0.000 C 
BRANCH  12  13
ATOM     13  C   UNL     1      -1.511  10.885  17.994  0.00  0.00    +0.000 C 
BRANCH  13  14
ATOM     14  C   UNL     1      -2.938  11.257  17.770  0.00  0.00    +0.000 A 
ATOM     15  N   UNL     1      -3.759  11.717  18.688  0.00  0.00    +0.000 NA
ATOM     16  N   UNL     1      -4.972  11.979  18.095  0.00  0.00    +0.000 NA
ATOM     17  C   UNL     1      -4.861  11.680  16.823  0.00  0.00    +0.000 A 
ATOM     18  N   UNL     1      -3.607  11.215  16.573  0.00  0.00    +0.000 N 
ATOM     19  C   UNL     1      -3.116  10.786  15.294  0.00  0.00    +0.000 C 
ENDBRANCH  13  14
ENDBRANCH  12  13
ENDBRANCH   5  12
ENDBRANCH   1   9
BRANCH   2  20
ATOM     20  C   UNL     1       3.566   5.661  18.281  0.00  0.00    +0.000 A 
ATOM     21  C   UNL     1       4.864   6.071  17.936  0.00  0.00    +0.000 A 
ATOM     22  C   UNL     1       5.694   5.261  17.146  0.00  0.00    +0.000 A 
ATOM     23  C   UNL     1       5.226   4.003  16.752  0.00  0.00    +0.000 A 
ATOM     24  C   UNL     1       3.923   3.608  17.055  0.00  0.00    +0.000 A 
ATOM     25  C   UNL     1       3.057   4.445  17.786  0.00  0.00    +0.000 A 
BRANCH  25  26
ATOM     26  C   UNL     1       1.634   3.975  17.989  0.00  0.00    +0.000 C 
ATOM     27  F   UNL     1       1.090   4.211  19.211  0.00  0.00    +0.000 F 
ATOM     28  F   UNL     1       0.790   4.622  17.122  0.00  0.00    +0.000 F 
ATOM     29  F   UNL     1       1.465   2.652  17.717  0.00  0.00    +0.000 F 
ENDBRANCH  25  26
BRANCH  22  30
ATOM     30  C   UNL     1       7.105   5.676  16.822  0.00  0.00    +0.000 C 
BRANCH  30  31
ATOM     31  O   UNL     1       7.934   4.536  16.634  0.00  0.00    +0.000 OA
ATOM     32  H   UNL     1       8.831   4.793  16.908  0.00  0.00    +0.000 HD
ENDBRANCH  30  31
ENDBRANCH  22  30
ENDBRANCH   2  20
TORSDOF 8
ENDMDL
MODEL 3
REMARK VINA RESULT:      -8.1      0.971      1.373
REMARK  Name = 
REMARK  10 active torsions:
REMARK  status: ('A' for Active; 'I' for Inactive)
REMARK    1  A    between atoms: C_1  and  C_2
REMARK    2  A    between atoms: C_2  and  C_3
REMARK    3  A    between atoms: C_2  and  C_10
REMARK    4  A    between atoms: C_3  and  C_4
REMARK    5  A    between atoms: N_8  and  C_9
REMARK    6  A    between atoms: C_14  and  N_15
REMARK    7  A    between atoms: C_16  and  C_18
REMARK    8  A    between atoms: C_20  and  C_21
REMARK    9  A    between atoms: C_21  and  O_22
REMARK   10  A    between atoms: C_25  and  C_26
REMARK                            x       y       z     vdW  Elec       q    Type
REMARK                         _______ _______ _______ _____ _____    ______ ____
ROOT
ATOM      1  N   UNL     1       2.281   7.256  20.065  0.00  0.00    +0.000 N 
ATOM      2  C   UNL     1       2.593   7.069  18.731  0.00  0.00    +0.000 C 
ATOM      3  O   UNL     1       2.162   7.699  17.774  0.00  0.00    +0.000 OA
ATOM      4  H   UNL     1       2.668   6.613  20.742  0.00  0.00    +0.000 HD
ENDROOT
BRANCH   1   9
ATOM      5  C   UNL     1      -0.199  10.039  20.150  0.00  0.00    +0.000 A 
ATOM      6  C   UNL     1      -0.274  10.290  21.528  0.00  0.00    +0.000 A 
ATOM      7  C   UNL     1       0.521   9.577  22.417  0.00  0.00    +0.000 A 
ATOM      8  C   UNL     1       1.391   8.588  21.952  0.00  0.00    +0.000 A 
ATOM      9  C   UNL     1       1.471   8.294  20.591  0.00  0.00    +0.000 A 
ATOM     10  C   UNL     1       0.680   9.034  19.696  0.00  0.00    +0.000 A 
BRANCH   5  12
ATOM     11  C   UNL     1      -0.398  11.874  18.391  0.00  0.00    +0.000 C 
ATOM     12  C   UNL     1      -1.131  10.801  19.209  0.00  0.00    +0.000 C 
BRANCH  12  13
ATOM     13  C   UNL     1      -1.889   9.782  18.333  0.00  0.00    +0.000 C 
BRANCH  13  14
ATOM     14  C   UNL     1      -2.680  10.406  17.233  0.00  0.00    +0.000 A 
ATOM     15  N   UNL     1      -2.414  10.301  15.949  0.00  0.00    +0.000 NA
ATOM     16  N   UNL     1      -3.384  10.979  15.248  0.00  0.00    +0.000 NA
ATOM     17  C   UNL     1      -4.225  11.478  16.121  0.00  0.00    +0.000 A 
ATOM     18  N   UNL     1      -3.821  11.153  17.379  0.00  0.00    +0.000 N 
ATOM     19  C   UNL     1      -4.491  11.526  18.593  0.00  0.00    +0.000 C 
ENDBRANCH  13  14
ENDBRANCH  12  13
ENDBRANCH   5  12
ENDBRANCH   1   9
BRANCH   2  20
ATOM     20  C   UNL     1       3.513   5.947  18.402  0.00  0.00    +0.000 A 
ATOM     21  C   UNL     1       4.894   6.196  18.351  0.00  0.00    +0.000 A 
ATOM     22  C   UNL     1       5.819   5.142  18.297  0.00  0.00    +0.000 A 
ATOM     23  C   UNL     1       5.344   3.829  18.353  0.00  0.00    +0.000 A 
ATOM     24  C   UNL     1       3.972   3.574  18.361  0.00  0.00    +0.000 A 
ATOM     25  C   UNL     1       3.034   4.625  18.341  0.00  0.00    +0.000 A 
BRANCH  25  26
ATOM     26  C   UNL     1       1.570   4.255  18.258  0.00  0.00    +0.000 C 
ATOM     27  F   UNL     1       0.854   4.848  17.268  0.00  0.00    +0.000 F 
ATOM     28  F   UNL     1       1.431   2.913  18.007  0.00  0.00    +0.000 F 
ATOM     29  F   UNL     1       0.900   4.462  19.425  0.00  0.00    +0.000 F 
ENDBRANCH  25  26
BRANCH  22  30
ATOM     30  C   UNL     1       7.302   5.409  18.298  0.00  0.00    +0.000 C 
BRANCH  30  31
ATOM     31  O   UNL     1       8.015   4.286  17.796  0.00  0.00    +0.000 OA
ATOM     32  H   UNL     1       7.826   3.544  18.395  0.00  0.00    +0.000 HD
ENDBRANCH  30  31
ENDBRANCH  22  30
ENDBRANCH   2  20
TORSDOF 8
ENDMDL
MODEL 4
REMARK VINA RESULT:      -8.1      0.990      1.504
REMARK  Name = 
REMARK  10 active torsions:
REMARK  status: ('A' for Active; 'I' for Inactive)
REMARK    1  A    between atoms: C_1  and  C_2
REMARK    2  A    between atoms: C_2  and  C_3
REMARK    3  A    between atoms: C_2  and  C_10
REMARK    4  A    between atoms: C_3  and  C_4
REMARK    5  A    between atoms: N_8  and  C_9
REMARK    6  A    between atoms: C_14  and  N_15
REMARK    7  A    between atoms: C_16  and  C_18
REMARK    8  A    between atoms: C_20  and  C_21
REMARK    9  A    between atoms: C_21  and  O_22
REMARK   10  A    between atoms: C_25  and  C_26
REMARK                            x       y       z     vdW  Elec       q    Type
REMARK                         _______ _______ _______ _____ _____    ______ ____
ROOT
ATOM      1  N   UNL     1       2.296   7.382  19.824  0.00  0.00    +0.000 N 
ATOM      2  C   UNL     1       2.405   7.274  18.449  0.00  0.00    +0.000 C 
ATOM      3  O   UNL     1       1.720   7.838  17.605  0.00  0.00    +0.000 OA
ATOM      4  H   UNL     1       2.893   6.803  20.399  0.00  0.00    +0.000 HD
ENDROOT
BRANCH   1   9
ATOM      5  C   UNL     1       0.445  10.502  20.687  0.00  0.00    +0.000 A 
ATOM      6  C   UNL     1      -0.362  10.052  21.742  0.00  0.00    +0.000 A 
ATOM      7  C   UNL     1      -0.264   8.741  22.193  0.00  0.00    +0.000 A 
ATOM      8  C   UNL     1       0.626   7.849  21.590  0.00  0.00    +0.000 A 
ATOM      9  C   UNL     1       1.425   8.256  20.522  0.00  0.00    +0.000 A 
ATOM     10  C   UNL     1       1.336   9.589  20.084  0.00  0.00    +0.000 A 
BRANCH   5  12
ATOM     11  C   UNL     1       1.433  12.848  20.570  0.00  0.00    +0.000 C 
ATOM     12  C   UNL     1       0.267  11.931  20.178  0.00  0.00    +0.000 C 
BRANCH  12  13
ATOM     13  C   UNL     1       0.014  11.886  18.657  0.00  0.00    +0.000 C 
BRANCH  13  14
ATOM     14  C   UNL     1      -1.238  11.170  18.276  0.00  0.00    +0.000 A 
ATOM     15  N   UNL     1      -1.307  10.124  17.481  0.00  0.00    +0.000 NA
ATOM     16  N   UNL     1      -2.620   9.725  17.400  0.00  0.00    +0.000 NA
ATOM     17  C   UNL     1      -3.325  10.534  18.154  0.00  0.00    +0.000 A 
ATOM     18  N   UNL     1      -2.504  11.462  18.716  0.00  0.00    +0.000 N 
ATOM     19  C   UNL     1      -2.917  12.514  19.601  0.00  0.00    +0.000 C 
ENDBRANCH  13  14
ENDBRANCH  12  13
ENDBRANCH   5  12
ENDBRANCH   1   9
BRANCH   2  20
ATOM     20  C   UNL     1       3.430   6.332  17.924  0.00  0.00    +0.000 A 
ATOM     21  C   UNL     1       4.727   6.812  17.677  0.00  0.00    +0.000 A 
ATOM     22  C   UNL     1       5.789   5.930  17.425  0.00  0.00    +0.000 A 
ATOM     23  C   UNL     1       5.548   4.554  17.482  0.00  0.00    +0.000 A 
ATOM     24  C   UNL     1       4.254   4.072  17.685  0.00  0.00    +0.000 A 
ATOM     25  C   UNL     1       3.168   4.951  17.866  0.00  0.00    +0.000 A 
BRANCH  25  26
ATOM     26  C   UNL     1       1.788   4.342  17.987  0.00  0.00    +0.000 C 
ATOM     27  F   UNL     1       0.844   4.815  17.133  0.00  0.00    +0.000 F 
ATOM     28  F   UNL     1       1.835   2.998  17.716  0.00  0.00    +0.000 F 
ATOM     29  F   UNL     1       1.277   4.427  19.245  0.00  0.00    +0.000 F 
ENDBRANCH  25  26
BRANCH  22  30
ATOM     30  C   UNL     1       7.190   6.442  17.214  0.00  0.00    +0.000 C 
BRANCH  30  31
ATOM     31  O   UNL     1       7.616   6.206  15.878  0.00  0.00    +0.000 OA
ATOM     32  H   UNL     1       6.881   5.761  15.424  0.00  0.00    +0.000 HD
ENDBRANCH  30  31
ENDBRANCH  22  30
ENDBRANCH   2  20
TORSDOF 8
ENDMDL
MODEL 5
REMARK VINA RESULT:      -8.0      0.872      1.189
REMARK  Name = 
REMARK  10 active torsions:
REMARK  status: ('A' for Active; 'I' for Inactive)
REMARK    1  A    between atoms: C_1  and  C_2
REMARK    2  A    between atoms: C_2  and  C_3
REMARK    3  A    between atoms: C_2  and  C_10
REMARK    4  A    between atoms: C_3  and  C_4
REMARK    5  A    between atoms: N_8  and  C_9
REMARK    6  A    between atoms: C_14  and  N_15
REMARK    7  A    between atoms: C_16  and  C_18
REMARK    8  A    between atoms: C_20  and  C_21
REMARK    9  A    between atoms: C_21  and  O_22
REMARK   10  A    between atoms: C_25  and  C_26
REMARK                            x       y       z     vdW  Elec       q    Type
REMARK                         _______ _______ _______ _____ _____    ______ ____
ROOT
ATOM      1  N   UNL     1       2.319   7.467  19.750  0.00  0.00    +0.000 N 
ATOM      2  C   UNL     1       2.453   7.242  18.392  0.00  0.00    +0.000 C 
ATOM      3  O   UNL     1       1.774   7.720  17.492  0.00  0.00    +0.000 OA
ATOM      4  H   UNL     1       2.915   6.949  20.382  0.00  0.00    +0.000 HD
ENDROOT
BRANCH   1   9
ATOM      5  C   UNL     1       0.193  10.500  20.170  0.00  0.00    +0.000 A 
ATOM      6  C   UNL     1      -0.432  10.222  21.394  0.00  0.00    +0.000 A 
ATOM      7  C   UNL     1      -0.121   9.064  22.096  0.00  0.00    +0.000 A 
ATOM      8  C   UNL     1       0.805   8.153  21.584  0.00  0.00    +0.000 A 
ATOM      9  C   UNL     1       1.426   8.385  20.356  0.00  0.00    +0.000 A 
ATOM     10  C   UNL     1       1.121   9.568  19.662  0.00  0.00    +0.000 A 
BRANCH   5  12
ATOM     11  C   UNL     1       0.982  12.507  18.811  0.00  0.00    +0.000 C 
ATOM     12  C   UNL     1      -0.219  11.752  19.399  0.00  0.00    +0.000 C 
BRANCH  12  13
ATOM     13  C   UNL     1      -1.266  11.357  18.338  0.00  0.00    +0.000 C 
BRANCH  13  14
ATOM     14  C   UNL     1      -2.665  11.718  18.709  0.00  0.00    +0.000 A 
ATOM     15  N   UNL     1      -3.027  12.327  19.817  0.00  0.00    +0.000 NA
ATOM     16  N   UNL     1      -4.389  12.520  19.784  0.00  0.00    +0.000 NA
ATOM     17  C   UNL     1      -4.827  12.029  18.650  0.00  0.00    +0.000 A 
ATOM     18  N   UNL     1      -3.786  11.507  17.946  0.00  0.00    +0.000 N 
ATOM     19  C   UNL     1      -3.880  10.880  16.658  0.00  0.00    +0.000 C 
ENDBRANCH  13  14
ENDBRANCH  12  13
ENDBRANCH   5  12
ENDBRANCH   1   9
BRANCH   2  20
ATOM     20  C   UNL     1       3.499   6.273  17.966  0.00  0.00    +0.000 A 
ATOM     21  C   UNL     1       4.796   6.748  17.708  0.00  0.00    +0.000 A 
ATOM     22  C   UNL     1       5.873   5.862  17.551  0.00  0.00    +0.000 A 
ATOM     23  C   UNL     1       5.645   4.492  17.713  0.00  0.00    +0.000 A 
ATOM     24  C   UNL     1       4.352   4.012  17.927  0.00  0.00    +0.000 A 
ATOM     25  C   UNL     1       3.253   4.889  18.013  0.00  0.00    +0.000 A 
BRANCH  25  26
ATOM     26  C   UNL     1       1.878   4.275  18.154  0.00  0.00    +0.000 C 
ATOM     27  F   UNL     1       1.813   2.920  18.092  0.00  0.00    +0.000 F 
ATOM     28  F   UNL     1       1.345   4.575  19.383  0.00  0.00    +0.000 F 
ATOM     29  F   UNL     1       0.980   4.766  17.256  0.00  0.00    +0.000 F 
ENDBRANCH  25  26
BRANCH  22  30
ATOM     30  C   UNL     1       7.273   6.373  17.329  0.00  0.00    +0.000 C 
BRANCH  30  31
ATOM     31  O   UNL     1       7.962   6.501  18.566  0.00  0.00    +0.000 OA
ATOM     32  H   UNL     1       7.858   5.655  19.034  0.00  0.00    +0.000 HD
ENDBRANCH  30  31
ENDBRANCH  22  30
ENDBRANCH   2  20
TORSDOF 8
ENDMDL
MODEL 6
REMARK VINA RESULT:      -8.0      1.190      1.283
REMARK  Name = 
REMARK  10 active torsions:
REMARK  status: ('A' for Active; 'I' for Inactive)
REMARK    1  A    between atoms: C_1  and  C_2
REMARK    2  A    between atoms: C_2  and  C_3
REMARK    3  A    between atoms: C_2  and  C_10
REMARK    4  A    between atoms: C_3  and  C_4
REMARK    5  A    between atoms: N_8  and  C_9
REMARK    6  A    between atoms: C_14  and  N_15
REMARK    7  A    between atoms: C_16  and  C_18
REMARK    8  A    between atoms: C_20  and  C_21
REMARK    9  A    between atoms: C_21  and  O_22
REMARK   10  A    between atoms: C_25  and  C_26
REMARK                            x       y       z     vdW  Elec       q    Type
REMARK                         _______ _______ _______ _____ _____    ______ ____
ROOT
ATOM      1  N   UNL     1       2.333   7.585  18.764  0.00  0.00    +0.000 N 
ATOM      2  C   UNL     1       2.945   6.407  19.151  0.00  0.00    +0.000 C 
ATOM      3  O   UNL     1       3.018   5.948  20.284  0.00  0.00    +0.000 OA
ATOM      4  H   UNL     1       2.409   7.869  17.797  0.00  0.00    +0.000 HD
ENDROOT
BRANCH   1   9
ATOM      5  C   UNL     1       0.353  10.559  19.830  0.00  0.00    +0.000 A 
ATOM      6  C   UNL     1      -0.041  10.172  21.119  0.00  0.00    +0.000 A 
ATOM      7  C   UNL     1       0.380   8.958  21.648  0.00  0.00    +0.000 A 
ATOM      8  C   UNL     1       1.187   8.100  20.897  0.00  0.00    +0.000 A 
ATOM      9  C   UNL     1       1.575   8.442  19.602  0.00  0.00    +0.000 A 
ATOM     10  C   UNL     1       1.162   9.680  19.080  0.00  0.00    +0.000 A 
BRANCH   5  12
ATOM     11  C   UNL     1       0.933  12.760  18.681  0.00  0.00    +0.000 C 
ATOM     12  C   UNL     1      -0.179  11.872  19.259  0.00  0.00    +0.000 C 
BRANCH  12  13
ATOM     13  C   UNL     1      -1.292  11.553  18.239  0.00  0.00    +0.000 C 
BRANCH  13  14
ATOM     14  C   UNL     1      -2.668  11.830  18.744  0.00  0.00    +0.000 A 
ATOM     15  N   UNL     1      -2.960  12.346  19.918  0.00  0.00    +0.000 NA
ATOM     16  N   UNL     1      -4.326  12.484  20.004  0.00  0.00    +0.000 NA
ATOM     17  C   UNL     1      -4.837  12.055  18.876  0.00  0.00    +0.000 A 
ATOM     18  N   UNL     1      -3.839  11.626  18.057  0.00  0.00    +0.000 N 
ATOM     19  C   UNL     1      -4.014  11.085  16.740  0.00  0.00    +0.000 C 
ENDBRANCH  13  14
ENDBRANCH  12  13
ENDBRANCH   5  12
ENDBRANCH   1   9
BRANCH   2  20
ATOM     20  C   UNL     1       3.643   5.627  18.094  0.00  0.00    +0.000 A 
ATOM     21  C   UNL     1       4.908   6.057  17.660  0.00  0.00    +0.000 A 
ATOM     22  C   UNL     1       5.717   5.235  16.860  0.00  0.00    +0.000 A 
ATOM     23  C   UNL     1       5.265   3.949  16.546  0.00  0.00    +0.000 A 
ATOM     24  C   UNL     1       3.992   3.533  16.939  0.00  0.00    +0.000 A 
ATOM     25  C   UNL     1       3.144   4.378  17.680  0.00  0.00    +0.000 A 
BRANCH  25  26
ATOM     26  C   UNL     1       1.749   3.879  17.983  0.00  0.00    +0.000 C 
ATOM     27  F   UNL     1       0.728   4.541  17.379  0.00  0.00    +0.000 F 
ATOM     28  F   UNL     1       1.602   2.584  17.553  0.00  0.00    +0.000 F 
ATOM     29  F   UNL     1       1.474   3.837  19.315  0.00  0.00    +0.000 F 
ENDBRANCH  25  26
BRANCH  22  30
ATOM     30  C   UNL     1       7.096   5.674  16.440  0.00  0.00    +0.000 C 
BRANCH  30  31
ATOM     31  O   UNL     1       7.864   4.562  15.998  0.00  0.00    +0.000 OA
ATOM     32  H   UNL     1       7.291   4.041  15.410  0.00  0.00    +0.000 HD
ENDBRANCH  30  31
ENDBRANCH  22  30
ENDBRANCH   2  20
TORSDOF 8
ENDMDL
MODEL 7
REMARK VINA RESULT:      -8.0      2.255      3.290
REMARK  Name = 
REMARK  10 active torsions:
REMARK  status: ('A' for Active; 'I' for Inactive)
REMARK    1  A    between atoms: C_1  and  C_2
REMARK    2  A    between atoms: C_2  and  C_3
REMARK    3  A    between atoms: C_2  and  C_10
REMARK    4  A    between atoms: C_3  and  C_4
REMARK    5  A    between atoms: N_8  and  C_9
REMARK    6  A    between atoms: C_14  and  N_15
REMARK    7  A    between atoms: C_16  and  C_18
REMARK    8  A    between atoms: C_20  and  C_21
REMARK    9  A    between atoms: C_21  and  O_22
REMARK   10  A    between atoms: C_25  and  C_26
REMARK                            x       y       z     vdW  Elec       q    Type
REMARK                         _______ _______ _______ _____ _____    ______ ____
ROOT
ATOM      1  N   UNL     1       2.466   7.792  19.257  0.00  0.00    +0.000 N 
ATOM      2  C   UNL     1       2.373   6.791  18.306  0.00  0.00    +0.000 C 
ATOM      3  O   UNL     1       1.465   6.614  17.504  0.00  0.00    +0.000 OA
ATOM      4  H   UNL     1       3.249   7.773  19.896  0.00  0.00    +0.000 HD
ENDROOT
BRANCH   1   9
ATOM      5  C   UNL     1      -0.015  10.054  20.877  0.00  0.00    +0.000 A 
ATOM      6  C   UNL     1      -0.152  11.048  19.897  0.00  0.00    +0.000 A 
ATOM      7  C   UNL     1       0.534  10.949  18.693  0.00  0.00    +0.000 A 
ATOM      8  C   UNL     1       1.385   9.868  18.451  0.00  0.00    +0.000 A 
ATOM      9  C   UNL     1       1.565   8.875  19.414  0.00  0.00    +0.000 A 
ATOM     10  C   UNL     1       0.851   8.971  20.621  0.00  0.00    +0.000 A 
BRANCH   5  12
ATOM     11  C   UNL     1      -0.008   9.543  23.374  0.00  0.00    +0.000 C 
ATOM     12  C   UNL     1      -0.739  10.228  22.211  0.00  0.00    +0.000 C 
BRANCH  12  13
ATOM     13  C   UNL     1      -0.982  11.733  22.448  0.00  0.00    +0.000 C 
BRANCH  13  14
ATOM     14  C   UNL     1      -2.418  12.086  22.648  0.00  0.00    +0.000 A 
ATOM     15  N   UNL     1      -3.128  11.816  23.721  0.00  0.00    +0.000 NA
ATOM     16  N   UNL     1      -4.392  12.329  23.547  0.00  0.00    +0.000 NA
ATOM     17  C   UNL     1      -4.423  12.908  22.372  0.00  0.00    +0.000 A 
ATOM     18  N   UNL     1      -3.213  12.774  21.765  0.00  0.00    +0.000 N 
ATOM     19  C   UNL     1      -2.869  13.278  20.466  0.00  0.00    +0.000 C 
ENDBRANCH  13  14
ENDBRANCH  12  13
ENDBRANCH   5  12
ENDBRANCH   1   9
BRANCH   2  20
ATOM     20  C   UNL     1       3.463   5.780  18.279  0.00  0.00    +0.000 A 
ATOM     21  C   UNL     1       4.610   6.042  17.512  0.00  0.00    +0.000 A 
ATOM     22  C   UNL     1       5.765   5.255  17.644  0.00  0.00    +0.000 A 
ATOM     23  C   UNL     1       5.776   4.235  18.599  0.00  0.00    +0.000 A 
ATOM     24  C   UNL     1       4.626   3.942  19.334  0.00  0.00    +0.000 A 
ATOM     25  C   UNL     1       3.440   4.680  19.156  0.00  0.00    +0.000 A 
BRANCH  25  26
ATOM     26  C   UNL     1       2.217   4.234  19.927  0.00  0.00    +0.000 C 
ATOM     27  F   UNL     1       2.367   3.139  20.716  0.00  0.00    +0.000 F 
ATOM     28  F   UNL     1       1.819   5.217  20.798  0.00  0.00    +0.000 F 
ATOM     29  F   UNL     1       1.135   4.016  19.130  0.00  0.00    +0.000 F 
ENDBRANCH  25  26
BRANCH  22  30
ATOM     30  C   UNL     1       7.013   5.571  16.861  0.00  0.00    +0.000 C 
BRANCH  30  31
ATOM     31  O   UNL     1       7.928   4.483  16.914  0.00  0.00    +0.000 OA
ATOM     32  H   UNL     1       8.324   4.407  16.030  0.00  0.00    +0.000 HD
ENDBRANCH  30  31
ENDBRANCH  22  30
ENDBRANCH   2  20
TORSDOF 8
ENDMDL
MODEL 8
REMARK VINA RESULT:      -8.0      2.499      3.319
REMARK  Name = 
REMARK  10 active torsions:
REMARK  status: ('A' for Active; 'I' for Inactive)
REMARK    1  A    between atoms: C_1  and  C_2
REMARK    2  A    between atoms: C_2  and  C_3
REMARK    3  A    between atoms: C_2  and  C_10
REMARK    4  A    between atoms: C_3  and  C_4
REMARK    5  A    between atoms: N_8  and  C_9
REMARK    6  A    between atoms: C_14  and  N_15
REMARK    7  A    between atoms: C_16  and  C_18
REMARK    8  A    between atoms: C_20  and  C_21
REMARK    9  A    between atoms: C_21  and  O_22
REMARK   10  A    between atoms: C_25  and  C_26
REMARK                            x       y       z     vdW  Elec       q    Type
REMARK                         _______ _______ _______ _____ _____    ______ ____
ROOT
ATOM      1  N   UNL     1       2.351   7.398  19.812  0.00  0.00    +0.000 N 
ATOM      2  C   UNL     1       2.476   7.170  18.454  0.00  0.00    +0.000 C 
ATOM      3  O   UNL     1       1.807   7.664  17.555  0.00  0.00    +0.000 OA
ATOM      4  H   UNL     1       2.936   6.866  20.443  0.00  0.00    +0.000 HD
ENDROOT
BRANCH   1   9
ATOM      5  C   UNL     1       0.203  10.422  20.193  0.00  0.00    +0.000 A 
ATOM      6  C   UNL     1      -0.341  10.206  21.467  0.00  0.00    +0.000 A 
ATOM      7  C   UNL     1       0.033   9.095  22.213  0.00  0.00    +0.000 A 
ATOM      8  C   UNL     1       0.941   8.168  21.695  0.00  0.00    +0.000 A 
ATOM      9  C   UNL     1       1.481   8.337  20.420  0.00  0.00    +0.000 A 
ATOM     10  C   UNL     1       1.114   9.475  19.681  0.00  0.00    +0.000 A 
BRANCH   5  12
ATOM     11  C   UNL     1      -1.441  12.364  20.050  0.00  0.00    +0.000 C 
ATOM     12  C   UNL     1      -0.277  11.622  19.379  0.00  0.00    +0.000 C 
BRANCH  12  13
ATOM     13  C   UNL     1       0.932  12.532  19.081  0.00  0.00    +0.000 C 
BRANCH  13  14
ATOM     14  C   UNL     1       1.213  13.530  20.153  0.00  0.00    +0.000 A 
ATOM     15  N   UNL     1       1.813  13.273  21.295  0.00  0.00    +0.000 NA
ATOM     16  N   UNL     1       1.923  14.448  22.003  0.00  0.00    +0.000 NA
ATOM     17  C   UNL     1       1.393  15.398  21.271  0.00  0.00    +0.000 A 
ATOM     18  N   UNL     1       0.926  14.871  20.107  0.00  0.00    +0.000 N 
ATOM     19  C   UNL     1       0.279  15.606  19.058  0.00  0.00    +0.000 C 
ENDBRANCH  13  14
ENDBRANCH  12  13
ENDBRANCH   5  12
ENDBRANCH   1   9
BRANCH   2  20
ATOM     20  C   UNL     1       3.498   6.177  18.026  0.00  0.00    +0.000 A 
ATOM     21  C   UNL     1       4.805   6.621  17.765  0.00  0.00    +0.000 A 
ATOM     22  C   UNL     1       5.860   5.709  17.605  0.00  0.00    +0.000 A 
ATOM     23  C   UNL     1       5.600   4.345  17.768  0.00  0.00    +0.000 A 
ATOM     24  C   UNL     1       4.297   3.896  17.985  0.00  0.00    +0.000 A 
ATOM     25  C   UNL     1       3.219   4.799  18.074  0.00  0.00    +0.000 A 
BRANCH  25  26
ATOM     26  C   UNL     1       1.830   4.218  18.218  0.00  0.00    +0.000 C 
ATOM     27  F   UNL     1       1.183   4.484  19.382  0.00  0.00    +0.000 F 
ATOM     28  F   UNL     1       0.998   4.729  17.254  0.00  0.00    +0.000 F 
ATOM     29  F   UNL     1       1.793   2.870  18.031  0.00  0.00    +0.000 F 
ENDBRANCH  25  26
BRANCH  22  30
ATOM     30  C   UNL     1       7.271   6.187  17.380  0.00  0.00    +0.000 C 
BRANCH  30  31
ATOM     31  O   UNL     1       7.549   6.297  15.990  0.00  0.00    +0.000 OA
ATOM     32  H   UNL     1       7.545   5.394  15.630  0.00  0.00    +0.000 HD
ENDBRANCH  30  31
ENDBRANCH  22  30
ENDBRANCH   2  20
TORSDOF 8
ENDMDL
MODEL 9
REMARK VINA RESULT:      -7.9      2.296      3.193
REMARK  Name = 
REMARK  10 active torsions:
REMARK  status: ('A' for Active; 'I' for Inactive)
REMARK    1  A    between atoms: C_1  and  C_2
REMARK    2  A    between atoms: C_2  and  C_3
REMARK    3  A    between atoms: C_2  and  C_10
REMARK    4  A    between atoms: C_3  and  C_4
REMARK    5  A    between atoms: N_8  and  C_9
REMARK    6  A    between atoms: C_14  and  N_15
REMARK    7  A    between atoms: C_16  and  C_18
REMARK    8  A    between atoms: C_20  and  C_21
REMARK    9  A    between atoms: C_21  and  O_22
REMARK   10  A    between atoms: C_25  and  C_26
REMARK                            x       y       z     vdW  Elec       q    Type
REMARK                         _______ _______ _______ _____ _____    ______ ____
ROOT
ATOM      1  N   UNL     1       2.335   7.450  19.645  0.00  0.00    +0.000 N 
ATOM      2  C   UNL     1       2.494   7.304  18.279  0.00  0.00    +0.000 C 
ATOM      3  O   UNL     1       1.869   7.877  17.395  0.00  0.00    +0.000 OA
ATOM      4  H   UNL     1       2.882   6.859  20.257  0.00  0.00    +0.000 HD
ENDROOT
BRANCH   1   9
ATOM      5  C   UNL     1       0.131  10.423  20.100  0.00  0.00    +0.000 A 
ATOM      6  C   UNL     1      -0.330  10.218  21.408  0.00  0.00    +0.000 A 
ATOM      7  C   UNL     1       0.117   9.131  22.149  0.00  0.00    +0.000 A 
ATOM      8  C   UNL     1       1.018   8.218  21.595  0.00  0.00    +0.000 A 
ATOM      9  C   UNL     1       1.477   8.377  20.287  0.00  0.00    +0.000 A 
ATOM     10  C   UNL     1       1.036   9.490  19.551  0.00  0.00    +0.000 A 
BRANCH   5  12
ATOM     11  C   UNL     1      -1.932  11.459  19.020  0.00  0.00    +0.000 C 
ATOM     12  C   UNL     1      -0.428  11.594  19.295  0.00  0.00    +0.000 C 
BRANCH  12  13
ATOM     13  C   UNL     1      -0.058  12.909  20.013  0.00  0.00    +0.000 C 
BRANCH  13  14
ATOM     14  C   UNL     1       1.122  13.605  19.422  0.00  0.00    +0.000 A 
ATOM     15  N   UNL     1       2.320  13.084  19.275  0.00  0.00    +0.000 NA
ATOM     16  N   UNL     1       3.127  14.014  18.663  0.00  0.00    +0.000 NA
ATOM     17  C   UNL     1       2.400  15.083  18.444  0.00  0.00    +0.000 A 
ATOM     18  N   UNL     1       1.138  14.879  18.911  0.00  0.00    +0.000 N 
ATOM     19  C   UNL     1       0.062  15.827  18.851  0.00  0.00    +0.000 C 
ENDBRANCH  13  14
ENDBRANCH  12  13
ENDBRANCH   5  12
ENDBRANCH   1   9
BRANCH   2  20
ATOM     20  C   UNL     1       3.496   6.306  17.817  0.00  0.00    +0.000 A 
ATOM     21  C   UNL     1       4.808   6.736  17.554  0.00  0.00    +0.000 A 
ATOM     22  C   UNL     1       5.847   5.812  17.362  0.00  0.00    +0.000 A 
ATOM     23  C   UNL     1       5.567   4.449  17.495  0.00  0.00    +0.000 A 
ATOM     24  C   UNL     1       4.259   4.015  17.714  0.00  0.00    +0.000 A 
ATOM     25  C   UNL     1       3.196   4.931  17.835  0.00  0.00    +0.000 A 
BRANCH  25  26
ATOM     26  C   UNL     1       1.800   4.369  17.979  0.00  0.00    +0.000 C 
ATOM     27  F   UNL     1       0.860   4.865  17.132  0.00  0.00    +0.000 F 
ATOM     28  F   UNL     1       1.800   3.022  17.719  0.00  0.00    +0.000 F 
ATOM     29  F   UNL     1       1.307   4.480  19.243  0.00  0.00    +0.000 F 
ENDBRANCH  25  26
BRANCH  22  30
ATOM     30  C   UNL     1       7.263   6.274  17.135  0.00  0.00    +0.000 C 
BRANCH  30  31
ATOM     31  O   UNL     1       7.313   7.687  16.986  0.00  0.00    +0.000 OA
ATOM     32  H   UNL     1       8.121   7.888  16.484  0.00  0.00    +0.000 HD
ENDBRANCH  30  31
ENDBRANCH  22  30
ENDBRANCH   2  20
TORSDOF 8
ENDMDL
