MODEL 1
REMARK VINA RESULT:      -9.1      0.000      0.000
REMARK  Name = 
REMARK  3 active torsions:
REMARK  status: ('A' for Active; 'I' for Inactive)
REMARK    1  A    between atoms: C_2  and  C_20
REMARK    2  A    between atoms: N_3  and  C_4
REMARK    3  A    between atoms: C_7  and  C_8
REMARK                            x       y       z     vdW  Elec       q    Type
REMARK                         _______ _______ _______ _____ _____    ______ ____
ROOT
ATOM      1  C   UNL     1       8.148   7.854  18.508  0.00  0.00    +0.000 A 
ATOM      2  C   UNL     1       7.221   8.006  17.466  0.00  0.00    +0.000 A 
ATOM      3  C   UNL     1       6.337   6.975  17.122  0.00  0.00    +0.000 A 
ATOM      4  C   UNL     1       6.349   5.760  17.820  0.00  0.00    +0.000 A 
ATOM      5  C   UNL     1       7.286   5.603  18.848  0.00  0.00    +0.000 A 
ATOM      6  C   UNL     1       8.164   6.646  19.201  0.00  0.00    +0.000 A 
ENDROOT
BRANCH   4   7
ATOM      7  C   UNL     1       5.417   4.696  17.420  0.00  0.00    +0.000 A 
ATOM      8  N   UNL     1       5.537   3.942  16.340  0.00  0.00    +0.000 NA
ATOM      9  N   UNL     1       4.538   3.008  16.331  0.00  0.00    +0.000 NA
ATOM     10  C   UNL     1       3.777   3.204  17.386  0.00  0.00    +0.000 A 
ATOM     11  N   UNL     1       4.255   4.304  18.069  0.00  0.00    +0.000 N 
ATOM     12  C   UNL     1       3.645   4.945  19.210  0.00  0.00    +0.000 C 
ATOM     13  C   UNL     1       2.121   4.925  19.225  0.00  0.00    +0.000 C 
ATOM     14  C   UNL     1       1.530   3.603  19.712  0.00  0.00    +0.000 C 
ATOM     15  C   UNL     1       2.261   2.346  19.241  0.00  0.00    +0.000 C 
ATOM     16  C   UNL     1       2.597   2.363  17.752  0.00  0.00    +0.000 C 
ENDBRANCH   4   7
BRANCH   1  19
ATOM     17  O   UNL     1       8.137  10.674  17.831  0.00  0.00    +0.000 OA
ATOM     18  C   UNL     1       9.010  10.188  18.557  0.00  0.00    +0.000 C 
ATOM     19  N   UNL     1       9.079   8.851  18.893  0.00  0.00    +0.000 N 
ATOM     20  H   UNL     1       9.911   8.551  19.413  0.00  0.00    +0.000 HD
BRANCH  18  21
ATOM     21  C   UNL     1       9.999  11.147  19.136  0.00  0.00    +0.000 A 
ATOM     22  C   UNL     1      11.216  11.253  18.424  0.00  0.00    +0.000 A 
ATOM     23  C   UNL     1      12.137  12.246  18.716  0.00  0.00    +0.000 A 
ATOM     24  C   UNL     1      11.769  13.241  19.603  0.00  0.00    +0.000 A 
ATOM     25  C   UNL     1      10.572  13.125  20.329  0.00  0.00    +0.000 A 
ATOM     26  C   UNL     1      10.219  14.122  21.232  0.00  0.00    +0.000 A 
ATOM     27  C   UNL     1       9.498  13.767  22.351  0.00  0.00    +0.000 A 
ATOM     28  C   UNL     1       8.850  12.550  22.310  0.00  0.00    +0.000 A 
ATOM     29  N   UNL     1       8.849  11.727  21.226  0.00  0.00    +0.000 NA
ATOM     30  C   UNL     1       9.757  11.978  20.242  0.00  0.00    +0.000 A 
ENDBRANCH  18  21
ENDBRANCH   1  19
TORSDOF 3
ENDMDL
MODEL 2
REMARK VINA RESULT:      -9.1      6.717      8.584
REMARK  Name = 
REMARK  3 active torsions:
REMARK  status: ('A' for Active; 'I' for Inactive)
REMARK    1  A    between atoms: C_2  and  C_20
REMARK    2  A    between atoms: N_3  and  C_4
REMARK    3  A    between atoms: C_7  and  C_8
REMARK                            x       y       z     vdW  Elec       q    Type
REMARK                         _______ _______ _______ _____ _____    ______ ____
ROOT
ATOM      1  C   UNL     1       0.558   9.793  20.240  0.00  0.00    +0.000 A 
ATOM      2  C   UNL     1       1.070   8.669  20.905  0.00  0.00    +0.000 A 
ATOM      3  C   UNL     1       1.872   7.733  20.239  0.00  0.00    +0.000 A 
ATOM      4  C   UNL     1       2.192   7.900  18.885  0.00  0.00    +0.000 A 
ATOM      5  C   UNL     1       1.666   9.012  18.219  0.00  0.00    +0.000 A 
ATOM      6  C   UNL     1       0.872   9.960  18.894  0.00  0.00    +0.000 A 
ENDROOT
BRANCH   4   7
ATOM      7  C   UNL     1       3.023   6.888  18.217  0.00  0.00    +0.000 A 
ATOM      8  N   UNL     1       4.068   7.146  17.447  0.00  0.00    +0.000 NA
ATOM      9  N   UNL     1       4.646   5.967  17.065  0.00  0.00    +0.000 NA
ATOM     10  C   UNL     1       3.940   4.976  17.568  0.00  0.00    +0.000 A 
ATOM     11  N   UNL     1       2.864   5.510  18.249  0.00  0.00    +0.000 N 
ATOM     12  C   UNL     1       1.769   4.781  18.842  0.00  0.00    +0.000 C 
ATOM     13  C   UNL     1       1.359   3.513  18.100  0.00  0.00    +0.000 C 
ATOM     14  C   UNL     1       2.256   2.313  18.398  0.00  0.00    +0.000 C 
ATOM     15  C   UNL     1       3.749   2.625  18.519  0.00  0.00    +0.000 C 
ATOM     16  C   UNL     1       4.271   3.528  17.406  0.00  0.00    +0.000 C 
ENDBRANCH   4   7
BRANCH   1  19
ATOM     17  O   UNL     1       0.180  10.302  23.071  0.00  0.00    +0.000 OA
ATOM     18  C   UNL     1      -0.394  10.978  22.211  0.00  0.00    +0.000 C 
ATOM     19  N   UNL     1      -0.272  10.767  20.853  0.00  0.00    +0.000 N 
ATOM     20  H   UNL     1      -0.882  11.323  20.244  0.00  0.00    +0.000 HD
BRANCH  18  21
ATOM     21  C   UNL     1      -1.217  12.122  22.708  0.00  0.00    +0.000 A 
ATOM     22  C   UNL     1      -2.528  11.785  23.114  0.00  0.00    +0.000 A 
ATOM     23  C   UNL     1      -3.330  12.691  23.789  0.00  0.00    +0.000 A 
ATOM     24  C   UNL     1      -2.762  13.879  24.212  0.00  0.00    +0.000 A 
ATOM     25  C   UNL     1      -1.469  14.228  23.790  0.00  0.00    +0.000 A 
ATOM     26  C   UNL     1      -0.913  15.433  24.206  0.00  0.00    +0.000 A 
ATOM     27  C   UNL     1      -0.036  16.076  23.361  0.00  0.00    +0.000 A 
ATOM     28  C   UNL     1       0.527  15.317  22.358  0.00  0.00    +0.000 A 
ATOM     29  N   UNL     1       0.299  13.985  22.195  0.00  0.00    +0.000 NA
ATOM     30  C   UNL     1      -0.746  13.435  22.875  0.00  0.00    +0.000 A 
ENDBRANCH  18  21
ENDBRANCH   1  19
TORSDOF 3
ENDMDL
MODEL 3
REMARK VINA RESULT:      -8.8      6.900      8.678
REMARK  Name = 
REMARK  3 active torsions:
REMARK  status: ('A' for Active; 'I' for Inactive)
REMARK    1  A    between atoms: C_2  and  C_20
REMARK    2  A    between atoms: N_3  and  C_4
REMARK    3  A    between atoms: C_7  and  C_8
REMARK                            x       y       z     vdW  Elec       q    Type
REMARK                         _______ _______ _______ _____ _____    ______ ____
ROOT
ATOM      1  C   UNL     1       0.705   9.845  19.709  0.00  0.00    +0.000 A 
ATOM      2  C   UNL     1       1.186   8.802  20.514  0.00  0.00    +0.000 A 
ATOM      3  C   UNL     1       1.971   7.773  19.978  0.00  0.00    +0.000 A 
ATOM      4  C   UNL     1       2.305   7.762  18.617  0.00  0.00    +0.000 A 
ATOM      5  C   UNL     1       1.810   8.794  17.813  0.00  0.00    +0.000 A 
ATOM      6  C   UNL     1       1.033   9.835  18.356  0.00  0.00    +0.000 A 
ENDROOT
BRANCH   4   7
ATOM      7  C   UNL     1       3.118   6.657  18.089  0.00  0.00    +0.000 A 
ATOM      8  N   UNL     1       4.206   6.796  17.349  0.00  0.00    +0.000 NA
ATOM      9  N   UNL     1       4.746   5.562  17.109  0.00  0.00    +0.000 NA
ATOM     10  C   UNL     1       3.974   4.655  17.670  0.00  0.00    +0.000 A 
ATOM     11  N   UNL     1       2.895   5.297  18.244  0.00  0.00    +0.000 N 
ATOM     12  C   UNL     1       1.743   4.674  18.851  0.00  0.00    +0.000 C 
ATOM     13  C   UNL     1       1.308   3.358  18.215  0.00  0.00    +0.000 C 
ATOM     14  C   UNL     1       2.136   2.156  18.668  0.00  0.00    +0.000 C 
ATOM     15  C   UNL     1       3.635   2.417  18.831  0.00  0.00    +0.000 C 
ATOM     16  C   UNL     1       4.245   3.185  17.662  0.00  0.00    +0.000 C 
ENDBRANCH   4   7
BRANCH   1  19
ATOM     17  O   UNL     1       1.541  12.281  21.044  0.00  0.00    +0.000 OA
ATOM     18  C   UNL     1       0.352  12.056  20.796  0.00  0.00    +0.000 C 
ATOM     19  N   UNL     1      -0.106  10.906  20.187  0.00  0.00    +0.000 N 
ATOM     20  H   UNL     1      -1.124  10.788  20.134  0.00  0.00    +0.000 HD
BRANCH  18  21
ATOM     21  C   UNL     1      -0.614  13.143  21.141  0.00  0.00    +0.000 A 
ATOM     22  C   UNL     1      -0.350  14.392  20.533  0.00  0.00    +0.000 A 
ATOM     23  C   UNL     1      -1.268  15.429  20.588  0.00  0.00    +0.000 A 
ATOM     24  C   UNL     1      -2.523  15.165  21.103  0.00  0.00    +0.000 A 
ATOM     25  C   UNL     1      -2.780  13.934  21.729  0.00  0.00    +0.000 A 
ATOM     26  C   UNL     1      -4.041  13.684  22.261  0.00  0.00    +0.000 A 
ATOM     27  C   UNL     1      -4.136  12.875  23.371  0.00  0.00    +0.000 A 
ATOM     28  C   UNL     1      -3.053  12.067  23.642  0.00  0.00    +0.000 A 
ATOM     29  N   UNL     1      -1.942  11.997  22.859  0.00  0.00    +0.000 NA
ATOM     30  C   UNL     1      -1.767  12.972  21.923  0.00  0.00    +0.000 A 
ENDBRANCH  18  21
ENDBRANCH   1  19
TORSDOF 3
ENDMDL
MODEL 4
REMARK VINA RESULT:      -8.8      6.071      8.056
REMARK  Name = 
REMARK  3 active torsions:
REMARK  status: ('A' for Active; 'I' for Inactive)
REMARK    1  A    between atoms: C_2  and  C_20
REMARK    2  A    between atoms: N_3  and  C_4
REMARK    3  A    between atoms: C_7  and  C_8
REMARK                            x       y       z     vdW  Elec       q    Type
REMARK                         _______ _______ _______ _____ _____    ______ ____
ROOT
ATOM      1  C   UNL     1       1.300   9.224  19.689  0.00  0.00    +0.000 A 
ATOM      2  C   UNL     1       1.642   8.109  20.467  0.00  0.00    +0.000 A 
ATOM      3  C   UNL     1       2.223   6.971  19.892  0.00  0.00    +0.000 A 
ATOM      4  C   UNL     1       2.487   6.920  18.516  0.00  0.00    +0.000 A 
ATOM      5  C   UNL     1       2.130   8.027  17.739  0.00  0.00    +0.000 A 
ATOM      6  C   UNL     1       1.559   9.175  18.321  0.00  0.00    +0.000 A 
ENDROOT
BRANCH   4   7
ATOM      7  C   UNL     1       3.083   5.703  17.948  0.00  0.00    +0.000 A 
ATOM      8  N   UNL     1       2.540   4.498  17.985  0.00  0.00    +0.000 NA
ATOM      9  N   UNL     1       3.332   3.626  17.289  0.00  0.00    +0.000 NA
ATOM     10  C   UNL     1       4.384   4.283  16.849  0.00  0.00    +0.000 A 
ATOM     11  N   UNL     1       4.304   5.586  17.298  0.00  0.00    +0.000 N 
ATOM     12  C   UNL     1       5.308   6.612  17.156  0.00  0.00    +0.000 C 
ATOM     13  C   UNL     1       6.750   6.117  17.200  0.00  0.00    +0.000 C 
ATOM     14  C   UNL     1       7.236   5.525  15.878  0.00  0.00    +0.000 C 
ATOM     15  C   UNL     1       6.208   4.682  15.121  0.00  0.00    +0.000 C 
ATOM     16  C   UNL     1       5.469   3.687  16.011  0.00  0.00    +0.000 C 
ENDBRANCH   4   7
BRANCH   1  19
ATOM     17  O   UNL     1      -0.457   9.472  21.984  0.00  0.00    +0.000 OA
ATOM     18  C   UNL     1      -0.117  10.457  21.321  0.00  0.00    +0.000 C 
ATOM     19  N   UNL     1       0.695  10.397  20.207  0.00  0.00    +0.000 N 
ATOM     20  H   UNL     1       0.816  11.269  19.679  0.00  0.00    +0.000 HD
BRANCH  18  21
ATOM     21  C   UNL     1      -0.588  11.785  21.821  0.00  0.00    +0.000 A 
ATOM     22  C   UNL     1      -1.648  11.732  22.754  0.00  0.00    +0.000 A 
ATOM     23  C   UNL     1      -2.046  12.857  23.458  0.00  0.00    +0.000 A 
ATOM     24  C   UNL     1      -1.273  13.998  23.359  0.00  0.00    +0.000 A 
ATOM     25  C   UNL     1      -0.234  14.062  22.416  0.00  0.00    +0.000 A 
ATOM     26  C   UNL     1       0.527  15.222  22.310  0.00  0.00    +0.000 A 
ATOM     27  C   UNL     1       1.038  15.561  21.077  0.00  0.00    +0.000 A 
ATOM     28  C   UNL     1       1.096  14.557  20.134  0.00  0.00    +0.000 A 
ATOM     29  N   UNL     1       0.727  13.269  20.372  0.00  0.00    +0.000 NA
ATOM     30  C   UNL     1       0.004  13.017  21.499  0.00  0.00    +0.000 A 
ENDBRANCH  18  21
ENDBRANCH   1  19
TORSDOF 3
ENDMDL
MODEL 5
REMARK VINA RESULT:      -8.7      7.125      9.158
REMARK  Name = 
REMARK  3 active torsions:
REMARK  status: ('A' for Active; 'I' for Inactive)
REMARK    1  A    between atoms: C_2  and  C_20
REMARK    2  A    between atoms: N_3  and  C_4
REMARK    3  A    between atoms: C_7  and  C_8
REMARK                            x       y       z     vdW  Elec       q    Type
REMARK                         _______ _______ _______ _____ _____    ______ ____
ROOT
ATOM      1  C   UNL     1       0.353   9.780  20.083  0.00  0.00    +0.000 A 
ATOM      2  C   UNL     1       0.670   9.925  18.725  0.00  0.00    +0.000 A 
ATOM      3  C   UNL     1       1.551   9.044  18.085  0.00  0.00    +0.000 A 
ATOM      4  C   UNL     1       2.137   7.982  18.787  0.00  0.00    +0.000 A 
ATOM      5  C   UNL     1       1.833   7.849  20.147  0.00  0.00    +0.000 A 
ATOM      6  C   UNL     1       0.936   8.727  20.784  0.00  0.00    +0.000 A 
ENDROOT
BRANCH   4   7
ATOM      7  C   UNL     1       3.069   7.088  18.085  0.00  0.00    +0.000 A 
ATOM      8  N   UNL     1       4.140   7.477  17.413  0.00  0.00    +0.000 NA
ATOM      9  N   UNL     1       4.812   6.374  16.963  0.00  0.00    +0.000 NA
ATOM     10  C   UNL     1       4.140   5.302  17.325  0.00  0.00    +0.000 A 
ATOM     11  N   UNL     1       2.994   5.707  17.979  0.00  0.00    +0.000 N 
ATOM     12  C   UNL     1       1.913   4.863  18.429  0.00  0.00    +0.000 C 
ATOM     13  C   UNL     1       1.629   3.651  17.549  0.00  0.00    +0.000 C 
ATOM     14  C   UNL     1       2.579   2.480  17.792  0.00  0.00    +0.000 C 
ATOM     15  C   UNL     1       4.039   2.863  18.040  0.00  0.00    +0.000 C 
ATOM     16  C   UNL     1       4.570   3.897  17.051  0.00  0.00    +0.000 C 
ENDBRANCH   4   7
BRANCH   1  19
ATOM     17  O   UNL     1       0.959  12.365  21.252  0.00  0.00    +0.000 OA
ATOM     18  C   UNL     1      -0.177  11.880  21.308  0.00  0.00    +0.000 C 
ATOM     19  N   UNL     1      -0.517  10.647  20.792  0.00  0.00    +0.000 N 
ATOM     20  H   UNL     1      -1.464  10.309  20.996  0.00  0.00    +0.000 HD
BRANCH  18  21
ATOM     21  C   UNL     1      -1.232  12.738  21.928  0.00  0.00    +0.000 A 
ATOM     22  C   UNL     1      -0.879  13.320  23.167  0.00  0.00    +0.000 A 
ATOM     23  C   UNL     1      -1.665  14.298  23.754  0.00  0.00    +0.000 A 
ATOM     24  C   UNL     1      -2.715  14.821  23.022  0.00  0.00    +0.000 A 
ATOM     25  C   UNL     1      -3.083  14.229  21.803  0.00  0.00    +0.000 A 
ATOM     26  C   UNL     1      -4.153  14.750  21.082  0.00  0.00    +0.000 A 
ATOM     27  C   UNL     1      -4.914  13.889  20.323  0.00  0.00    +0.000 A 
ATOM     28  C   UNL     1      -4.349  12.668  20.018  0.00  0.00    +0.000 A 
ATOM     29  N   UNL     1      -3.089  12.303  20.381  0.00  0.00    +0.000 NA
ATOM     30  C   UNL     1      -2.460  13.056  21.327  0.00  0.00    +0.000 A 
ENDBRANCH  18  21
ENDBRANCH   1  19
TORSDOF 3
ENDMDL
MODEL 6
REMARK VINA RESULT:      -8.7      6.850      8.939
REMARK  Name = 
REMARK  3 active torsions:
REMARK  status: ('A' for Active; 'I' for Inactive)
REMARK    1  A    between atoms: C_2  and  C_20
REMARK    2  A    between atoms: N_3  and  C_4
REMARK    3  A    between atoms: C_7  and  C_8
REMARK                            x       y       z     vdW  Elec       q    Type
REMARK                         _______ _______ _______ _____ _____    ______ ____
ROOT
ATOM      1  C   UNL     1       0.559   9.857  19.577  0.00  0.00    +0.000 A 
ATOM      2  C   UNL     1       0.968   9.796  18.238  0.00  0.00    +0.000 A 
ATOM      3  C   UNL     1       1.804   8.770  17.779  0.00  0.00    +0.000 A 
ATOM      4  C   UNL     1       2.250   7.767  18.650  0.00  0.00    +0.000 A 
ATOM      5  C   UNL     1       1.854   7.839  19.990  0.00  0.00    +0.000 A 
ATOM      6  C   UNL     1       1.003   8.863  20.446  0.00  0.00    +0.000 A 
ENDROOT
BRANCH   4   7
ATOM      7  C   UNL     1       3.139   6.715  18.135  0.00  0.00    +0.000 A 
ATOM      8  N   UNL     1       4.258   6.925  17.461  0.00  0.00    +0.000 NA
ATOM      9  N   UNL     1       4.865   5.724  17.214  0.00  0.00    +0.000 NA
ATOM     10  C   UNL     1       4.105   4.767  17.703  0.00  0.00    +0.000 A 
ATOM     11  N   UNL     1       2.969   5.342  18.236  0.00  0.00    +0.000 N 
ATOM     12  C   UNL     1       1.815   4.651  18.759  0.00  0.00    +0.000 C 
ATOM     13  C   UNL     1       1.475   3.339  18.060  0.00  0.00    +0.000 C 
ATOM     14  C   UNL     1       2.330   2.160  18.522  0.00  0.00    +0.000 C 
ATOM     15  C   UNL     1       3.804   2.479  18.775  0.00  0.00    +0.000 C 
ATOM     16  C   UNL     1       4.442   3.311  17.666  0.00  0.00    +0.000 C 
ENDBRANCH   4   7
BRANCH   1  19
ATOM     17  O   UNL     1      -1.971  10.828  18.541  0.00  0.00    +0.000 OA
ATOM     18  C   UNL     1      -1.481  11.283  19.581  0.00  0.00    +0.000 C 
ATOM     19  N   UNL     1      -0.272  10.877  20.107  0.00  0.00    +0.000 N 
ATOM     20  H   UNL     1       0.078  11.406  20.914  0.00  0.00    +0.000 HD
BRANCH  18  21
ATOM     21  C   UNL     1      -2.306  12.290  20.315  0.00  0.00    +0.000 A 
ATOM     22  C   UNL     1      -3.643  12.405  19.874  0.00  0.00    +0.000 A 
ATOM     23  C   UNL     1      -4.578  13.137  20.588  0.00  0.00    +0.000 A 
ATOM     24  C   UNL     1      -4.221  13.613  21.836  0.00  0.00    +0.000 A 
ATOM     25  C   UNL     1      -2.888  13.522  22.267  0.00  0.00    +0.000 A 
ATOM     26  C   UNL     1      -2.535  14.020  23.517  0.00  0.00    +0.000 A 
ATOM     27  C   UNL     1      -1.267  14.532  23.685  0.00  0.00    +0.000 A 
ATOM     28  C   UNL     1      -0.324  14.170  22.746  0.00  0.00    +0.000 A 
ATOM     29  N   UNL     1      -0.568  13.314  21.716  0.00  0.00    +0.000 NA
ATOM     30  C   UNL     1      -1.868  13.023  21.431  0.00  0.00    +0.000 A 
ENDBRANCH  18  21
ENDBRANCH   1  19
TORSDOF 3
ENDMDL
MODEL 7
REMARK VINA RESULT:      -8.7      6.273      8.258
REMARK  Name = 
REMARK  3 active torsions:
REMARK  status: ('A' for Active; 'I' for Inactive)
REMARK    1  A    between atoms: C_2  and  C_20
REMARK    2  A    between atoms: N_3  and  C_4
REMARK    3  A    between atoms: C_7  and  C_8
REMARK                            x       y       z     vdW  Elec       q    Type
REMARK                         _______ _______ _______ _____ _____    ______ ____
ROOT
ATOM      1  C   UNL     1       1.266   9.113  19.642  0.00  0.00    +0.000 A 
ATOM      2  C   UNL     1       1.659   8.008  20.410  0.00  0.00    +0.000 A 
ATOM      3  C   UNL     1       2.268   6.892  19.822  0.00  0.00    +0.000 A 
ATOM      4  C   UNL     1       2.509   6.853  18.441  0.00  0.00    +0.000 A 
ATOM      5  C   UNL     1       2.100   7.950  17.674  0.00  0.00    +0.000 A 
ATOM      6  C   UNL     1       1.502   9.076  18.270  0.00  0.00    +0.000 A 
ENDROOT
BRANCH   4   7
ATOM      7  C   UNL     1       3.135   5.659  17.858  0.00  0.00    +0.000 A 
ATOM      8  N   UNL     1       2.610   4.444  17.860  0.00  0.00    +0.000 NA
ATOM      9  N   UNL     1       3.429   3.600  17.160  0.00  0.00    +0.000 NA
ATOM     10  C   UNL     1       4.479   4.283  16.755  0.00  0.00    +0.000 A 
ATOM     11  N   UNL     1       4.369   5.574  17.230  0.00  0.00    +0.000 N 
ATOM     12  C   UNL     1       5.360   6.618  17.130  0.00  0.00    +0.000 C 
ATOM     13  C   UNL     1       6.808   6.145  17.191  0.00  0.00    +0.000 C 
ATOM     14  C   UNL     1       7.328   5.590  15.866  0.00  0.00    +0.000 C 
ATOM     15  C   UNL     1       6.329   4.748  15.071  0.00  0.00    +0.000 C 
ATOM     16  C   UNL     1       5.589   3.722  15.925  0.00  0.00    +0.000 C 
ENDBRANCH   4   7
BRANCH   1  19
ATOM     17  O   UNL     1       1.840  11.900  19.077  0.00  0.00    +0.000 OA
ATOM     18  C   UNL     1       0.934  11.571  19.850  0.00  0.00    +0.000 C 
ATOM     19  N   UNL     1       0.632  10.264  20.174  0.00  0.00    +0.000 N 
ATOM     20  H   UNL     1      -0.070  10.124  20.909  0.00  0.00    +0.000 HD
BRANCH  18  21
ATOM     21  C   UNL     1       0.099  12.681  20.401  0.00  0.00    +0.000 A 
ATOM     22  C   UNL     1       0.318  13.946  19.810  0.00  0.00    +0.000 A 
ATOM     23  C   UNL     1      -0.522  15.018  20.067  0.00  0.00    +0.000 A 
ATOM     24  C   UNL     1      -1.682  14.783  20.780  0.00  0.00    +0.000 A 
ATOM     25  C   UNL     1      -1.891  13.534  21.389  0.00  0.00    +0.000 A 
ATOM     26  C   UNL     1      -3.054  13.313  22.120  0.00  0.00    +0.000 A 
ATOM     27  C   UNL     1      -2.999  12.454  23.195  0.00  0.00    +0.000 A 
ATOM     28  C   UNL     1      -1.928  11.587  23.241  0.00  0.00    +0.000 A 
ATOM     29  N   UNL     1      -0.973  11.509  22.274  0.00  0.00    +0.000 NA
ATOM     30  C   UNL     1      -0.911  12.521  21.364  0.00  0.00    +0.000 A 
ENDBRANCH  18  21
ENDBRANCH   1  19
TORSDOF 3
ENDMDL
MODEL 8
REMARK VINA RESULT:      -8.7      6.376     10.408
REMARK  Name = 
REMARK  3 active torsions:
REMARK  status: ('A' for Active; 'I' for Inactive)
REMARK    1  A    between atoms: C_2  and  C_20
REMARK    2  A    between atoms: N_3  and  C_4
REMARK    3  A    between atoms: C_7  and  C_8
REMARK                            x       y       z     vdW  Elec       q    Type
REMARK                         _______ _______ _______ _____ _____    ______ ____
ROOT
ATOM      1  C   UNL     1       1.615   8.311  20.301  0.00  0.00    +0.000 A 
ATOM      2  C   UNL     1       1.485   8.400  21.694  0.00  0.00    +0.000 A 
ATOM      3  C   UNL     1       0.774   9.448  22.294  0.00  0.00    +0.000 A 
ATOM      4  C   UNL     1       0.163  10.438  21.511  0.00  0.00    +0.000 A 
ATOM      5  C   UNL     1       0.309  10.357  20.122  0.00  0.00    +0.000 A 
ATOM      6  C   UNL     1       1.011   9.295  19.521  0.00  0.00    +0.000 A 
ENDROOT
BRANCH   4   7
ATOM      7  C   UNL     1      -0.560  11.530  22.177  0.00  0.00    +0.000 A 
ATOM      8  N   UNL     1      -1.581  11.375  23.005  0.00  0.00    +0.000 NA
ATOM      9  N   UNL     1      -1.949  12.598  23.495  0.00  0.00    +0.000 NA
ATOM     10  C   UNL     1      -1.182  13.515  22.945  0.00  0.00    +0.000 A 
ATOM     11  N   UNL     1      -0.332  12.892  22.053  0.00  0.00    +0.000 N 
ATOM     12  C   UNL     1       0.584  13.535  21.141  0.00  0.00    +0.000 C 
ATOM     13  C   UNL     1       0.114  14.876  20.589  0.00  0.00    +0.000 C 
ATOM     14  C   UNL     1       0.327  16.044  21.550  0.00  0.00    +0.000 C 
ATOM     15  C   UNL     1       0.054  15.737  23.024  0.00  0.00    +0.000 C 
ATOM     16  C   UNL     1      -1.249  14.976  23.252  0.00  0.00    +0.000 C 
ENDBRANCH   4   7
BRANCH   1  19
ATOM     17  O   UNL     1       1.362   5.440  20.629  0.00  0.00    +0.000 OA
ATOM     18  C   UNL     1       2.154   5.930  19.817  0.00  0.00    +0.000 C 
ATOM     19  N   UNL     1       2.334   7.286  19.635  0.00  0.00    +0.000 N 
ATOM     20  H   UNL     1       3.097   7.568  19.010  0.00  0.00    +0.000 HD
BRANCH  18  21
ATOM     21  C   UNL     1       2.902   4.964  18.956  0.00  0.00    +0.000 A 
ATOM     22  C   UNL     1       2.100   4.005  18.297  0.00  0.00    +0.000 A 
ATOM     23  C   UNL     1       2.623   3.185  17.310  0.00  0.00    +0.000 A 
ATOM     24  C   UNL     1       3.905   3.439  16.859  0.00  0.00    +0.000 A 
ATOM     25  C   UNL     1       4.712   4.373  17.528  0.00  0.00    +0.000 A 
ATOM     26  C   UNL     1       6.007   4.609  17.078  0.00  0.00    +0.000 A 
ATOM     27  C   UNL     1       6.969   4.953  18.001  0.00  0.00    +0.000 A 
ATOM     28  C   UNL     1       6.520   5.415  19.220  0.00  0.00    +0.000 A 
ATOM     29  N   UNL     1       5.206   5.590  19.529  0.00  0.00    +0.000 NA
ATOM     30  C   UNL     1       4.283   5.017  18.707  0.00  0.00    +0.000 A 
ENDBRANCH  18  21
ENDBRANCH   1  19
TORSDOF 3
ENDMDL
MODEL 9
REMARK VINA RESULT:      -8.6      6.498     10.574
REMARK  Name = 
REMARK  3 active torsions:
REMARK  status: ('A' for Active; 'I' for Inactive)
REMARK    1  A    between atoms: C_2  and  C_20
REMARK    2  A    between atoms: N_3  and  C_4
REMARK    3  A    between atoms: C_7  and  C_8
REMARK                            x       y       z     vdW  Elec       q    Type
REMARK                         _______ _______ _______ _____ _____    ______ ____
ROOT
ATOM      1  C   UNL     1       1.317   8.634  20.148  0.00  0.00    +0.000 A 
ATOM      2  C   UNL     1       0.639   9.671  19.492  0.00  0.00    +0.000 A 
ATOM      3  C   UNL     1      -0.052  10.657  20.208  0.00  0.00    +0.000 A 
ATOM      4  C   UNL     1      -0.077  10.638  21.609  0.00  0.00    +0.000 A 
ATOM      5  C   UNL     1       0.586   9.593  22.262  0.00  0.00    +0.000 A 
ATOM      6  C   UNL     1       1.291   8.611  21.541  0.00  0.00    +0.000 A 
ENDROOT
BRANCH   4   7
ATOM      7  C   UNL     1      -0.825  11.681  22.325  0.00  0.00    +0.000 A 
ATOM      8  N   UNL     1      -1.892  11.474  23.079  0.00  0.00    +0.000 NA
ATOM      9  N   UNL     1      -2.274  12.656  23.652  0.00  0.00    +0.000 NA
ATOM     10  C   UNL     1      -1.466  13.604  23.226  0.00  0.00    +0.000 A 
ATOM     11  N   UNL     1      -0.574  13.046  22.332  0.00  0.00    +0.000 N 
ATOM     12  C   UNL     1       0.400  13.748  21.532  0.00  0.00    +0.000 C 
ATOM     13  C   UNL     1      -0.022  15.139  21.072  0.00  0.00    +0.000 C 
ATOM     14  C   UNL     1       0.150  16.217  22.141  0.00  0.00    +0.000 C 
ATOM     15  C   UNL     1      -0.210  15.790  23.565  0.00  0.00    +0.000 C 
ATOM     16  C   UNL     1      -1.533  15.034  23.653  0.00  0.00    +0.000 C 
ENDBRANCH   4   7
BRANCH   1  19
ATOM     17  O   UNL     1       2.437   8.662  17.473  0.00  0.00    +0.000 OA
ATOM     18  C   UNL     1       2.551   7.678  18.211  0.00  0.00    +0.000 C 
ATOM     19  N   UNL     1       2.019   7.598  19.481  0.00  0.00    +0.000 N 
ATOM     20  H   UNL     1       2.088   6.690  19.953  0.00  0.00    +0.000 HD
BRANCH  18  21
ATOM     21  C   UNL     1       3.371   6.546  17.682  0.00  0.00    +0.000 A 
ATOM     22  C   UNL     1       4.590   6.922  17.074  0.00  0.00    +0.000 A 
ATOM     23  C   UNL     1       5.546   5.980  16.729  0.00  0.00    +0.000 A 
ATOM     24  C   UNL     1       5.359   4.676  17.148  0.00  0.00    +0.000 A 
ATOM     25  C   UNL     1       4.139   4.293  17.730  0.00  0.00    +0.000 A 
ATOM     26  C   UNL     1       3.954   2.974  18.131  0.00  0.00    +0.000 A 
ATOM     27  C   UNL     1       2.685   2.443  18.070  0.00  0.00    +0.000 A 
ATOM     28  C   UNL     1       1.641   3.340  17.994  0.00  0.00    +0.000 A 
ATOM     29  N   UNL     1       1.798   4.692  18.024  0.00  0.00    +0.000 NA
ATOM     30  C   UNL     1       3.053   5.186  17.835  0.00  0.00    +0.000 A 
ENDBRANCH  18  21
ENDBRANCH   1  19
TORSDOF 3
ENDMDL
