MODEL 1
REMARK VINA RESULT:      -8.3      0.000      0.000
REMARK  Name = 
REMARK  4 active torsions:
REMARK  status: ('A' for Active; 'I' for Inactive)
REMARK    1  A    between atoms: C_2  and  C_18
REMARK    2  A    between atoms: N_3  and  C_4
REMARK    3  A    between atoms: C_9  and  C_10
REMARK    4  A    between atoms: C_20  and  C_21
REMARK                            x       y       z     vdW  Elec       q    Type
REMARK                         _______ _______ _______ _____ _____    ______ ____
ROOT
ATOM      1  C   UNL     1       2.148   7.545  18.868  0.00  0.00    +0.000 A 
ATOM      2  C   UNL     1       2.034   7.450  20.261  0.00  0.00    +0.000 A 
ATOM      3  C   UNL     1       1.353   8.409  21.016  0.00  0.00    +0.000 A 
ATOM      4  C   UNL     1       0.792   9.465  20.308  0.00  0.00    +0.000 A 
ATOM      5  N   UNL     1       0.000  10.506  20.697  0.00  0.00    +0.000 N 
ATOM      6  C   UNL     1      -0.280  11.275  19.596  0.00  0.00    +0.000 A 
ATOM      7  N   UNL     1       0.290  10.774  18.519  0.00  0.00    +0.000 NA
ATOM      8  C   UNL     1       0.943   9.637  18.938  0.00  0.00    +0.000 A 
ATOM      9  C   UNL     1       1.659   8.679  18.199  0.00  0.00    +0.000 A 
ATOM     10  H   UNL     1      -0.370  10.677  21.622  0.00  0.00    +0.000 HD
ENDROOT
BRANCH   6  11
ATOM     11  C   UNL     1      -1.149  12.480  19.700  0.00  0.00    +0.000 C 
ATOM     12  C   UNL     1      -1.265  13.011  21.116  0.00  0.00    +0.000 C 
ATOM     13  C   UNL     1      -2.624  13.663  21.100  0.00  0.00    +0.000 C 
ATOM     14  C   UNL     1      -3.418  12.749  20.192  0.00  0.00    +0.000 C 
ATOM     15  O   UNL     1      -2.491  12.118  19.297  0.00  0.00    +0.000 OA
ENDBRANCH   6  11
BRANCH   1  18
ATOM     16  O   UNL     1       2.458   4.724  19.566  0.00  0.00    +0.000 OA
ATOM     17  C   UNL     1       2.796   5.185  18.485  0.00  0.00    +0.000 C 
ATOM     18  N   UNL     1       2.706   6.504  18.087  0.00  0.00    +0.000 N 
ATOM     19  H   UNL     1       2.873   6.713  17.112  0.00  0.00    +0.000 HD
BRANCH  17  20
ATOM     20  C   UNL     1       3.268   4.255  17.410  0.00  0.00    +0.000 C 
ATOM     21  C   UNL     1       4.110   3.069  17.826  0.00  0.00    +0.000 C 
ATOM     22  C   UNL     1       4.724   4.163  16.985  0.00  0.00    +0.000 C 
BRANCH  22  23
ATOM     23  C   UNL     1       5.768   5.141  17.506  0.00  0.00    +0.000 A 
ATOM     24  C   UNL     1       6.566   4.833  18.625  0.00  0.00    +0.000 A 
ATOM     25  C   UNL     1       7.596   5.674  19.057  0.00  0.00    +0.000 A 
ATOM     26  C   UNL     1       7.870   6.852  18.373  0.00  0.00    +0.000 A 
ATOM     27  C   UNL     1       7.090   7.203  17.276  0.00  0.00    +0.000 A 
ATOM     28  C   UNL     1       6.047   6.363  16.857  0.00  0.00    +0.000 A 
ATOM     29 CL   UNL     1       5.116   6.874  15.489  0.00  0.00    +0.000 Cl
ENDBRANCH  22  23
ENDBRANCH  17  20
ENDBRANCH   1  18
TORSDOF 4
ENDMDL
MODEL 2
REMARK VINA RESULT:      -8.3      1.021      1.279
REMARK  Name = 
REMARK  4 active torsions:
REMARK  status: ('A' for Active; 'I' for Inactive)
REMARK    1  A    between atoms: C_2  and  C_18
REMARK    2  A    between atoms: N_3  and  C_4
REMARK    3  A    between atoms: C_9  and  C_10
REMARK    4  A    between atoms: C_20  and  C_21
REMARK                            x       y       z     vdW  Elec       q    Type
REMARK                         _______ _______ _______ _____ _____    ______ ____
ROOT
ATOM      1  C   UNL     1       2.118   7.685  18.990  0.00  0.00    +0.000 A 
ATOM      2  C   UNL     1       1.843   7.567  20.359  0.00  0.00    +0.000 A 
ATOM      3  C   UNL     1       1.195   8.577  21.075  0.00  0.00    +0.000 A 
ATOM      4  C   UNL     1       0.834   9.709  20.354  0.00  0.00    +0.000 A 
ATOM      5  N   UNL     1       0.125  10.822  20.698  0.00  0.00    +0.000 N 
ATOM      6  C   UNL     1       0.052  11.647  19.604  0.00  0.00    +0.000 A 
ATOM      7  N   UNL     1       0.677  11.114  18.575  0.00  0.00    +0.000 NA
ATOM      8  C   UNL     1       1.151   9.898  19.015  0.00  0.00    +0.000 A 
ATOM      9  C   UNL     1       1.832   8.885  18.318  0.00  0.00    +0.000 A 
ATOM     10  H   UNL     1      -0.322  11.010  21.585  0.00  0.00    +0.000 HD
ENDROOT
BRANCH   6  11
ATOM     11  C   UNL     1      -0.685  12.941  19.664  0.00  0.00    +0.000 C 
ATOM     12  C   UNL     1      -0.188  13.956  18.654  0.00  0.00    +0.000 C 
ATOM     13  C   UNL     1      -0.508  15.262  19.335  0.00  0.00    +0.000 C 
ATOM     14  C   UNL     1      -0.266  14.942  20.794  0.00  0.00    +0.000 C 
ATOM     15  O   UNL     1      -0.472  13.532  20.967  0.00  0.00    +0.000 OA
ENDBRANCH   6  11
BRANCH   1  18
ATOM     16  O   UNL     1       2.530   4.915  19.826  0.00  0.00    +0.000 OA
ATOM     17  C   UNL     1       2.781   5.316  18.698  0.00  0.00    +0.000 C 
ATOM     18  N   UNL     1       2.639   6.609  18.233  0.00  0.00    +0.000 N 
ATOM     19  H   UNL     1       2.733   6.763  17.238  0.00  0.00    +0.000 HD
BRANCH  17  20
ATOM     20  C   UNL     1       3.194   4.333  17.648  0.00  0.00    +0.000 C 
ATOM     21  C   UNL     1       4.021   3.144  18.083  0.00  0.00    +0.000 C 
ATOM     22  C   UNL     1       4.631   4.187  17.178  0.00  0.00    +0.000 C 
BRANCH  22  23
ATOM     23  C   UNL     1       5.716   5.158  17.623  0.00  0.00    +0.000 A 
ATOM     24  C   UNL     1       6.520   4.894  18.748  0.00  0.00    +0.000 A 
ATOM     25  C   UNL     1       7.585   5.724  19.113  0.00  0.00    +0.000 A 
ATOM     26  C   UNL     1       7.888   6.847  18.353  0.00  0.00    +0.000 A 
ATOM     27  C   UNL     1       7.103   7.156  17.246  0.00  0.00    +0.000 A 
ATOM     28  C   UNL     1       6.026   6.328  16.895  0.00  0.00    +0.000 A 
ATOM     29 CL   UNL     1       5.092   6.784  15.510  0.00  0.00    +0.000 Cl
ENDBRANCH  22  23
ENDBRANCH  17  20
ENDBRANCH   1  18
TORSDOF 4
ENDMDL
MODEL 3
REMARK VINA RESULT:      -8.2      1.473      1.989
REMARK  Name = 
REMARK  4 active torsions:
REMARK  status: ('A' for Active; 'I' for Inactive)
REMARK    1  A    between atoms: C_2  and  C_18
REMARK    2  A    between atoms: N_3  and  C_4
REMARK    3  A    between atoms: C_9  and  C_10
REMARK    4  A    between atoms: C_20  and  C_21
REMARK                            x       y       z     vdW  Elec       q    Type
REMARK                         _______ _______ _______ _____ _____    ______ ____
ROOT
ATOM      1  C   UNL     1       2.342   6.635  19.358  0.00  0.00    +0.000 A 
ATOM      2  C   UNL     1       2.534   7.515  18.284  0.00  0.00    +0.000 A 
ATOM      3  C   UNL     1       2.072   8.833  18.314  0.00  0.00    +0.000 A 
ATOM      4  C   UNL     1       1.411   9.228  19.471  0.00  0.00    +0.000 A 
ATOM      5  N   UNL     1       0.919  10.435  19.875  0.00  0.00    +0.000 N 
ATOM      6  C   UNL     1       0.352  10.281  21.115  0.00  0.00    +0.000 A 
ATOM      7  N   UNL     1       0.460   9.035  21.526  0.00  0.00    +0.000 NA
ATOM      8  C   UNL     1       1.135   8.370  20.527  0.00  0.00    +0.000 A 
ATOM      9  C   UNL     1       1.579   7.037  20.466  0.00  0.00    +0.000 A 
ATOM     10  H   UNL     1       0.991  11.316  19.385  0.00  0.00    +0.000 HD
ENDROOT
BRANCH   6  11
ATOM     11  C   UNL     1      -0.254  11.438  21.832  0.00  0.00    +0.000 C 
ATOM     12  C   UNL     1      -1.129  11.023  22.999  0.00  0.00    +0.000 C 
ATOM     13  C   UNL     1      -2.117  12.160  23.072  0.00  0.00    +0.000 C 
ATOM     14  C   UNL     1      -2.313  12.523  21.616  0.00  0.00    +0.000 C 
ATOM     15  O   UNL     1      -1.118  12.148  20.914  0.00  0.00    +0.000 OA
ENDBRANCH   6  11
BRANCH   1  18
ATOM     16  O   UNL     1       1.934   4.402  17.516  0.00  0.00    +0.000 OA
ATOM     17  C   UNL     1       2.705   4.353  18.465  0.00  0.00    +0.000 C 
ATOM     18  N   UNL     1       2.936   5.351  19.391  0.00  0.00    +0.000 N 
ATOM     19  H   UNL     1       3.714   5.231  20.026  0.00  0.00    +0.000 HD
BRANCH  17  20
ATOM     20  C   UNL     1       3.584   3.153  18.630  0.00  0.00    +0.000 C 
ATOM     21  C   UNL     1       4.422   3.061  19.886  0.00  0.00    +0.000 C 
ATOM     22  C   UNL     1       5.099   3.226  18.546  0.00  0.00    +0.000 C 
BRANCH  22  23
ATOM     23  C   UNL     1       5.812   4.500  18.114  0.00  0.00    +0.000 A 
ATOM     24  C   UNL     1       6.532   5.284  19.034  0.00  0.00    +0.000 A 
ATOM     25  C   UNL     1       7.275   6.402  18.638  0.00  0.00    +0.000 A 
ATOM     26  C   UNL     1       7.327   6.766  17.298  0.00  0.00    +0.000 A 
ATOM     27  C   UNL     1       6.611   6.030  16.360  0.00  0.00    +0.000 A 
ATOM     28  C   UNL     1       5.855   4.920  16.766  0.00  0.00    +0.000 A 
ATOM     29 CL   UNL     1       4.983   4.060  15.541  0.00  0.00    +0.000 Cl
ENDBRANCH  22  23
ENDBRANCH  17  20
ENDBRANCH   1  18
TORSDOF 4
ENDMDL
MODEL 4
REMARK VINA RESULT:      -8.2      4.546      7.594
REMARK  Name = 
REMARK  4 active torsions:
REMARK  status: ('A' for Active; 'I' for Inactive)
REMARK    1  A    between atoms: C_2  and  C_18
REMARK    2  A    between atoms: N_3  and  C_4
REMARK    3  A    between atoms: C_9  and  C_10
REMARK    4  A    between atoms: C_20  and  C_21
REMARK                            x       y       z     vdW  Elec       q    Type
REMARK                         _______ _______ _______ _____ _____    ______ ____
ROOT
ATOM      1  C   UNL     1       6.406   5.747  17.932  0.00  0.00    +0.000 A 
ATOM      2  C   UNL     1       7.413   5.376  18.833  0.00  0.00    +0.000 A 
ATOM      3  C   UNL     1       8.400   6.272  19.252  0.00  0.00    +0.000 A 
ATOM      4  C   UNL     1       8.330   7.556  18.725  0.00  0.00    +0.000 A 
ATOM      5  N   UNL     1       9.054   8.685  18.974  0.00  0.00    +0.000 N 
ATOM      6  C   UNL     1       8.575   9.694  18.176  0.00  0.00    +0.000 A 
ATOM      7  N   UNL     1       7.576   9.266  17.432  0.00  0.00    +0.000 NA
ATOM      8  C   UNL     1       7.395   7.945  17.775  0.00  0.00    +0.000 A 
ATOM      9  C   UNL     1       6.428   7.021  17.341  0.00  0.00    +0.000 A 
ATOM     10  H   UNL     1       9.790   8.799  19.658  0.00  0.00    +0.000 HD
ENDROOT
BRANCH   6  11
ATOM     11  C   UNL     1       9.154  11.065  18.239  0.00  0.00    +0.000 C 
ATOM     12  C   UNL     1      10.577  11.135  17.721  0.00  0.00    +0.000 C 
ATOM     13  C   UNL     1      11.141  12.295  18.502  0.00  0.00    +0.000 C 
ATOM     14  C   UNL     1      10.458  12.153  19.845  0.00  0.00    +0.000 C 
ATOM     15  O   UNL     1       9.210  11.479  19.625  0.00  0.00    +0.000 OA
ENDBRANCH   6  11
BRANCH   1  18
ATOM     16  O   UNL     1       5.452   3.421  19.423  0.00  0.00    +0.000 OA
ATOM     17  C   UNL     1       4.921   3.820  18.395  0.00  0.00    +0.000 C 
ATOM     18  N   UNL     1       5.323   4.891  17.622  0.00  0.00    +0.000 N 
ATOM     19  H   UNL     1       4.698   5.202  16.890  0.00  0.00    +0.000 HD
BRANCH  17  20
ATOM     20  C   UNL     1       3.646   3.182  17.937  0.00  0.00    +0.000 C 
ATOM     21  C   UNL     1       2.946   3.787  16.740  0.00  0.00    +0.000 C 
ATOM     22  C   UNL     1       2.290   3.846  18.099  0.00  0.00    +0.000 C 
BRANCH  22  23
ATOM     23  C   UNL     1       2.123   5.131  18.899  0.00  0.00    +0.000 A 
ATOM     24  C   UNL     1       2.342   6.392  18.313  0.00  0.00    +0.000 A 
ATOM     25  C   UNL     1       2.099   7.585  19.003  0.00  0.00    +0.000 A 
ATOM     26  C   UNL     1       1.616   7.553  20.305  0.00  0.00    +0.000 A 
ATOM     27  C   UNL     1       1.408   6.326  20.927  0.00  0.00    +0.000 A 
ATOM     28  C   UNL     1       1.669   5.134  20.236  0.00  0.00    +0.000 A 
ATOM     29 CL   UNL     1       1.394   3.647  21.082  0.00  0.00    +0.000 Cl
ENDBRANCH  22  23
ENDBRANCH  17  20
ENDBRANCH   1  18
TORSDOF 4
ENDMDL
MODEL 5
REMARK VINA RESULT:      -8.2      2.865      9.187
REMARK  Name = 
REMARK  4 active torsions:
REMARK  status: ('A' for Active; 'I' for Inactive)
REMARK    1  A    between atoms: C_2  and  C_18
REMARK    2  A    between atoms: N_3  and  C_4
REMARK    3  A    between atoms: C_9  and  C_10
REMARK    4  A    between atoms: C_20  and  C_21
REMARK                            x       y       z     vdW  Elec       q    Type
REMARK                         _______ _______ _______ _____ _____    ______ ____
ROOT
ATOM      1  C   UNL     1       1.147   9.454  18.851  0.00  0.00    +0.000 A 
ATOM      2  C   UNL     1       0.971   8.889  20.121  0.00  0.00    +0.000 A 
ATOM      3  C   UNL     1       1.652   7.737  20.522  0.00  0.00    +0.000 A 
ATOM      4  C   UNL     1       2.519   7.179  19.589  0.00  0.00    +0.000 A 
ATOM      5  N   UNL     1       3.392   6.134  19.666  0.00  0.00    +0.000 N 
ATOM      6  C   UNL     1       4.013   5.995  18.450  0.00  0.00    +0.000 A 
ATOM      7  N   UNL     1       3.581   6.903  17.599  0.00  0.00    +0.000 NA
ATOM      8  C   UNL     1       2.668   7.662  18.296  0.00  0.00    +0.000 A 
ATOM      9  C   UNL     1       1.950   8.804  17.899  0.00  0.00    +0.000 A 
ATOM     10  H   UNL     1       3.601   5.573  20.481  0.00  0.00    +0.000 HD
ENDROOT
BRANCH   6  11
ATOM     11  C   UNL     1       5.045   4.944  18.229  0.00  0.00    +0.000 C 
ATOM     12  C   UNL     1       6.448   5.405  18.572  0.00  0.00    +0.000 C 
ATOM     13  C   UNL     1       7.293   4.558  17.656  0.00  0.00    +0.000 C 
ATOM     14  C   UNL     1       6.435   4.457  16.414  0.00  0.00    +0.000 C 
ATOM     15  O   UNL     1       5.067   4.607  16.822  0.00  0.00    +0.000 OA
ENDBRANCH   6  11
BRANCH   1  18
ATOM     16  O   UNL     1      -1.667  10.083  18.371  0.00  0.00    +0.000 OA
ATOM     17  C   UNL     1      -0.776  10.919  18.309  0.00  0.00    +0.000 C 
ATOM     18  N   UNL     1       0.574  10.699  18.497  0.00  0.00    +0.000 N 
ATOM     19  H   UNL     1       1.176  11.509  18.573  0.00  0.00    +0.000 HD
BRANCH  17  20
ATOM     20  C   UNL     1      -1.137  12.358  18.109  0.00  0.00    +0.000 C 
ATOM     21  C   UNL     1      -0.183  13.404  18.640  0.00  0.00    +0.000 C 
ATOM     22  C   UNL     1      -1.557  13.266  19.252  0.00  0.00    +0.000 C 
BRANCH  22  23
ATOM     23  C   UNL     1      -1.805  12.722  20.651  0.00  0.00    +0.000 A 
ATOM     24  C   UNL     1      -0.751  12.230  21.444  0.00  0.00    +0.000 A 
ATOM     25  C   UNL     1      -0.944  11.818  22.767  0.00  0.00    +0.000 A 
ATOM     26  C   UNL     1      -2.205  11.895  23.345  0.00  0.00    +0.000 A 
ATOM     27  C   UNL     1      -3.278  12.354  22.588  0.00  0.00    +0.000 A 
ATOM     28  C   UNL     1      -3.080  12.751  21.257  0.00  0.00    +0.000 A 
ATOM     29 CL   UNL     1      -4.467  13.301  20.377  0.00  0.00    +0.000 Cl
ENDBRANCH  22  23
ENDBRANCH  17  20
ENDBRANCH   1  18
TORSDOF 4
ENDMDL
MODEL 6
REMARK VINA RESULT:      -8.2      2.525      3.879
REMARK  Name = 
REMARK  4 active torsions:
REMARK  status: ('A' for Active; 'I' for Inactive)
REMARK    1  A    between atoms: C_2  and  C_18
REMARK    2  A    between atoms: N_3  and  C_4
REMARK    3  A    between atoms: C_9  and  C_10
REMARK    4  A    between atoms: C_20  and  C_21
REMARK                            x       y       z     vdW  Elec       q    Type
REMARK                         _______ _______ _______ _____ _____    ______ ____
ROOT
ATOM      1  C   UNL     1       2.470   7.089  18.607  0.00  0.00    +0.000 A 
ATOM      2  C   UNL     1       2.073   7.105  19.950  0.00  0.00    +0.000 A 
ATOM      3  C   UNL     1       1.533   8.246  20.550  0.00  0.00    +0.000 A 
ATOM      4  C   UNL     1       1.409   9.368  19.739  0.00  0.00    +0.000 A 
ATOM      5  N   UNL     1       0.854  10.595  19.958  0.00  0.00    +0.000 N 
ATOM      6  C   UNL     1       0.996  11.346  18.818  0.00  0.00    +0.000 A 
ATOM      7  N   UNL     1       1.611  10.657  17.879  0.00  0.00    +0.000 NA
ATOM      8  C   UNL     1       1.856   9.418  18.426  0.00  0.00    +0.000 A 
ATOM      9  C   UNL     1       2.427   8.270  17.848  0.00  0.00    +0.000 A 
ATOM     10  H   UNL     1       0.372  10.906  20.791  0.00  0.00    +0.000 HD
ENDROOT
BRANCH   6  11
ATOM     11  C   UNL     1       0.464  12.736  18.742  0.00  0.00    +0.000 C 
ATOM     12  C   UNL     1       1.554  13.787  18.675  0.00  0.00    +0.000 C 
ATOM     13  C   UNL     1       0.882  14.980  19.307  0.00  0.00    +0.000 C 
ATOM     14  C   UNL     1       0.021  14.345  20.377  0.00  0.00    +0.000 C 
ATOM     15  O   UNL     1      -0.285  13.009  19.950  0.00  0.00    +0.000 OA
ENDBRANCH   6  11
BRANCH   1  18
ATOM     16  O   UNL     1       5.127   5.871  18.557  0.00  0.00    +0.000 OA
ATOM     17  C   UNL     1       4.155   5.376  18.003  0.00  0.00    +0.000 C 
ATOM     18  N   UNL     1       2.878   5.898  17.959  0.00  0.00    +0.000 N 
ATOM     19  H   UNL     1       2.140   5.305  17.602  0.00  0.00    +0.000 HD
BRANCH  17  20
ATOM     20  C   UNL     1       4.282   4.022  17.378  0.00  0.00    +0.000 C 
ATOM     21  C   UNL     1       3.080   3.470  16.644  0.00  0.00    +0.000 C 
ATOM     22  C   UNL     1       3.556   2.799  17.911  0.00  0.00    +0.000 C 
BRANCH  22  23
ATOM     23  C   UNL     1       2.788   2.840  19.225  0.00  0.00    +0.000 A 
ATOM     24  C   UNL     1       1.433   3.220  19.270  0.00  0.00    +0.000 A 
ATOM     25  C   UNL     1       0.685   3.169  20.451  0.00  0.00    +0.000 A 
ATOM     26  C   UNL     1       1.270   2.722  21.629  0.00  0.00    +0.000 A 
ATOM     27  C   UNL     1       2.612   2.358  21.632  0.00  0.00    +0.000 A 
ATOM     28  C   UNL     1       3.361   2.427  20.447  0.00  0.00    +0.000 A 
ATOM     29 CL   UNL     1       5.029   1.966  20.533  0.00  0.00    +0.000 Cl
ENDBRANCH  22  23
ENDBRANCH  17  20
ENDBRANCH   1  18
TORSDOF 4
ENDMDL
MODEL 7
REMARK VINA RESULT:      -8.1      2.380      3.812
REMARK  Name = 
REMARK  4 active torsions:
REMARK  status: ('A' for Active; 'I' for Inactive)
REMARK    1  A    between atoms: C_2  and  C_18
REMARK    2  A    between atoms: N_3  and  C_4
REMARK    3  A    between atoms: C_9  and  C_10
REMARK    4  A    between atoms: C_20  and  C_21
REMARK                            x       y       z     vdW  Elec       q    Type
REMARK                         _______ _______ _______ _____ _____    ______ ____
ROOT
ATOM      1  C   UNL     1       2.624   7.230  18.293  0.00  0.00    +0.000 A 
ATOM      2  C   UNL     1       2.432   8.347  17.469  0.00  0.00    +0.000 A 
ATOM      3  C   UNL     1       1.841   9.523  17.939  0.00  0.00    +0.000 A 
ATOM      4  C   UNL     1       1.453   9.526  19.274  0.00  0.00    +0.000 A 
ATOM      5  N   UNL     1       0.942  10.507  20.073  0.00  0.00    +0.000 N 
ATOM      6  C   UNL     1       0.730   9.982  21.323  0.00  0.00    +0.000 A 
ATOM      7  N   UNL     1       1.085   8.715  21.364  0.00  0.00    +0.000 NA
ATOM      8  C   UNL     1       1.558   8.419  20.105  0.00  0.00    +0.000 A 
ATOM      9  C   UNL     1       2.125   7.234  19.606  0.00  0.00    +0.000 A 
ATOM     10  H   UNL     1       0.783  11.474  19.825  0.00  0.00    +0.000 HD
ENDROOT
BRANCH   6  11
ATOM     11  C   UNL     1       0.194  10.824  22.430  0.00  0.00    +0.000 C 
ATOM     12  C   UNL     1      -1.252  10.518  22.764  0.00  0.00    +0.000 C 
ATOM     13  C   UNL     1      -1.740  11.841  23.298  0.00  0.00    +0.000 C 
ATOM     14  C   UNL     1      -0.988  12.840  22.445  0.00  0.00    +0.000 C 
ATOM     15  O   UNL     1       0.226  12.209  22.012  0.00  0.00    +0.000 OA
ENDBRANCH   6  11
BRANCH   1  18
ATOM     16  O   UNL     1       5.067   6.107  19.438  0.00  0.00    +0.000 OA
ATOM     17  C   UNL     1       4.492   5.615  18.476  0.00  0.00    +0.000 C 
ATOM     18  N   UNL     1       3.353   6.096  17.863  0.00  0.00    +0.000 N 
ATOM     19  H   UNL     1       2.899   5.501  17.182  0.00  0.00    +0.000 HD
BRANCH  17  20
ATOM     20  C   UNL     1       4.972   4.306  17.930  0.00  0.00    +0.000 C 
ATOM     21  C   UNL     1       4.106   3.612  16.903  0.00  0.00    +0.000 C 
ATOM     22  C   UNL     1       4.305   2.983  18.262  0.00  0.00    +0.000 C 
BRANCH  22  23
ATOM     23  C   UNL     1       3.209   2.886  19.314  0.00  0.00    +0.000 A 
ATOM     24  C   UNL     1       3.504   2.561  20.652  0.00  0.00    +0.000 A 
ATOM     25  C   UNL     1       2.525   2.564  21.652  0.00  0.00    +0.000 A 
ATOM     26  C   UNL     1       1.214   2.905  21.344  0.00  0.00    +0.000 A 
ATOM     27  C   UNL     1       0.877   3.211  20.030  0.00  0.00    +0.000 A 
ATOM     28  C   UNL     1       1.860   3.190  19.029  0.00  0.00    +0.000 A 
ATOM     29 CL   UNL     1       1.360   3.573  17.415  0.00  0.00    +0.000 Cl
ENDBRANCH  22  23
ENDBRANCH  17  20
ENDBRANCH   1  18
TORSDOF 4
ENDMDL
MODEL 8
REMARK VINA RESULT:      -8.1      2.587      4.047
REMARK  Name = 
REMARK  4 active torsions:
REMARK  status: ('A' for Active; 'I' for Inactive)
REMARK    1  A    between atoms: C_2  and  C_18
REMARK    2  A    between atoms: N_3  and  C_4
REMARK    3  A    between atoms: C_9  and  C_10
REMARK    4  A    between atoms: C_20  and  C_21
REMARK                            x       y       z     vdW  Elec       q    Type
REMARK                         _______ _______ _______ _____ _____    ______ ____
ROOT
ATOM      1  C   UNL     1       2.508   7.263  18.205  0.00  0.00    +0.000 A 
ATOM      2  C   UNL     1       2.434   8.422  17.421  0.00  0.00    +0.000 A 
ATOM      3  C   UNL     1       1.920   9.623  17.918  0.00  0.00    +0.000 A 
ATOM      4  C   UNL     1       1.486   9.607  19.238  0.00  0.00    +0.000 A 
ATOM      5  N   UNL     1       1.024  10.594  20.059  0.00  0.00    +0.000 N 
ATOM      6  C   UNL     1       0.726  10.042  21.279  0.00  0.00    +0.000 A 
ATOM      7  N   UNL     1       0.979   8.749  21.281  0.00  0.00    +0.000 NA
ATOM      8  C   UNL     1       1.473   8.464  20.028  0.00  0.00    +0.000 A 
ATOM      9  C   UNL     1       1.963   7.257  19.501  0.00  0.00    +0.000 A 
ATOM     10  H   UNL     1       0.950  11.579  19.844  0.00  0.00    +0.000 HD
ENDROOT
BRANCH   6  11
ATOM     11  C   UNL     1       0.218  10.882  22.400  0.00  0.00    +0.000 C 
ATOM     12  C   UNL     1      -1.212  10.558  22.786  0.00  0.00    +0.000 C 
ATOM     13  C   UNL     1      -1.698  11.877  23.331  0.00  0.00    +0.000 C 
ATOM     14  C   UNL     1      -0.990  12.881  22.448  0.00  0.00    +0.000 C 
ATOM     15  O   UNL     1       0.216  12.265  21.975  0.00  0.00    +0.000 OA
ENDBRANCH   6  11
BRANCH   1  18
ATOM     16  O   UNL     1       5.062   6.157  19.097  0.00  0.00    +0.000 OA
ATOM     17  C   UNL     1       4.363   5.623  18.247  0.00  0.00    +0.000 C 
ATOM     18  N   UNL     1       3.161   6.092  17.755  0.00  0.00    +0.000 N 
ATOM     19  H   UNL     1       2.617   5.469  17.172  0.00  0.00    +0.000 HD
BRANCH  17  20
ATOM     20  C   UNL     1       4.752   4.275  17.723  0.00  0.00    +0.000 C 
ATOM     21  C   UNL     1       3.772   3.561  16.819  0.00  0.00    +0.000 C 
ATOM     22  C   UNL     1       4.084   2.991  18.182  0.00  0.00    +0.000 C 
BRANCH  22  23
ATOM     23  C   UNL     1       3.092   2.978  19.337  0.00  0.00    +0.000 A 
ATOM     24  C   UNL     1       1.775   3.449  19.177  0.00  0.00    +0.000 A 
ATOM     25  C   UNL     1       0.822   3.354  20.197  0.00  0.00    +0.000 A 
ATOM     26  C   UNL     1       1.157   2.772  21.413  0.00  0.00    +0.000 A 
ATOM     27  C   UNL     1       2.454   2.315  21.619  0.00  0.00    +0.000 A 
ATOM     28  C   UNL     1       3.410   2.428  20.598  0.00  0.00    +0.000 A 
ATOM     29 CL   UNL     1       5.006   1.845  20.934  0.00  0.00    +0.000 Cl
ENDBRANCH  22  23
ENDBRANCH  17  20
ENDBRANCH   1  18
TORSDOF 4
ENDMDL
MODEL 9
REMARK VINA RESULT:      -8.0      3.048      9.256
REMARK  Name = 
REMARK  4 active torsions:
REMARK  status: ('A' for Active; 'I' for Inactive)
REMARK    1  A    between atoms: C_2  and  C_18
REMARK    2  A    between atoms: N_3  and  C_4
REMARK    3  A    between atoms: C_9  and  C_10
REMARK    4  A    between atoms: C_20  and  C_21
REMARK                            x       y       z     vdW  Elec       q    Type
REMARK                         _______ _______ _______ _____ _____    ______ ____
ROOT
ATOM      1  C   UNL     1       1.024   9.751  19.417  0.00  0.00    +0.000 A 
ATOM      2  C   UNL     1       0.866   9.226  20.706  0.00  0.00    +0.000 A 
ATOM      3  C   UNL     1       1.358   7.966  21.059  0.00  0.00    +0.000 A 
ATOM      4  C   UNL     1       2.016   7.259  20.059  0.00  0.00    +0.000 A 
ATOM      5  N   UNL     1       2.685   6.071  20.071  0.00  0.00    +0.000 N 
ATOM      6  C   UNL     1       3.154   5.822  18.805  0.00  0.00    +0.000 A 
ATOM      7  N   UNL     1       2.820   6.797  17.984  0.00  0.00    +0.000 NA
ATOM      8  C   UNL     1       2.131   7.710  18.750  0.00  0.00    +0.000 A 
ATOM      9  C   UNL     1       1.602   8.966  18.405  0.00  0.00    +0.000 A 
ATOM     10  H   UNL     1       2.862   5.479  20.871  0.00  0.00    +0.000 HD
ENDROOT
BRANCH   6  11
ATOM     11  C   UNL     1       3.950   4.599  18.506  0.00  0.00    +0.000 C 
ATOM     12  C   UNL     1       3.328   3.732  17.429  0.00  0.00    +0.000 C 
ATOM     13  C   UNL     1       3.828   2.359  17.801  0.00  0.00    +0.000 C 
ATOM     14  C   UNL     1       3.838   2.409  19.314  0.00  0.00    +0.000 C 
ATOM     15  O   UNL     1       4.005   3.782  19.699  0.00  0.00    +0.000 OA
ENDBRANCH   6  11
BRANCH   1  18
ATOM     16  O   UNL     1      -1.509  10.725  18.331  0.00  0.00    +0.000 OA
ATOM     17  C   UNL     1      -0.573  11.463  18.607  0.00  0.00    +0.000 C 
ATOM     18  N   UNL     1       0.660  11.081  19.098  0.00  0.00    +0.000 N 
ATOM     19  H   UNL     1       1.280  11.809  19.430  0.00  0.00    +0.000 HD
BRANCH  17  20
ATOM     20  C   UNL     1      -0.759  12.946  18.515  0.00  0.00    +0.000 C 
ATOM     21  C   UNL     1       0.187  13.825  19.301  0.00  0.00    +0.000 C 
ATOM     22  C   UNL     1      -1.276  13.782  19.673  0.00  0.00    +0.000 C 
BRANCH  22  23
ATOM     23  C   UNL     1      -1.804  13.138  20.947  0.00  0.00    +0.000 A 
ATOM     24  C   UNL     1      -0.931  12.686  21.955  0.00  0.00    +0.000 A 
ATOM     25  C   UNL     1      -1.399  12.183  23.173  0.00  0.00    +0.000 A 
ATOM     26  C   UNL     1      -2.764  12.125  23.427  0.00  0.00    +0.000 A 
ATOM     27  C   UNL     1      -3.660  12.540  22.448  0.00  0.00    +0.000 A 
ATOM     28  C   UNL     1      -3.184  13.029  21.222  0.00  0.00    +0.000 A 
ATOM     29 CL   UNL     1      -4.362  13.518  20.050  0.00  0.00    +0.000 Cl
ENDBRANCH  22  23
ENDBRANCH  17  20
ENDBRANCH   1  18
TORSDOF 4
ENDMDL
