MODEL 1
REMARK VINA RESULT:      -9.5      0.000      0.000
REMARK  Name = 
REMARK  2 active torsions:
REMARK  status: ('A' for Active; 'I' for Inactive)
REMARK    1  A    between atoms: N_3  and  C_4
REMARK    2  A    between atoms: C_4  and  C_5
REMARK                            x       y       z     vdW  Elec       q    Type
REMARK                         _______ _______ _______ _____ _____    ______ ____
ROOT
ATOM      1  O   UNL     1       7.576   5.380  17.053  0.00  0.00    +0.000 OA
ATOM      2  C   UNL     1       6.721   6.274  17.083  0.00  0.00    +0.000 C 
ATOM      3  N   UNL     1       7.003   7.481  17.665  0.00  0.00    +0.000 N 
ATOM      4  N   UNL     1       5.437   6.106  16.535  0.00  0.00    +0.000 N 
ATOM      5  C   UNL     1       5.167   4.728  16.133  0.00  0.00    +0.000 C 
ATOM      6  C   UNL     1       4.722   4.140  17.462  0.00  0.00    +0.000 C 
ATOM      7  C   UNL     1       3.709   3.021  17.452  0.00  0.00    +0.000 C 
ATOM      8  N   UNL     1       3.028   3.383  18.677  0.00  0.00    +0.000 NA
ATOM      9  C   UNL     1       2.073   2.465  19.238  0.00  0.00    +0.000 C 
ATOM     10  C   UNL     1       1.740   2.982  20.638  0.00  0.00    +0.000 C 
ATOM     11  C   UNL     1       1.121   4.377  20.525  0.00  0.00    +0.000 C 
ATOM     12  C   UNL     1       2.165   5.330  19.942  0.00  0.00    +0.000 C 
ATOM     13  C   UNL     1       2.674   4.804  18.595  0.00  0.00    +0.000 C 
ATOM     14  C   UNL     1       4.052   5.334  18.217  0.00  0.00    +0.000 C 
ATOM     15  C   UNL     1       4.224   6.512  17.258  0.00  0.00    +0.000 C 
ATOM     16  H   UNL     1       6.227   8.067  17.955  0.00  0.00    +0.000 HD
ENDROOT
BRANCH   3  17
ATOM     17  C   UNL     1       8.263   7.634  18.366  0.00  0.00    +0.000 C 
BRANCH  17  18
ATOM     18  C   UNL     1       8.632   9.079  18.464  0.00  0.00    +0.000 A 
ATOM     19  C   UNL     1       8.342  10.150  17.637  0.00  0.00    +0.000 A 
ATOM     20  C   UNL     1       8.941  11.320  18.187  0.00  0.00    +0.000 A 
ATOM     21  C   UNL     1       9.021  12.672  17.777  0.00  0.00    +0.000 A 
ATOM     22  C   UNL     1       9.739  13.587  18.551  0.00  0.00    +0.000 A 
ATOM     23  C   UNL     1      10.362  13.184  19.729  0.00  0.00    +0.000 A 
ATOM     24  C   UNL     1      10.281  11.855  20.166  0.00  0.00    +0.000 A 
ATOM     25  C   UNL     1       9.565  10.942  19.373  0.00  0.00    +0.000 A 
ATOM     26  N   UNL     1       9.338   9.590  19.535  0.00  0.00    +0.000 N 
ATOM     27  H   UNL     1       9.671   9.047  20.318  0.00  0.00    +0.000 HD
ENDBRANCH  17  18
ENDBRANCH   3  17
TORSDOF 2
ENDMDL
MODEL 2
REMARK VINA RESULT:      -8.9      0.694      1.242
REMARK  Name = 
REMARK  2 active torsions:
REMARK  status: ('A' for Active; 'I' for Inactive)
REMARK    1  A    between atoms: N_3  and  C_4
REMARK    2  A    between atoms: C_4  and  C_5
REMARK                            x       y       z     vdW  Elec       q    Type
REMARK                         _______ _______ _______ _____ _____    ______ ____
ROOT
ATOM      1  O   UNL     1       7.473   5.800  16.768  0.00  0.00    +0.000 OA
ATOM      2  C   UNL     1       6.625   6.686  16.933  0.00  0.00    +0.000 C 
ATOM      3  N   UNL     1       6.950   7.839  17.596  0.00  0.00    +0.000 N 
ATOM      4  N   UNL     1       5.306   6.562  16.463  0.00  0.00    +0.000 N 
ATOM      5  C   UNL     1       5.005   5.223  15.963  0.00  0.00    +0.000 C 
ATOM      6  C   UNL     1       4.649   4.522  17.263  0.00  0.00    +0.000 C 
ATOM      7  C   UNL     1       3.634   3.404  17.227  0.00  0.00    +0.000 C 
ATOM      8  N   UNL     1       3.041   3.658  18.522  0.00  0.00    +0.000 NA
ATOM      9  C   UNL     1       2.123   2.693  19.066  0.00  0.00    +0.000 C 
ATOM     10  C   UNL     1       1.889   3.086  20.525  0.00  0.00    +0.000 C 
ATOM     11  C   UNL     1       1.268   4.484  20.576  0.00  0.00    +0.000 C 
ATOM     12  C   UNL     1       2.273   5.487  20.006  0.00  0.00    +0.000 C 
ATOM     13  C   UNL     1       2.686   5.080  18.587  0.00  0.00    +0.000 C 
ATOM     14  C   UNL     1       4.037   5.644  18.163  0.00  0.00    +0.000 C 
ATOM     15  C   UNL     1       4.147   6.901  17.300  0.00  0.00    +0.000 C 
ATOM     16  H   UNL     1       6.198   8.396  17.988  0.00  0.00    +0.000 HD
ENDROOT
BRANCH   3  17
ATOM     17  C   UNL     1       8.255   7.934  18.220  0.00  0.00    +0.000 C 
BRANCH  17  18
ATOM     18  C   UNL     1       8.620   9.365  18.450  0.00  0.00    +0.000 A 
ATOM     19  C   UNL     1       9.362   9.965  19.452  0.00  0.00    +0.000 A 
ATOM     20  C   UNL     1       9.406  11.367  19.204  0.00  0.00    +0.000 A 
ATOM     21  C   UNL     1       9.967  12.472  19.888  0.00  0.00    +0.000 A 
ATOM     22  C   UNL     1       9.790  13.761  19.379  0.00  0.00    +0.000 A 
ATOM     23  C   UNL     1       9.081  13.966  18.199  0.00  0.00    +0.000 A 
ATOM     24  C   UNL     1       8.531  12.886  17.494  0.00  0.00    +0.000 A 
ATOM     25  C   UNL     1       8.706  11.596  18.022  0.00  0.00    +0.000 A 
ATOM     26  N   UNL     1       8.269  10.368  17.568  0.00  0.00    +0.000 N 
ATOM     27  H   UNL     1       7.737  10.230  16.721  0.00  0.00    +0.000 HD
ENDBRANCH  17  18
ENDBRANCH   3  17
TORSDOF 2
ENDMDL
MODEL 3
REMARK VINA RESULT:      -7.6      9.949     12.179
REMARK  Name = 
REMARK  2 active torsions:
REMARK  status: ('A' for Active; 'I' for Inactive)
REMARK    1  A    between atoms: N_3  and  C_4
REMARK    2  A    between atoms: C_4  and  C_5
REMARK                            x       y       z     vdW  Elec       q    Type
REMARK                         _______ _______ _______ _____ _____    ______ ____
ROOT
ATOM      1  O   UNL     1      -4.267   9.967  17.863  0.00  0.00    +0.000 OA
ATOM      2  C   UNL     1      -4.513  11.167  17.685  0.00  0.00    +0.000 C 
ATOM      3  N   UNL     1      -3.509  12.037  17.354  0.00  0.00    +0.000 N 
ATOM      4  N   UNL     1      -5.810  11.695  17.814  0.00  0.00    +0.000 N 
ATOM      5  C   UNL     1      -6.760  10.737  18.372  0.00  0.00    +0.000 C 
ATOM      6  C   UNL     1      -6.494  10.924  19.856  0.00  0.00    +0.000 C 
ATOM      7  C   UNL     1      -7.634  10.721  20.825  0.00  0.00    +0.000 C 
ATOM      8  N   UNL     1      -7.237  11.730  21.784  0.00  0.00    +0.000 NA
ATOM      9  C   UNL     1      -7.917  11.788  23.051  0.00  0.00    +0.000 C 
ATOM     10  C   UNL     1      -7.111  12.741  23.935  0.00  0.00    +0.000 C 
ATOM     11  C   UNL     1      -7.090  14.129  23.289  0.00  0.00    +0.000 C 
ATOM     12  C   UNL     1      -6.348  14.035  21.954  0.00  0.00    +0.000 C 
ATOM     13  C   UNL     1      -7.001  12.980  21.054  0.00  0.00    +0.000 C 
ATOM     14  C   UNL     1      -6.060  12.420  19.994  0.00  0.00    +0.000 C 
ATOM     15  C   UNL     1      -6.073  12.936  18.555  0.00  0.00    +0.000 C 
ATOM     16  H   UNL     1      -3.659  13.027  17.517  0.00  0.00    +0.000 HD
ENDROOT
BRANCH   3  17
ATOM     17  C   UNL     1      -2.143  11.552  17.358  0.00  0.00    +0.000 C 
BRANCH  17  18
ATOM     18  C   UNL     1      -1.709  11.229  18.751  0.00  0.00    +0.000 A 
ATOM     19  C   UNL     1      -1.861  11.927  19.936  0.00  0.00    +0.000 A 
ATOM     20  C   UNL     1      -1.257  11.175  20.985  0.00  0.00    +0.000 A 
ATOM     21  C   UNL     1      -1.066  11.391  22.370  0.00  0.00    +0.000 A 
ATOM     22  C   UNL     1      -0.379  10.441  23.129  0.00  0.00    +0.000 A 
ATOM     23  C   UNL     1       0.106   9.277  22.538  0.00  0.00    +0.000 A 
ATOM     24  C   UNL     1      -0.087   9.032  21.171  0.00  0.00    +0.000 A 
ATOM     25  C   UNL     1      -0.770  10.000  20.417  0.00  0.00    +0.000 A 
ATOM     26  N   UNL     1      -1.083  10.041  19.073  0.00  0.00    +0.000 N 
ATOM     27  H   UNL     1      -0.856   9.312  18.413  0.00  0.00    +0.000 HD
ENDBRANCH  17  18
ENDBRANCH   3  17
TORSDOF 2
ENDMDL
MODEL 4
REMARK VINA RESULT:      -7.6     10.073     12.243
REMARK  Name = 
REMARK  2 active torsions:
REMARK  status: ('A' for Active; 'I' for Inactive)
REMARK    1  A    between atoms: N_3  and  C_4
REMARK    2  A    between atoms: C_4  and  C_5
REMARK                            x       y       z     vdW  Elec       q    Type
REMARK                         _______ _______ _______ _____ _____    ______ ____
ROOT
ATOM      1  O   UNL     1      -4.421   9.997  17.761  0.00  0.00    +0.000 OA
ATOM      2  C   UNL     1      -4.606  11.213  17.633  0.00  0.00    +0.000 C 
ATOM      3  N   UNL     1      -3.565  12.040  17.305  0.00  0.00    +0.000 N 
ATOM      4  N   UNL     1      -5.868  11.806  17.816  0.00  0.00    +0.000 N 
ATOM      5  C   UNL     1      -6.855  10.880  18.365  0.00  0.00    +0.000 C 
ATOM      6  C   UNL     1      -6.541  10.998  19.848  0.00  0.00    +0.000 C 
ATOM      7  C   UNL     1      -7.665  10.820  20.840  0.00  0.00    +0.000 C 
ATOM      8  N   UNL     1      -7.189  11.771  21.822  0.00  0.00    +0.000 NA
ATOM      9  C   UNL     1      -7.832  11.819  23.109  0.00  0.00    +0.000 C 
ATOM     10  C   UNL     1      -6.953  12.695  24.003  0.00  0.00    +0.000 C 
ATOM     11  C   UNL     1      -6.872  14.101  23.407  0.00  0.00    +0.000 C 
ATOM     12  C   UNL     1      -6.171  14.018  22.049  0.00  0.00    +0.000 C 
ATOM     13  C   UNL     1      -6.904  13.033  21.131  0.00  0.00    +0.000 C 
ATOM     14  C   UNL     1      -6.022  12.462  20.026  0.00  0.00    +0.000 C 
ATOM     15  C   UNL     1      -6.044  13.030  18.607  0.00  0.00    +0.000 C 
ATOM     16  H   UNL     1      -3.657  13.030  17.506  0.00  0.00    +0.000 HD
ENDROOT
BRANCH   3  17
ATOM     17  C   UNL     1      -2.228  11.483  17.254  0.00  0.00    +0.000 C 
BRANCH  17  18
ATOM     18  C   UNL     1      -1.741  11.171  18.632  0.00  0.00    +0.000 A 
ATOM     19  C   UNL     1      -0.906  10.169  19.096  0.00  0.00    +0.000 A 
ATOM     20  C   UNL     1      -0.763  10.318  20.506  0.00  0.00    +0.000 A 
ATOM     21  C   UNL     1      -0.085   9.588  21.510  0.00  0.00    +0.000 A 
ATOM     22  C   UNL     1      -0.182   9.993  22.844  0.00  0.00    +0.000 A 
ATOM     23  C   UNL     1      -0.927  11.117  23.191  0.00  0.00    +0.000 A 
ATOM     24  C   UNL     1      -1.594  11.867  22.211  0.00  0.00    +0.000 A 
ATOM     25  C   UNL     1      -1.497  11.443  20.875  0.00  0.00    +0.000 A 
ATOM     26  N   UNL     1      -2.052  11.959  19.722  0.00  0.00    +0.000 N 
ATOM     27  H   UNL     1      -2.632  12.785  19.689  0.00  0.00    +0.000 HD
ENDBRANCH  17  18
ENDBRANCH   3  17
TORSDOF 2
ENDMDL
MODEL 5
REMARK VINA RESULT:      -7.5     10.129     12.383
REMARK  Name = 
REMARK  2 active torsions:
REMARK  status: ('A' for Active; 'I' for Inactive)
REMARK    1  A    between atoms: N_3  and  C_4
REMARK    2  A    between atoms: C_4  and  C_5
REMARK                            x       y       z     vdW  Elec       q    Type
REMARK                         _______ _______ _______ _____ _____    ______ ____
ROOT
ATOM      1  O   UNL     1      -6.200  10.774  17.859  0.00  0.00    +0.000 OA
ATOM      2  C   UNL     1      -5.819  11.951  17.881  0.00  0.00    +0.000 C 
ATOM      3  N   UNL     1      -4.714  12.333  17.168  0.00  0.00    +0.000 N 
ATOM      4  N   UNL     1      -6.481  12.943  18.625  0.00  0.00    +0.000 N 
ATOM      5  C   UNL     1      -7.508  12.398  19.509  0.00  0.00    +0.000 C 
ATOM      6  C   UNL     1      -6.657  12.011  20.707  0.00  0.00    +0.000 C 
ATOM      7  C   UNL     1      -7.277  12.072  22.083  0.00  0.00    +0.000 C 
ATOM      8  N   UNL     1      -6.085  12.473  22.799  0.00  0.00    +0.000 NA
ATOM      9  C   UNL     1      -6.104  12.464  24.238  0.00  0.00    +0.000 C 
ATOM     10  C   UNL     1      -4.658  12.656  24.696  0.00  0.00    +0.000 C 
ATOM     11  C   UNL     1      -4.145  14.006  24.189  0.00  0.00    +0.000 C 
ATOM     12  C   UNL     1      -4.122  13.977  22.659  0.00  0.00    +0.000 C 
ATOM     13  C   UNL     1      -5.512  13.635  22.111  0.00  0.00    +0.000 C 
ATOM     14  C   UNL     1      -5.482  13.043  20.707  0.00  0.00    +0.000 C 
ATOM     15  C   UNL     1      -5.751  13.899  19.469  0.00  0.00    +0.000 C 
ATOM     16  H   UNL     1      -4.244  13.192  17.434  0.00  0.00    +0.000 HD
ENDROOT
BRANCH   3  17
ATOM     17  C   UNL     1      -3.926  11.309  16.510  0.00  0.00    +0.000 C 
BRANCH  17  18
ATOM     18  C   UNL     1      -2.748  10.937  17.352  0.00  0.00    +0.000 A 
ATOM     19  C   UNL     1      -2.496  11.129  18.699  0.00  0.00    +0.000 A 
ATOM     20  C   UNL     1      -1.214  10.586  19.001  0.00  0.00    +0.000 A 
ATOM     21  C   UNL     1      -0.421  10.523  20.170  0.00  0.00    +0.000 A 
ATOM     22  C   UNL     1       0.846   9.936  20.115  0.00  0.00    +0.000 A 
ATOM     23  C   UNL     1       1.327   9.399  18.924  0.00  0.00    +0.000 A 
ATOM     24  C   UNL     1       0.552   9.434  17.756  0.00  0.00    +0.000 A 
ATOM     25  C   UNL     1      -0.715  10.037  17.822  0.00  0.00    +0.000 A 
ATOM     26  N   UNL     1      -1.673  10.232  16.848  0.00  0.00    +0.000 N 
ATOM     27  H   UNL     1      -1.582   9.927  15.890  0.00  0.00    +0.000 HD
ENDBRANCH  17  18
ENDBRANCH   3  17
TORSDOF 2
ENDMDL
MODEL 6
REMARK VINA RESULT:      -7.5     10.315     12.340
REMARK  Name = 
REMARK  2 active torsions:
REMARK  status: ('A' for Active; 'I' for Inactive)
REMARK    1  A    between atoms: N_3  and  C_4
REMARK    2  A    between atoms: C_4  and  C_5
REMARK                            x       y       z     vdW  Elec       q    Type
REMARK                         _______ _______ _______ _____ _____    ______ ____
ROOT
ATOM      1  O   UNL     1      -6.204  10.702  17.886  0.00  0.00    +0.000 OA
ATOM      2  C   UNL     1      -5.905  11.902  17.868  0.00  0.00    +0.000 C 
ATOM      3  N   UNL     1      -4.857  12.342  17.103  0.00  0.00    +0.000 N 
ATOM      4  N   UNL     1      -6.604  12.864  18.618  0.00  0.00    +0.000 N 
ATOM      5  C   UNL     1      -7.555  12.271  19.555  0.00  0.00    +0.000 C 
ATOM      6  C   UNL     1      -6.633  11.971  20.725  0.00  0.00    +0.000 C 
ATOM      7  C   UNL     1      -7.201  12.021  22.122  0.00  0.00    +0.000 C 
ATOM      8  N   UNL     1      -6.012  12.519  22.781  0.00  0.00    +0.000 NA
ATOM      9  C   UNL     1      -5.974  12.542  24.220  0.00  0.00    +0.000 C 
ATOM     10  C   UNL     1      -4.528  12.844  24.614  0.00  0.00    +0.000 C 
ATOM     11  C   UNL     1      -4.130  14.213  24.059  0.00  0.00    +0.000 C 
ATOM     12  C   UNL     1      -4.165  14.151  22.530  0.00  0.00    +0.000 C 
ATOM     13  C   UNL     1      -5.549  13.702  22.047  0.00  0.00    +0.000 C 
ATOM     14  C   UNL     1      -5.533  13.080  20.655  0.00  0.00    +0.000 C 
ATOM     15  C   UNL     1      -5.909  13.886  19.412  0.00  0.00    +0.000 C 
ATOM     16  H   UNL     1      -4.438  13.237  17.332  0.00  0.00    +0.000 HD
ENDROOT
BRANCH   3  17
ATOM     17  C   UNL     1      -4.027  11.359  16.435  0.00  0.00    +0.000 C 
BRANCH  17  18
ATOM     18  C   UNL     1      -2.739  11.178  17.171  0.00  0.00    +0.000 A 
ATOM     19  C   UNL     1      -2.112  10.037  17.640  0.00  0.00    +0.000 A 
ATOM     20  C   UNL     1      -0.898  10.420  18.280  0.00  0.00    +0.000 A 
ATOM     21  C   UNL     1       0.118   9.716  18.967  0.00  0.00    +0.000 A 
ATOM     22  C   UNL     1       1.189  10.418  19.526  0.00  0.00    +0.000 A 
ATOM     23  C   UNL     1       1.272  11.802  19.399  0.00  0.00    +0.000 A 
ATOM     24  C   UNL     1       0.287  12.520  18.707  0.00  0.00    +0.000 A 
ATOM     25  C   UNL     1      -0.790  11.803  18.160  0.00  0.00    +0.000 A 
ATOM     26  N   UNL     1      -1.898  12.235  17.458  0.00  0.00    +0.000 N 
ATOM     27  H   UNL     1      -2.079  13.198  17.217  0.00  0.00    +0.000 HD
ENDBRANCH  17  18
ENDBRANCH   3  17
TORSDOF 2
ENDMDL
MODEL 7
REMARK VINA RESULT:      -7.5      5.839      9.821
REMARK  Name = 
REMARK  2 active torsions:
REMARK  status: ('A' for Active; 'I' for Inactive)
REMARK    1  A    between atoms: N_3  and  C_4
REMARK    2  A    between atoms: C_4  and  C_5
REMARK                            x       y       z     vdW  Elec       q    Type
REMARK                         _______ _______ _______ _____ _____    ______ ____
ROOT
ATOM      1  O   UNL     1       1.454   8.700  20.546  0.00  0.00    +0.000 OA
ATOM      2  C   UNL     1       1.061   9.161  19.468  0.00  0.00    +0.000 C 
ATOM      3  N   UNL     1       1.669   8.796  18.296  0.00  0.00    +0.000 N 
ATOM      4  N   UNL     1      -0.008  10.071  19.384  0.00  0.00    +0.000 N 
ATOM      5  C   UNL     1      -0.444  10.555  20.691  0.00  0.00    +0.000 C 
ATOM      6  C   UNL     1       0.551  11.683  20.908  0.00  0.00    +0.000 C 
ATOM      7  C   UNL     1       0.114  12.887  21.708  0.00  0.00    +0.000 C 
ATOM      8  N   UNL     1       0.879  13.875  20.978  0.00  0.00    +0.000 NA
ATOM      9  C   UNL     1       0.969  15.211  21.505  0.00  0.00    +0.000 C 
ATOM     10  C   UNL     1       2.045  15.931  20.691  0.00  0.00    +0.000 C 
ATOM     11  C   UNL     1       1.617  15.977  19.222  0.00  0.00    +0.000 C 
ATOM     12  C   UNL     1       1.546  14.544  18.688  0.00  0.00    +0.000 C 
ATOM     13  C   UNL     1       0.599  13.701  19.549  0.00  0.00    +0.000 C 
ATOM     14  C   UNL     1       0.877  12.204  19.471  0.00  0.00    +0.000 C 
ATOM     15  C   UNL     1       0.067  11.284  18.558  0.00  0.00    +0.000 C 
ATOM     16  H   UNL     1       1.553   9.397  17.487  0.00  0.00    +0.000 HD
ENDROOT
BRANCH   3  17
ATOM     17  C   UNL     1       2.864   7.977  18.362  0.00  0.00    +0.000 C 
BRANCH  17  18
ATOM     18  C   UNL     1       2.514   6.575  18.740  0.00  0.00    +0.000 A 
ATOM     19  C   UNL     1       2.124   5.495  17.966  0.00  0.00    +0.000 A 
ATOM     20  C   UNL     1       1.905   4.380  18.826  0.00  0.00    +0.000 A 
ATOM     21  C   UNL     1       1.467   3.050  18.622  0.00  0.00    +0.000 A 
ATOM     22  C   UNL     1       1.319   2.196  19.718  0.00  0.00    +0.000 A 
ATOM     23  C   UNL     1       1.614   2.637  21.006  0.00  0.00    +0.000 A 
ATOM     24  C   UNL     1       2.068   3.945  21.230  0.00  0.00    +0.000 A 
ATOM     25  C   UNL     1       2.202   4.797  20.121  0.00  0.00    +0.000 A 
ATOM     26  N   UNL     1       2.598   6.117  20.039  0.00  0.00    +0.000 N 
ATOM     27  H   UNL     1       2.880   6.676  20.831  0.00  0.00    +0.000 HD
ENDBRANCH  17  18
ENDBRANCH   3  17
TORSDOF 2
ENDMDL
MODEL 8
REMARK VINA RESULT:      -7.3      5.923     10.200
REMARK  Name = 
REMARK  2 active torsions:
REMARK  status: ('A' for Active; 'I' for Inactive)
REMARK    1  A    between atoms: N_3  and  C_4
REMARK    2  A    between atoms: C_4  and  C_5
REMARK                            x       y       z     vdW  Elec       q    Type
REMARK                         _______ _______ _______ _____ _____    ______ ____
ROOT
ATOM      1  O   UNL     1       0.627  10.015  22.340  0.00  0.00    +0.000 OA
ATOM      2  C   UNL     1       0.444   9.946  21.119  0.00  0.00    +0.000 C 
ATOM      3  N   UNL     1       0.934   8.886  20.405  0.00  0.00    +0.000 N 
ATOM      4  N   UNL     1      -0.259  10.934  20.407  0.00  0.00    +0.000 N 
ATOM      5  C   UNL     1      -0.552  12.115  21.214  0.00  0.00    +0.000 C 
ATOM      6  C   UNL     1       0.753  12.879  21.062  0.00  0.00    +0.000 C 
ATOM      7  C   UNL     1       0.715  14.387  21.094  0.00  0.00    +0.000 C 
ATOM      8  N   UNL     1       1.788  14.614  20.149  0.00  0.00    +0.000 NA
ATOM      9  C   UNL     1       2.300  15.950  19.987  0.00  0.00    +0.000 C 
ATOM     10  C   UNL     1       3.578  15.830  19.158  0.00  0.00    +0.000 C 
ATOM     11  C   UNL     1       3.237  15.232  17.791  0.00  0.00    +0.000 C 
ATOM     12  C   UNL     1       2.713  13.810  17.997  0.00  0.00    +0.000 C 
ATOM     13  C   UNL     1       1.512  13.817  18.949  0.00  0.00    +0.000 C 
ATOM     14  C   UNL     1       1.281  12.481  19.645  0.00  0.00    +0.000 C 
ATOM     15  C   UNL     1       0.240  11.482  19.138  0.00  0.00    +0.000 C 
ATOM     16  H   UNL     1       1.050   8.994  19.402  0.00  0.00    +0.000 HD
ENDROOT
BRANCH   3  17
ATOM     17  C   UNL     1       1.787   7.929  21.083  0.00  0.00    +0.000 C 
BRANCH  17  18
ATOM     18  C   UNL     1       1.878   6.662  20.295  0.00  0.00    +0.000 A 
ATOM     19  C   UNL     1       2.476   6.390  19.078  0.00  0.00    +0.000 A 
ATOM     20  C   UNL     1       2.268   5.014  18.770  0.00  0.00    +0.000 A 
ATOM     21  C   UNL     1       2.603   4.189  17.671  0.00  0.00    +0.000 A 
ATOM     22  C   UNL     1       2.204   2.849  17.666  0.00  0.00    +0.000 A 
ATOM     23  C   UNL     1       1.495   2.317  18.740  0.00  0.00    +0.000 A 
ATOM     24  C   UNL     1       1.168   3.111  19.848  0.00  0.00    +0.000 A 
ATOM     25  C   UNL     1       1.564   4.459  19.836  0.00  0.00    +0.000 A 
ATOM     26  N   UNL     1       1.369   5.466  20.759  0.00  0.00    +0.000 N 
ATOM     27  H   UNL     1       0.890   5.346  21.639  0.00  0.00    +0.000 HD
ENDBRANCH  17  18
ENDBRANCH   3  17
TORSDOF 2
ENDMDL
MODEL 9
REMARK VINA RESULT:      -7.3      2.477      3.394
REMARK  Name = 
REMARK  2 active torsions:
REMARK  status: ('A' for Active; 'I' for Inactive)
REMARK    1  A    between atoms: N_3  and  C_4
REMARK    2  A    between atoms: C_4  and  C_5
REMARK                            x       y       z     vdW  Elec       q    Type
REMARK                         _______ _______ _______ _____ _____    ______ ____
ROOT
ATOM      1  O   UNL     1       6.011   5.105  19.728  0.00  0.00    +0.000 OA
ATOM      2  C   UNL     1       5.653   5.449  18.594  0.00  0.00    +0.000 C 
ATOM      3  N   UNL     1       6.557   5.990  17.719  0.00  0.00    +0.000 N 
ATOM      4  N   UNL     1       4.326   5.311  18.150  0.00  0.00    +0.000 N 
ATOM      5  C   UNL     1       3.407   4.927  19.218  0.00  0.00    +0.000 C 
ATOM      6  C   UNL     1       3.106   6.289  19.819  0.00  0.00    +0.000 C 
ATOM      7  C   UNL     1       1.748   6.521  20.437  0.00  0.00    +0.000 C 
ATOM      8  N   UNL     1       1.619   7.915  20.070  0.00  0.00    +0.000 NA
ATOM      9  C   UNL     1       0.540   8.684  20.633  0.00  0.00    +0.000 C 
ATOM     10  C   UNL     1       0.823  10.147  20.293  0.00  0.00    +0.000 C 
ATOM     11  C   UNL     1       0.846  10.315  18.772  0.00  0.00    +0.000 C 
ATOM     12  C   UNL     1       2.011   9.499  18.207  0.00  0.00    +0.000 C 
ATOM     13  C   UNL     1       1.891   8.032  18.633  0.00  0.00    +0.000 C 
ATOM     14  C   UNL     1       3.219   7.285  18.619  0.00  0.00    +0.000 C 
ATOM     15  C   UNL     1       3.626   6.393  17.445  0.00  0.00    +0.000 C 
ATOM     16  H   UNL     1       6.203   6.538  16.942  0.00  0.00    +0.000 HD
ENDROOT
BRANCH   3  17
ATOM     17  C   UNL     1       7.894   6.281  18.196  0.00  0.00    +0.000 C 
BRANCH  17  18
ATOM     18  C   UNL     1       8.130   7.756  18.218  0.00  0.00    +0.000 A 
ATOM     19  C   UNL     1       7.632   8.769  17.418  0.00  0.00    +0.000 A 
ATOM     20  C   UNL     1       8.180  10.007  17.863  0.00  0.00    +0.000 A 
ATOM     21  C   UNL     1       8.074  11.347  17.421  0.00  0.00    +0.000 A 
ATOM     22  C   UNL     1       8.794  12.349  18.077  0.00  0.00    +0.000 A 
ATOM     23  C   UNL     1       9.601  12.043  19.169  0.00  0.00    +0.000 A 
ATOM     24  C   UNL     1       9.708  10.725  19.636  0.00  0.00    +0.000 A 
ATOM     25  C   UNL     1       8.988   9.725  18.961  0.00  0.00    +0.000 A 
ATOM     26  N   UNL     1       8.916   8.364  19.177  0.00  0.00    +0.000 N 
ATOM     27  H   UNL     1       9.401   7.879  19.918  0.00  0.00    +0.000 HD
ENDBRANCH  17  18
ENDBRANCH   3  17
TORSDOF 2
ENDMDL
