MODEL 1
REMARK VINA RESULT:      -8.1      0.000      0.000
REMARK  Name = 
REMARK  5 active torsions:
REMARK  status: ('A' for Active; 'I' for Inactive)
REMARK    1  A    between atoms: C_1  and  N_2
REMARK    2  A    between atoms: C_6  and  C_7
REMARK    3  A    between atoms: C_11  and  N_12
REMARK    4  A    between atoms: C_19  and  C_20
REMARK    5  A    between atoms: N_28  and  C_29
REMARK                            x       y       z     vdW  Elec       q    Type
REMARK                         _______ _______ _______ _____ _____    ______ ____
ROOT
ATOM      1  C   UNL     1       2.375   6.292  18.649  0.00  0.00    +0.000 A 
ATOM      2  C   UNL     1       2.198   7.163  17.561  0.00  0.00    +0.000 A 
ATOM      3  C   UNL     1       2.070   8.532  17.757  0.00  0.00    +0.000 A 
ATOM      4  C   UNL     1       1.959   9.034  19.041  0.00  0.00    +0.000 A 
ATOM      5  C   UNL     1       1.751   8.133  20.100  0.00  0.00    +0.000 A 
ATOM      6  C   UNL     1       2.127   6.798  19.930  0.00  0.00    +0.000 A 
ENDROOT
BRANCH   5   7
ATOM      7  N   UNL     1       0.697   8.415  21.070  0.00  0.00    +0.000 N 
ATOM      8  C   UNL     1      -0.582   8.686  20.365  0.00  0.00    +0.000 C 
ATOM      9  C   UNL     1      -0.529  10.176  20.176  0.00  0.00    +0.000 A 
ATOM     10  C   UNL     1       0.283  10.692  21.187  0.00  0.00    +0.000 A 
ATOM     11  C   UNL     1       0.730  11.999  21.203  0.00  0.00    +0.000 A 
ATOM     12  C   UNL     1       0.337  12.815  20.142  0.00  0.00    +0.000 A 
ATOM     13  C   UNL     1      -0.485  12.311  19.116  0.00  0.00    +0.000 A 
ATOM     14  C   UNL     1      -0.943  10.977  19.114  0.00  0.00    +0.000 A 
ATOM     15  C   UNL     1       0.930   9.558  21.883  0.00  0.00    +0.000 C 
ATOM     16  O   UNL     1       1.687   9.668  22.825  0.00  0.00    +0.000 OA
BRANCH  14  17
ATOM     17  C   UNL     1      -1.739  10.473  17.939  0.00  0.00    +0.000 C 
ATOM     18  F   UNL     1      -2.861   9.778  18.275  0.00  0.00    +0.000 F 
ATOM     19  F   UNL     1      -2.166  11.489  17.137  0.00  0.00    +0.000 F 
ATOM     20  F   UNL     1      -1.017   9.642  17.136  0.00  0.00    +0.000 F 
ENDBRANCH  14  17
ENDBRANCH   5   7
BRANCH   1  26
ATOM     21  C   UNL     1       7.742   4.495  17.421  0.00  0.00    +0.000 C 
ATOM     22  N   UNL     1       6.908   4.497  18.608  0.00  0.00    +0.000 NA
ATOM     23  C   UNL     1       5.651   4.732  18.483  0.00  0.00    +0.000 C 
ATOM     24  C   UNL     1       4.844   4.573  19.773  0.00  0.00    +0.000 C 
ATOM     25  C   UNL     1       3.421   4.080  19.534  0.00  0.00    +0.000 C 
ATOM     26  C   UNL     1       2.717   4.832  18.388  0.00  0.00    +0.000 C 
ATOM     27  C   UNL     1       3.592   4.659  17.132  0.00  0.00    +0.000 C 
ATOM     28  N   UNL     1       4.962   5.135  17.345  0.00  0.00    +0.000 N 
ATOM     29  C   UNL     1       5.331   6.382  16.678  0.00  0.00    +0.000 C 
ENDBRANCH   1  26
TORSDOF 3
ENDMDL
MODEL 2
REMARK VINA RESULT:      -7.8      9.345     11.452
REMARK  Name = 
REMARK  5 active torsions:
REMARK  status: ('A' for Active; 'I' for Inactive)
REMARK    1  A    between atoms: C_1  and  N_2
REMARK    2  A    between atoms: C_6  and  C_7
REMARK    3  A    between atoms: C_11  and  N_12
REMARK    4  A    between atoms: C_19  and  C_20
REMARK    5  A    between atoms: N_28  and  C_29
REMARK                            x       y       z     vdW  Elec       q    Type
REMARK                         _______ _______ _______ _____ _____    ______ ____
ROOT
ATOM      1  C   UNL     1       8.754  13.868  22.380  0.00  0.00    +0.000 A 
ATOM      2  C   UNL     1       9.744  14.850  22.565  0.00  0.00    +0.000 A 
ATOM      3  C   UNL     1       9.697  16.048  21.865  0.00  0.00    +0.000 A 
ATOM      4  C   UNL     1       8.762  16.222  20.862  0.00  0.00    +0.000 A 
ATOM      5  C   UNL     1       8.031  15.104  20.422  0.00  0.00    +0.000 A 
ATOM      6  C   UNL     1       7.906  14.006  21.277  0.00  0.00    +0.000 A 
ENDROOT
BRANCH   5   7
ATOM      7  N   UNL     1       7.916  14.855  18.989  0.00  0.00    +0.000 N 
ATOM      8  C   UNL     1       8.461  13.513  18.661  0.00  0.00    +0.000 C 
ATOM      9  C   UNL     1       9.902  13.819  18.367  0.00  0.00    +0.000 A 
ATOM     10  C   UNL     1       9.964  15.148  17.943  0.00  0.00    +0.000 A 
ATOM     11  C   UNL     1      11.151  15.837  17.789  0.00  0.00    +0.000 A 
ATOM     12  C   UNL     1      12.326  15.147  18.083  0.00  0.00    +0.000 A 
ATOM     13  C   UNL     1      12.282  13.805  18.508  0.00  0.00    +0.000 A 
ATOM     14  C   UNL     1      11.065  13.107  18.654  0.00  0.00    +0.000 A 
ATOM     15  C   UNL     1       8.638  15.766  18.170  0.00  0.00    +0.000 C 
ATOM     16  O   UNL     1       8.355  16.913  17.891  0.00  0.00    +0.000 OA
BRANCH  14  17
ATOM     17  C   UNL     1      11.081  11.706  19.204  0.00  0.00    +0.000 C 
ATOM     18  F   UNL     1      10.603  11.595  20.475  0.00  0.00    +0.000 F 
ATOM     19  F   UNL     1      10.328  10.853  18.455  0.00  0.00    +0.000 F 
ATOM     20  F   UNL     1      12.333  11.169  19.234  0.00  0.00    +0.000 F 
ENDBRANCH  14  17
ENDBRANCH   5   7
BRANCH   1  26
ATOM     21  C   UNL     1       5.184  13.505  26.925  0.00  0.00    +0.000 C 
ATOM     22  N   UNL     1       5.186  12.965  25.578  0.00  0.00    +0.000 NA
ATOM     23  C   UNL     1       6.271  13.019  24.890  0.00  0.00    +0.000 C 
ATOM     24  C   UNL     1       6.204  12.300  23.541  0.00  0.00    +0.000 C 
ATOM     25  C   UNL     1       7.537  11.691  23.119  0.00  0.00    +0.000 C 
ATOM     26  C   UNL     1       8.719  12.661  23.307  0.00  0.00    +0.000 C 
ATOM     27  C   UNL     1       8.733  13.072  24.792  0.00  0.00    +0.000 C 
ATOM     28  N   UNL     1       7.459  13.666  25.210  0.00  0.00    +0.000 N 
ATOM     29  C   UNL     1       7.458  15.108  25.449  0.00  0.00    +0.000 C 
ENDBRANCH   1  26
TORSDOF 3
ENDMDL
MODEL 3
REMARK VINA RESULT:      -7.7      3.312      7.737
REMARK  Name = 
REMARK  5 active torsions:
REMARK  status: ('A' for Active; 'I' for Inactive)
REMARK    1  A    between atoms: C_1  and  N_2
REMARK    2  A    between atoms: C_6  and  C_7
REMARK    3  A    between atoms: C_11  and  N_12
REMARK    4  A    between atoms: C_19  and  C_20
REMARK    5  A    between atoms: N_28  and  C_29
REMARK                            x       y       z     vdW  Elec       q    Type
REMARK                         _______ _______ _______ _____ _____    ______ ____
ROOT
ATOM      1  C   UNL     1       1.359   9.720  19.725  0.00  0.00    +0.000 A 
ATOM      2  C   UNL     1       0.691   8.994  20.727  0.00  0.00    +0.000 A 
ATOM      3  C   UNL     1       1.057   7.687  21.024  0.00  0.00    +0.000 A 
ATOM      4  C   UNL     1       1.980   7.035  20.228  0.00  0.00    +0.000 A 
ATOM      5  C   UNL     1       2.355   7.627  19.009  0.00  0.00    +0.000 A 
ATOM      6  C   UNL     1       2.186   9.005  18.852  0.00  0.00    +0.000 A 
ENDROOT
BRANCH   5   7
ATOM      7  N   UNL     1       2.362   6.810  17.799  0.00  0.00    +0.000 N 
ATOM      8  C   UNL     1       1.522   5.601  17.998  0.00  0.00    +0.000 C 
ATOM      9  C   UNL     1       2.518   4.607  18.526  0.00  0.00    +0.000 A 
ATOM     10  C   UNL     1       3.774   4.990  18.052  0.00  0.00    +0.000 A 
ATOM     11  C   UNL     1       4.954   4.433  18.507  0.00  0.00    +0.000 A 
ATOM     12  C   UNL     1       4.852   3.449  19.489  0.00  0.00    +0.000 A 
ATOM     13  C   UNL     1       3.592   3.049  19.975  0.00  0.00    +0.000 A 
ATOM     14  C   UNL     1       2.393   3.617  19.498  0.00  0.00    +0.000 A 
ATOM     15  C   UNL     1       3.643   6.323  17.421  0.00  0.00    +0.000 C 
ATOM     16  O   UNL     1       4.554   6.929  16.896  0.00  0.00    +0.000 OA
BRANCH  14  17
ATOM     17  C   UNL     1       1.085   3.215  20.128  0.00  0.00    +0.000 C 
ATOM     18  F   UNL     1       1.210   2.402  21.213  0.00  0.00    +0.000 F 
ATOM     19  F   UNL     1       0.371   4.292  20.558  0.00  0.00    +0.000 F 
ATOM     20  F   UNL     1       0.271   2.549  19.261  0.00  0.00    +0.000 F 
ENDBRANCH  14  17
ENDBRANCH   5   7
BRANCH   1  26
ATOM     21  C   UNL     1      -3.794  11.770  18.060  0.00  0.00    +0.000 C 
ATOM     22  N   UNL     1      -3.107  11.636  19.331  0.00  0.00    +0.000 NA
ATOM     23  C   UNL     1      -1.847  11.378  19.330  0.00  0.00    +0.000 C 
ATOM     24  C   UNL     1      -1.196  11.395  20.714  0.00  0.00    +0.000 C 
ATOM     25  C   UNL     1       0.254  11.869  20.689  0.00  0.00    +0.000 C 
ATOM     26  C   UNL     1       1.075  11.207  19.566  0.00  0.00    +0.000 C 
ATOM     27  C   UNL     1       0.357  11.519  18.239  0.00  0.00    +0.000 C 
ATOM     28  N   UNL     1      -1.036  11.063  18.246  0.00  0.00    +0.000 N 
ATOM     29  C   UNL     1      -1.345   9.894  17.425  0.00  0.00    +0.000 C 
ENDBRANCH   1  26
TORSDOF 3
ENDMDL
MODEL 4
REMARK VINA RESULT:      -7.6      4.624      9.506
REMARK  Name = 
REMARK  5 active torsions:
REMARK  status: ('A' for Active; 'I' for Inactive)
REMARK    1  A    between atoms: C_1  and  N_2
REMARK    2  A    between atoms: C_6  and  C_7
REMARK    3  A    between atoms: C_11  and  N_12
REMARK    4  A    between atoms: C_19  and  C_20
REMARK    5  A    between atoms: N_28  and  C_29
REMARK                            x       y       z     vdW  Elec       q    Type
REMARK                         _______ _______ _______ _____ _____    ______ ____
ROOT
ATOM      1  C   UNL     1      -5.011  11.807  18.131  0.00  0.00    +0.000 A 
ATOM      2  C   UNL     1      -4.602  11.637  16.797  0.00  0.00    +0.000 A 
ATOM      3  C   UNL     1      -3.320  11.196  16.496  0.00  0.00    +0.000 A 
ATOM      4  C   UNL     1      -2.383  11.069  17.505  0.00  0.00    +0.000 A 
ATOM      5  C   UNL     1      -2.680  11.604  18.771  0.00  0.00    +0.000 A 
ATOM      6  C   UNL     1      -4.019  11.805  19.117  0.00  0.00    +0.000 A 
ENDROOT
BRANCH   5   7
ATOM      7  N   UNL     1      -1.683  12.436  19.438  0.00  0.00    +0.000 N 
ATOM      8  C   UNL     1      -0.324  12.095  18.944  0.00  0.00    +0.000 C 
ATOM      9  C   UNL     1       0.104  11.024  19.907  0.00  0.00    +0.000 A 
ATOM     10  C   UNL     1      -0.598  11.234  21.096  0.00  0.00    +0.000 A 
ATOM     11  C   UNL     1      -0.617  10.321  22.132  0.00  0.00    +0.000 A 
ATOM     12  C   UNL     1       0.103   9.141  21.950  0.00  0.00    +0.000 A 
ATOM     13  C   UNL     1       0.818   8.915  20.758  0.00  0.00    +0.000 A 
ATOM     14  C   UNL     1       0.839   9.858  19.710  0.00  0.00    +0.000 A 
ATOM     15  C   UNL     1      -1.624  12.272  20.849  0.00  0.00    +0.000 C 
ATOM     16  O   UNL     1      -2.392  12.696  21.688  0.00  0.00    +0.000 OA
BRANCH  14  17
ATOM     17  C   UNL     1       1.544   9.513  18.424  0.00  0.00    +0.000 C 
ATOM     18  F   UNL     1       2.393   8.453  18.514  0.00  0.00    +0.000 F 
ATOM     19  F   UNL     1       0.668   9.196  17.429  0.00  0.00    +0.000 F 
ATOM     20  F   UNL     1       2.293  10.546  17.945  0.00  0.00    +0.000 F 
ENDBRANCH  14  17
ENDBRANCH   5   7
BRANCH   1  26
ATOM     21  C   UNL     1      -6.936  17.034  19.714  0.00  0.00    +0.000 C 
ATOM     22  N   UNL     1      -6.929  16.276  18.477  0.00  0.00    +0.000 NA
ATOM     23  C   UNL     1      -6.657  15.020  18.520  0.00  0.00    +0.000 C 
ATOM     24  C   UNL     1      -6.813  14.291  17.185  0.00  0.00    +0.000 C 
ATOM     25  C   UNL     1      -7.264  12.842  17.341  0.00  0.00    +0.000 C 
ATOM     26  C   UNL     1      -6.477  12.090  18.432  0.00  0.00    +0.000 C 
ATOM     27  C   UNL     1      -6.655  12.881  19.742  0.00  0.00    +0.000 C 
ATOM     28  N   UNL     1      -6.219  14.274  19.608  0.00  0.00    +0.000 N 
ATOM     29  C   UNL     1      -4.973  14.637  20.281  0.00  0.00    +0.000 C 
ENDBRANCH   1  26
TORSDOF 3
ENDMDL
MODEL 5
REMARK VINA RESULT:      -7.6      1.602      2.052
REMARK  Name = 
REMARK  5 active torsions:
REMARK  status: ('A' for Active; 'I' for Inactive)
REMARK    1  A    between atoms: C_1  and  N_2
REMARK    2  A    between atoms: C_6  and  C_7
REMARK    3  A    between atoms: C_11  and  N_12
REMARK    4  A    between atoms: C_19  and  C_20
REMARK    5  A    between atoms: N_28  and  C_29
REMARK                            x       y       z     vdW  Elec       q    Type
REMARK                         _______ _______ _______ _____ _____    ______ ____
ROOT
ATOM      1  C   UNL     1       1.659   5.586  19.102  0.00  0.00    +0.000 A 
ATOM      2  C   UNL     1       1.967   6.455  18.041  0.00  0.00    +0.000 A 
ATOM      3  C   UNL     1       2.364   7.763  18.283  0.00  0.00    +0.000 A 
ATOM      4  C   UNL     1       2.310   8.270  19.568  0.00  0.00    +0.000 A 
ATOM      5  C   UNL     1       1.642   7.527  20.558  0.00  0.00    +0.000 A 
ATOM      6  C   UNL     1       1.481   6.152  20.369  0.00  0.00    +0.000 A 
ENDROOT
BRANCH   5   7
ATOM      7  N   UNL     1       0.678   8.203  21.419  0.00  0.00    +0.000 N 
ATOM      8  C   UNL     1      -0.519   8.597  20.631  0.00  0.00    +0.000 C 
ATOM      9  C   UNL     1      -0.151   9.978  20.166  0.00  0.00    +0.000 A 
ATOM     10  C   UNL     1       0.758  10.496  21.090  0.00  0.00    +0.000 A 
ATOM     11  C   UNL     1       1.472  11.659  20.875  0.00  0.00    +0.000 A 
ATOM     12  C   UNL     1       1.256  12.320  19.667  0.00  0.00    +0.000 A 
ATOM     13  C   UNL     1       0.340  11.813  18.726  0.00  0.00    +0.000 A 
ATOM     14  C   UNL     1      -0.391  10.629  18.958  0.00  0.00    +0.000 A 
ATOM     15  C   UNL     1       1.153   9.406  22.010  0.00  0.00    +0.000 C 
ATOM     16  O   UNL     1       1.921   9.534  22.941  0.00  0.00    +0.000 OA
BRANCH  14  17
ATOM     17  C   UNL     1      -1.283  10.088  17.871  0.00  0.00    +0.000 C 
ATOM     18  F   UNL     1      -2.440   9.528  18.319  0.00  0.00    +0.000 F 
ATOM     19  F   UNL     1      -1.663  11.057  16.992  0.00  0.00    +0.000 F 
ATOM     20  F   UNL     1      -0.672   9.126  17.125  0.00  0.00    +0.000 F 
ENDBRANCH  14  17
ENDBRANCH   5   7
BRANCH   1  26
ATOM     21  C   UNL     1       5.281   1.436  20.891  0.00  0.00    +0.000 C 
ATOM     22  N   UNL     1       4.004   1.951  21.351  0.00  0.00    +0.000 NA
ATOM     23  C   UNL     1       3.324   2.711  20.569  0.00  0.00    +0.000 C 
ATOM     24  C   UNL     1       1.936   3.083  21.095  0.00  0.00    +0.000 C 
ATOM     25  C   UNL     1       0.902   3.260  19.987  0.00  0.00    +0.000 C 
ATOM     26  C   UNL     1       1.428   4.109  18.815  0.00  0.00    +0.000 C 
ATOM     27  C   UNL     1       2.701   3.417  18.292  0.00  0.00    +0.000 C 
ATOM     28  N   UNL     1       3.707   3.246  19.344  0.00  0.00    +0.000 N 
ATOM     29  C   UNL     1       4.887   4.106  19.266  0.00  0.00    +0.000 C 
ENDBRANCH   1  26
TORSDOF 3
ENDMDL
MODEL 6
REMARK VINA RESULT:      -7.5      8.984     11.076
REMARK  Name = 
REMARK  5 active torsions:
REMARK  status: ('A' for Active; 'I' for Inactive)
REMARK    1  A    between atoms: C_1  and  N_2
REMARK    2  A    between atoms: C_6  and  C_7
REMARK    3  A    between atoms: C_11  and  N_12
REMARK    4  A    between atoms: C_19  and  C_20
REMARK    5  A    between atoms: N_28  and  C_29
REMARK                            x       y       z     vdW  Elec       q    Type
REMARK                         _______ _______ _______ _____ _____    ______ ____
ROOT
ATOM      1  C   UNL     1       8.726  14.164  22.194  0.00  0.00    +0.000 A 
ATOM      2  C   UNL     1       9.970  14.815  22.130  0.00  0.00    +0.000 A 
ATOM      3  C   UNL     1      10.081  16.087  21.584  0.00  0.00    +0.000 A 
ATOM      4  C   UNL     1       8.993  16.662  20.955  0.00  0.00    +0.000 A 
ATOM      5  C   UNL     1       7.871  15.860  20.684  0.00  0.00    +0.000 A 
ATOM      6  C   UNL     1       7.677  14.700  21.439  0.00  0.00    +0.000 A 
ENDROOT
BRANCH   5   7
ATOM      7  N   UNL     1       7.282  15.897  19.349  0.00  0.00    +0.000 N 
ATOM      8  C   UNL     1       7.325  14.544  18.737  0.00  0.00    +0.000 C 
ATOM      9  C   UNL     1       8.646  14.564  18.019  0.00  0.00    +0.000 A 
ATOM     10  C   UNL     1       8.937  15.898  17.727  0.00  0.00    +0.000 A 
ATOM     11  C   UNL     1      10.168  16.317  17.260  0.00  0.00    +0.000 A 
ATOM     12  C   UNL     1      11.146  15.339  17.089  0.00  0.00    +0.000 A 
ATOM     13  C   UNL     1      10.868  13.989  17.377  0.00  0.00    +0.000 A 
ATOM     14  C   UNL     1       9.605  13.569  17.844  0.00  0.00    +0.000 A 
ATOM     15  C   UNL     1       7.952  16.750  18.430  0.00  0.00    +0.000 C 
ATOM     16  O   UNL     1       7.919  17.962  18.368  0.00  0.00    +0.000 OA
BRANCH  14  17
ATOM     17  C   UNL     1       9.402  12.126  18.224  0.00  0.00    +0.000 C 
ATOM     18  F   UNL     1      10.444  11.309  17.907  0.00  0.00    +0.000 F 
ATOM     19  F   UNL     1       9.212  11.972  19.564  0.00  0.00    +0.000 F 
ATOM     20  F   UNL     1       8.308  11.577  17.627  0.00  0.00    +0.000 F 
ENDBRANCH  14  17
ENDBRANCH   5   7
BRANCH   1  26
ATOM     21  C   UNL     1       5.295  13.613  26.826  0.00  0.00    +0.000 C 
ATOM     22  N   UNL     1       5.198  13.237  25.428  0.00  0.00    +0.000 NA
ATOM     23  C   UNL     1       6.258  13.267  24.703  0.00  0.00    +0.000 C 
ATOM     24  C   UNL     1       6.074  12.721  23.286  0.00  0.00    +0.000 C 
ATOM     25  C   UNL     1       7.324  12.041  22.737  0.00  0.00    +0.000 C 
ATOM     26  C   UNL     1       8.602  12.866  22.979  0.00  0.00    +0.000 C 
ATOM     27  C   UNL     1       8.708  13.098  24.499  0.00  0.00    +0.000 C 
ATOM     28  N   UNL     1       7.515  13.757  25.039  0.00  0.00    +0.000 N 
ATOM     29  C   UNL     1       7.665  15.155  25.438  0.00  0.00    +0.000 C 
ENDBRANCH   1  26
TORSDOF 3
ENDMDL
MODEL 7
REMARK VINA RESULT:      -7.4      3.340      7.740
REMARK  Name = 
REMARK  5 active torsions:
REMARK  status: ('A' for Active; 'I' for Inactive)
REMARK    1  A    between atoms: C_1  and  N_2
REMARK    2  A    between atoms: C_6  and  C_7
REMARK    3  A    between atoms: C_11  and  N_12
REMARK    4  A    between atoms: C_19  and  C_20
REMARK    5  A    between atoms: N_28  and  C_29
REMARK                            x       y       z     vdW  Elec       q    Type
REMARK                         _______ _______ _______ _____ _____    ______ ____
ROOT
ATOM      1  C   UNL     1       1.275   8.862  19.893  0.00  0.00    +0.000 A 
ATOM      2  C   UNL     1       1.851   9.357  18.710  0.00  0.00    +0.000 A 
ATOM      3  C   UNL     1       2.439   8.498  17.791  0.00  0.00    +0.000 A 
ATOM      4  C   UNL     1       2.604   7.163  18.107  0.00  0.00    +0.000 A 
ATOM      5  C   UNL     1       2.380   6.752  19.432  0.00  0.00    +0.000 A 
ATOM      6  C   UNL     1       1.570   7.542  20.252  0.00  0.00    +0.000 A 
ENDROOT
BRANCH   5   7
ATOM      7  N   UNL     1       3.371   5.904  20.086  0.00  0.00    +0.000 N 
ATOM      8  C   UNL     1       4.503   5.639  19.161  0.00  0.00    +0.000 C 
ATOM      9  C   UNL     1       4.061   4.379  18.473  0.00  0.00    +0.000 A 
ATOM     10  C   UNL     1       3.192   3.716  19.343  0.00  0.00    +0.000 A 
ATOM     11  C   UNL     1       2.427   2.631  18.963  0.00  0.00    +0.000 A 
ATOM     12  C   UNL     1       2.546   2.204  17.642  0.00  0.00    +0.000 A 
ATOM     13  C   UNL     1       3.420   2.859  16.753  0.00  0.00    +0.000 A 
ATOM     14  C   UNL     1       4.204   3.960  17.152  0.00  0.00    +0.000 A 
ATOM     15  C   UNL     1       2.892   4.623  20.474  0.00  0.00    +0.000 C 
ATOM     16  O   UNL     1       2.179   4.340  21.414  0.00  0.00    +0.000 OA
BRANCH  14  17
ATOM     17  C   UNL     1       5.045   4.676  16.128  0.00  0.00    +0.000 C 
ATOM     18  F   UNL     1       4.696   5.976  15.922  0.00  0.00    +0.000 F 
ATOM     19  F   UNL     1       6.362   4.701  16.475  0.00  0.00    +0.000 F 
ATOM     20  F   UNL     1       4.994   4.082  14.902  0.00  0.00    +0.000 F 
ENDBRANCH  14  17
ENDBRANCH   5   7
BRANCH   1  26
ATOM     21  C   UNL     1      -0.135  14.247  18.296  0.00  0.00    +0.000 C 
ATOM     22  N   UNL     1      -0.829  12.973  18.329  0.00  0.00    +0.000 NA
ATOM     23  C   UNL     1      -0.312  12.002  18.996  0.00  0.00    +0.000 C 
ATOM     24  C   UNL     1      -1.190  10.752  19.080  0.00  0.00    +0.000 C 
ATOM     25  C   UNL     1      -1.018   9.986  20.388  0.00  0.00    +0.000 C 
ATOM     26  C   UNL     1       0.461   9.798  20.775  0.00  0.00    +0.000 C 
ATOM     27  C   UNL     1       1.087  11.203  20.860  0.00  0.00    +0.000 C 
ATOM     28  N   UNL     1       0.935  11.949  19.607  0.00  0.00    +0.000 N 
ATOM     29  C   UNL     1       2.144  12.132  18.805  0.00  0.00    +0.000 C 
ENDBRANCH   1  26
TORSDOF 3
ENDMDL
MODEL 8
REMARK VINA RESULT:      -7.4      8.870     10.895
REMARK  Name = 
REMARK  5 active torsions:
REMARK  status: ('A' for Active; 'I' for Inactive)
REMARK    1  A    between atoms: C_1  and  N_2
REMARK    2  A    between atoms: C_6  and  C_7
REMARK    3  A    between atoms: C_11  and  N_12
REMARK    4  A    between atoms: C_19  and  C_20
REMARK    5  A    between atoms: N_28  and  C_29
REMARK                            x       y       z     vdW  Elec       q    Type
REMARK                         _______ _______ _______ _____ _____    ______ ____
ROOT
ATOM      1  C   UNL     1       7.926  14.871  21.862  0.00  0.00    +0.000 A 
ATOM      2  C   UNL     1       7.327  16.103  22.179  0.00  0.00    +0.000 A 
ATOM      3  C   UNL     1       6.380  16.672  21.337  0.00  0.00    +0.000 A 
ATOM      4  C   UNL     1       6.134  16.107  20.099  0.00  0.00    +0.000 A 
ATOM      5  C   UNL     1       7.005  15.107  19.630  0.00  0.00    +0.000 A 
ATOM      6  C   UNL     1       7.766  14.391  20.558  0.00  0.00    +0.000 A 
ENDROOT
BRANCH   5   7
ATOM      7  N   UNL     1       7.523  15.204  18.269  0.00  0.00    +0.000 N 
ATOM      8  C   UNL     1       8.106  13.902  17.855  0.00  0.00    +0.000 C 
ATOM      9  C   UNL     1       9.541  14.049  18.279  0.00  0.00    +0.000 A 
ATOM     10  C   UNL     1       9.831  15.414  18.289  0.00  0.00    +0.000 A 
ATOM     11  C   UNL     1      10.989  15.936  18.830  0.00  0.00    +0.000 A 
ATOM     12  C   UNL     1      11.889  15.031  19.391  0.00  0.00    +0.000 A 
ATOM     13  C   UNL     1      11.613  13.650  19.387  0.00  0.00    +0.000 A 
ATOM     14  C   UNL     1      10.431  13.126  18.823  0.00  0.00    +0.000 A 
ATOM     15  C   UNL     1       8.564  16.156  18.098  0.00  0.00    +0.000 C 
ATOM     16  O   UNL     1       8.475  17.366  18.042  0.00  0.00    +0.000 OA
BRANCH  14  17
ATOM     17  C   UNL     1      10.152  11.651  18.938  0.00  0.00    +0.000 C 
ATOM     18  F   UNL     1       9.037  11.343  19.656  0.00  0.00    +0.000 F 
ATOM     19  F   UNL     1       9.973  11.068  17.719  0.00  0.00    +0.000 F 
ATOM     20  F   UNL     1      11.172  10.970  19.531  0.00  0.00    +0.000 F 
ENDBRANCH  14  17
ENDBRANCH   5   7
BRANCH   1  26
ATOM     21  C   UNL     1       5.797  11.251  25.849  0.00  0.00    +0.000 C 
ATOM     22  N   UNL     1       6.487  11.090  24.582  0.00  0.00    +0.000 NA
ATOM     23  C   UNL     1       7.068  12.110  24.059  0.00  0.00    +0.000 C 
ATOM     24  C   UNL     1       7.880  11.801  22.800  0.00  0.00    +0.000 C 
ATOM     25  C   UNL     1       9.109  12.690  22.645  0.00  0.00    +0.000 C 
ATOM     26  C   UNL     1       8.800  14.178  22.898  0.00  0.00    +0.000 C 
ATOM     27  C   UNL     1       8.206  14.280  24.316  0.00  0.00    +0.000 C 
ATOM     28  N   UNL     1       7.020  13.435  24.478  0.00  0.00    +0.000 N 
ATOM     29  C   UNL     1       5.732  14.123  24.556  0.00  0.00    +0.000 C 
ENDBRANCH   1  26
TORSDOF 3
ENDMDL
MODEL 9
REMARK VINA RESULT:      -7.3      1.658      2.710
REMARK  Name = 
REMARK  5 active torsions:
REMARK  status: ('A' for Active; 'I' for Inactive)
REMARK    1  A    between atoms: C_1  and  N_2
REMARK    2  A    between atoms: C_6  and  C_7
REMARK    3  A    between atoms: C_11  and  N_12
REMARK    4  A    between atoms: C_19  and  C_20
REMARK    5  A    between atoms: N_28  and  C_29
REMARK                            x       y       z     vdW  Elec       q    Type
REMARK                         _______ _______ _______ _____ _____    ______ ____
ROOT
ATOM      1  C   UNL     1       2.873   7.051  19.115  0.00  0.00    +0.000 A 
ATOM      2  C   UNL     1       2.468   7.565  17.870  0.00  0.00    +0.000 A 
ATOM      3  C   UNL     1       1.817   8.788  17.782  0.00  0.00    +0.000 A 
ATOM      4  C   UNL     1       1.420   9.439  18.935  0.00  0.00    +0.000 A 
ATOM      5  C   UNL     1       1.482   8.744  20.156  0.00  0.00    +0.000 A 
ATOM      6  C   UNL     1       2.347   7.652  20.264  0.00  0.00    +0.000 A 
ENDROOT
BRANCH   5   7
ATOM      7  N   UNL     1       0.324   8.772  21.044  0.00  0.00    +0.000 N 
ATOM      8  C   UNL     1      -0.915   8.999  20.257  0.00  0.00    +0.000 C 
ATOM      9  C   UNL     1      -1.027  10.497  20.267  0.00  0.00    +0.000 A 
ATOM     10  C   UNL     1      -0.370  10.953  21.411  0.00  0.00    +0.000 A 
ATOM     11  C   UNL     1      -0.087  12.286  21.639  0.00  0.00    +0.000 A 
ATOM     12  C   UNL     1      -0.485  13.194  20.659  0.00  0.00    +0.000 A 
ATOM     13  C   UNL     1      -1.152  12.751  19.500  0.00  0.00    +0.000 A 
ATOM     14  C   UNL     1      -1.444  11.389  19.281  0.00  0.00    +0.000 A 
ATOM     15  C   UNL     1       0.349   9.809  22.017  0.00  0.00    +0.000 C 
ATOM     16  O   UNL     1       1.005   9.869  23.036  0.00  0.00    +0.000 OA
BRANCH  14  17
ATOM     17  C   UNL     1      -2.072  10.971  17.977  0.00  0.00    +0.000 C 
ATOM     18  F   UNL     1      -1.328  10.093  17.250  0.00  0.00    +0.000 F 
ATOM     19  F   UNL     1      -3.277  10.362  18.162  0.00  0.00    +0.000 F 
ATOM     20  F   UNL     1      -2.310  12.026  17.149  0.00  0.00    +0.000 F 
ENDBRANCH  14  17
ENDBRANCH   5   7
BRANCH   1  26
ATOM     21  C   UNL     1       0.761   1.660  19.010  0.00  0.00    +0.000 C 
ATOM     22  N   UNL     1       1.366   2.543  18.030  0.00  0.00    +0.000 NA
ATOM     23  C   UNL     1       1.977   3.597  18.439  0.00  0.00    +0.000 C 
ATOM     24  C   UNL     1       2.694   4.382  17.339  0.00  0.00    +0.000 C 
ATOM     25  C   UNL     1       3.964   5.073  17.825  0.00  0.00    +0.000 C 
ATOM     26  C   UNL     1       3.761   5.816  19.159  0.00  0.00    +0.000 C 
ATOM     27  C   UNL     1       3.258   4.779  20.181  0.00  0.00    +0.000 C 
ATOM     28  N   UNL     1       2.034   4.111  19.730  0.00  0.00    +0.000 N 
ATOM     29  C   UNL     1       0.797   4.477  20.419  0.00  0.00    +0.000 C 
ENDBRANCH   1  26
TORSDOF 3
ENDMDL
