MODEL 1
REMARK VINA RESULT:      -9.4      0.000      0.000
REMARK  Name = 
REMARK  5 active torsions:
REMARK  status: ('A' for Active; 'I' for Inactive)
REMARK    1  A    between atoms: C_2  and  C_20
REMARK    2  A    between atoms: N_3  and  C_4
REMARK    3  A    between atoms: C_4  and  C_5
REMARK    4  A    between atoms: C_4  and  C_13
REMARK    5  A    between atoms: C_5  and  C_6
REMARK                            x       y       z     vdW  Elec       q    Type
REMARK                         _______ _______ _______ _____ _____    ______ ____
ROOT
ATOM      1  C   UNL     1       2.780   6.235  18.909  0.00  0.00    +0.000 C 
ENDROOT
BRANCH   1   2
ATOM      2  C   UNL     1       2.138   4.883  19.180  0.00  0.00    +0.000 A 
ATOM      3  C   UNL     1       1.769   4.054  18.106  0.00  0.00    +0.000 A 
ATOM      4  C   UNL     1       1.159   2.817  18.333  0.00  0.00    +0.000 A 
ATOM      5  C   UNL     1       0.906   2.396  19.636  0.00  0.00    +0.000 A 
ATOM      6  C   UNL     1       1.269   3.211  20.699  0.00  0.00    +0.000 A 
ATOM      7  F   UNL     1       1.024   2.808  21.954  0.00  0.00    +0.000 F 
ATOM      8  C   UNL     1       1.880   4.442  20.487  0.00  0.00    +0.000 A 
ENDBRANCH   1   2
BRANCH   1  11
ATOM      9  O   UNL     1       2.125   8.751  17.887  0.00  0.00    +0.000 OA
ATOM     10  C   UNL     1       1.753   8.479  19.026  0.00  0.00    +0.000 C 
ATOM     11  N   UNL     1       2.060   7.282  19.637  0.00  0.00    +0.000 N 
ATOM     12  H   UNL     1       1.643   7.031  20.519  0.00  0.00    +0.000 HD
BRANCH  10  13
ATOM     13  C   UNL     1       0.939   9.474  19.775  0.00  0.00    +0.000 A 
ATOM     14  C   UNL     1       0.312  10.484  19.032  0.00  0.00    +0.000 A 
ATOM     15  N   UNL     1      -0.471  11.487  19.523  0.00  0.00    +0.000 NA
ATOM     16  C   UNL     1      -0.591  11.410  20.859  0.00  0.00    +0.000 A 
ATOM     17  N   UNL     1      -1.301  12.254  21.661  0.00  0.00    +0.000 N 
ATOM     18  C   UNL     1      -1.154  11.816  22.949  0.00  0.00    +0.000 A 
ATOM     19  N   UNL     1      -0.388  10.744  23.018  0.00  0.00    +0.000 NA
ATOM     20  C   UNL     1      -0.029  10.479  21.720  0.00  0.00    +0.000 A 
ATOM     21  C   UNL     1       0.773   9.466  21.167  0.00  0.00    +0.000 A 
ATOM     22  H   UNL     1      -1.832  13.051  21.342  0.00  0.00    +0.000 HD
ENDBRANCH  10  13
ENDBRANCH   1  11
BRANCH   1  23
ATOM     23  C   UNL     1       4.292   6.210  19.244  0.00  0.00    +0.000 C 
BRANCH  23  24
ATOM     24  C   UNL     1       5.153   5.730  18.097  0.00  0.00    +0.000 A 
ATOM     25  C   UNL     1       4.770   5.955  16.764  0.00  0.00    +0.000 A 
ATOM     26  C   UNL     1       5.606   5.578  15.710  0.00  0.00    +0.000 A 
ATOM     27  C   UNL     1       6.824   4.957  15.974  0.00  0.00    +0.000 A 
ATOM     28  C   UNL     1       7.187   4.699  17.290  0.00  0.00    +0.000 A 
ATOM     29  F   UNL     1       8.352   4.092  17.548  0.00  0.00    +0.000 F 
ATOM     30  C   UNL     1       6.364   5.073  18.349  0.00  0.00    +0.000 A 
ENDBRANCH  23  24
ENDBRANCH   1  23
TORSDOF 5
ENDMDL
MODEL 2
REMARK VINA RESULT:      -9.2      0.887      1.270
REMARK  Name = 
REMARK  5 active torsions:
REMARK  status: ('A' for Active; 'I' for Inactive)
REMARK    1  A    between atoms: C_2  and  C_20
REMARK    2  A    between atoms: N_3  and  C_4
REMARK    3  A    between atoms: C_4  and  C_5
REMARK    4  A    between atoms: C_4  and  C_13
REMARK    5  A    between atoms: C_5  and  C_6
REMARK                            x       y       z     vdW  Elec       q    Type
REMARK                         _______ _______ _______ _____ _____    ______ ____
ROOT
ATOM      1  C   UNL     1       2.944   6.038  18.945  0.00  0.00    +0.000 C 
ENDROOT
BRANCH   1   2
ATOM      2  C   UNL     1       2.286   4.689  19.187  0.00  0.00    +0.000 A 
ATOM      3  C   UNL     1       2.009   3.838  18.103  0.00  0.00    +0.000 A 
ATOM      4  C   UNL     1       1.386   2.603  18.302  0.00  0.00    +0.000 A 
ATOM      5  C   UNL     1       1.027   2.205  19.587  0.00  0.00    +0.000 A 
ATOM      6  C   UNL     1       1.299   3.042  20.661  0.00  0.00    +0.000 A 
ATOM      7  F   UNL     1       0.952   2.662  21.899  0.00  0.00    +0.000 F 
ATOM      8  C   UNL     1       1.922   4.271  20.477  0.00  0.00    +0.000 A 
ENDBRANCH   1   2
BRANCH   1  11
ATOM      9  O   UNL     1       2.286   8.544  17.900  0.00  0.00    +0.000 OA
ATOM     10  C   UNL     1       1.902   8.277  19.037  0.00  0.00    +0.000 C 
ATOM     11  N   UNL     1       2.210   7.085  19.659  0.00  0.00    +0.000 N 
ATOM     12  H   UNL     1       1.785   6.837  20.538  0.00  0.00    +0.000 HD
BRANCH  10  13
ATOM     13  C   UNL     1       1.075   9.271  19.771  0.00  0.00    +0.000 A 
ATOM     14  C   UNL     1       0.432  10.259  19.013  0.00  0.00    +0.000 A 
ATOM     15  N   UNL     1      -0.366  11.258  19.489  0.00  0.00    +0.000 NA
ATOM     16  C   UNL     1      -0.482  11.201  20.826  0.00  0.00    +0.000 A 
ATOM     17  N   UNL     1      -1.205  12.047  21.616  0.00  0.00    +0.000 N 
ATOM     18  C   UNL     1      -1.049  11.632  22.911  0.00  0.00    +0.000 A 
ATOM     19  N   UNL     1      -0.267  10.573  22.996  0.00  0.00    +0.000 NA
ATOM     20  C   UNL     1       0.095  10.293  21.701  0.00  0.00    +0.000 A 
ATOM     21  C   UNL     1       0.910   9.283  21.163  0.00  0.00    +0.000 A 
ATOM     22  H   UNL     1      -1.748  12.831  21.285  0.00  0.00    +0.000 HD
ENDBRANCH  10  13
ENDBRANCH   1  11
BRANCH   1  23
ATOM     23  C   UNL     1       4.446   6.000  19.323  0.00  0.00    +0.000 C 
BRANCH  23  24
ATOM     24  C   UNL     1       5.346   5.604  18.174  0.00  0.00    +0.000 A 
ATOM     25  C   UNL     1       6.603   5.023  18.409  0.00  0.00    +0.000 A 
ATOM     26  C   UNL     1       7.397   4.589  17.344  0.00  0.00    +0.000 A 
ATOM     27  C   UNL     1       6.952   4.746  16.034  0.00  0.00    +0.000 A 
ATOM     28  C   UNL     1       5.726   5.355  15.799  0.00  0.00    +0.000 A 
ATOM     29  F   UNL     1       5.299   5.518  14.539  0.00  0.00    +0.000 F 
ATOM     30  C   UNL     1       4.924   5.789  16.851  0.00  0.00    +0.000 A 
ENDBRANCH  23  24
ENDBRANCH   1  23
TORSDOF 5
ENDMDL
MODEL 3
REMARK VINA RESULT:      -9.1      1.094      1.801
REMARK  Name = 
REMARK  5 active torsions:
REMARK  status: ('A' for Active; 'I' for Inactive)
REMARK    1  A    between atoms: C_2  and  C_20
REMARK    2  A    between atoms: N_3  and  C_4
REMARK    3  A    between atoms: C_4  and  C_5
REMARK    4  A    between atoms: C_4  and  C_13
REMARK    5  A    between atoms: C_5  and  C_6
REMARK                            x       y       z     vdW  Elec       q    Type
REMARK                         _______ _______ _______ _____ _____    ______ ____
ROOT
ATOM      1  C   UNL     1       3.020   5.982  19.228  0.00  0.00    +0.000 C 
ENDROOT
BRANCH   1   2
ATOM      2  C   UNL     1       2.316   4.642  19.380  0.00  0.00    +0.000 A 
ATOM      3  C   UNL     1       2.000   3.883  18.240  0.00  0.00    +0.000 A 
ATOM      4  C   UNL     1       1.335   2.658  18.356  0.00  0.00    +0.000 A 
ATOM      5  C   UNL     1       0.974   2.181  19.613  0.00  0.00    +0.000 A 
ATOM      6  C   UNL     1       1.285   2.927  20.741  0.00  0.00    +0.000 A 
ATOM      7  F   UNL     1       0.936   2.470  21.952  0.00  0.00    +0.000 F 
ATOM      8  C   UNL     1       1.949   4.144  20.640  0.00  0.00    +0.000 A 
ENDBRANCH   1   2
BRANCH   1  11
ATOM      9  O   UNL     1       1.817   8.326  18.298  0.00  0.00    +0.000 OA
ATOM     10  C   UNL     1       1.765   8.093  19.504  0.00  0.00    +0.000 C 
ATOM     11  N   UNL     1       2.363   6.986  20.068  0.00  0.00    +0.000 N 
ATOM     12  H   UNL     1       2.205   6.751  21.035  0.00  0.00    +0.000 HD
BRANCH  10  13
ATOM     13  C   UNL     1       1.031   9.035  20.388  0.00  0.00    +0.000 A 
ATOM     14  C   UNL     1       1.252   8.930  21.768  0.00  0.00    +0.000 A 
ATOM     15  N   UNL     1       0.680   9.692  22.744  0.00  0.00    +0.000 NA
ATOM     16  C   UNL     1      -0.161  10.603  22.229  0.00  0.00    +0.000 A 
ATOM     17  N   UNL     1      -0.893  11.520  22.925  0.00  0.00    +0.000 N 
ATOM     18  C   UNL     1      -1.613  12.247  22.016  0.00  0.00    +0.000 A 
ATOM     19  N   UNL     1      -1.387  11.846  20.779  0.00  0.00    +0.000 NA
ATOM     20  C   UNL     1      -0.482  10.820  20.897  0.00  0.00    +0.000 A 
ATOM     21  C   UNL     1       0.131  10.007  19.928  0.00  0.00    +0.000 A 
ATOM     22  H   UNL     1      -0.890  11.626  23.929  0.00  0.00    +0.000 HD
ENDBRANCH  10  13
ENDBRANCH   1  11
BRANCH   1  23
ATOM     23  C   UNL     1       4.534   5.852  19.529  0.00  0.00    +0.000 C 
BRANCH  23  24
ATOM     24  C   UNL     1       5.372   5.598  18.295  0.00  0.00    +0.000 A 
ATOM     25  C   UNL     1       6.613   4.947  18.388  0.00  0.00    +0.000 A 
ATOM     26  C   UNL     1       7.347   4.647  17.238  0.00  0.00    +0.000 A 
ATOM     27  C   UNL     1       6.859   5.010  15.985  0.00  0.00    +0.000 A 
ATOM     28  C   UNL     1       5.650   5.689  15.895  0.00  0.00    +0.000 A 
ATOM     29  F   UNL     1       5.182   6.049  14.693  0.00  0.00    +0.000 F 
ATOM     30  C   UNL     1       4.908   5.990  17.033  0.00  0.00    +0.000 A 
ENDBRANCH  23  24
ENDBRANCH   1  23
TORSDOF 5
ENDMDL
MODEL 4
REMARK VINA RESULT:      -9.1      0.938      1.274
REMARK  Name = 
REMARK  5 active torsions:
REMARK  status: ('A' for Active; 'I' for Inactive)
REMARK    1  A    between atoms: C_2  and  C_20
REMARK    2  A    between atoms: N_3  and  C_4
REMARK    3  A    between atoms: C_4  and  C_5
REMARK    4  A    between atoms: C_4  and  C_13
REMARK    5  A    between atoms: C_5  and  C_6
REMARK                            x       y       z     vdW  Elec       q    Type
REMARK                         _______ _______ _______ _____ _____    ______ ____
ROOT
ATOM      1  C   UNL     1       2.831   6.302  18.814  0.00  0.00    +0.000 C 
ENDROOT
BRANCH   1   2
ATOM      2  C   UNL     1       2.219   4.927  19.029  0.00  0.00    +0.000 A 
ATOM      3  C   UNL     1       1.492   4.658  20.201  0.00  0.00    +0.000 A 
ATOM      4  C   UNL     1       0.939   3.395  20.428  0.00  0.00    +0.000 A 
ATOM      5  C   UNL     1       1.111   2.382  19.488  0.00  0.00    +0.000 A 
ATOM      6  C   UNL     1       1.828   2.644  18.328  0.00  0.00    +0.000 A 
ATOM      7  F   UNL     1       1.997   1.670  17.423  0.00  0.00    +0.000 F 
ATOM      8  C   UNL     1       2.379   3.897  18.089  0.00  0.00    +0.000 A 
ENDBRANCH   1   2
BRANCH   1  11
ATOM      9  O   UNL     1       2.084   8.816  17.852  0.00  0.00    +0.000 OA
ATOM     10  C   UNL     1       1.725   8.505  18.985  0.00  0.00    +0.000 C 
ATOM     11  N   UNL     1       2.077   7.306  19.568  0.00  0.00    +0.000 N 
ATOM     12  H   UNL     1       1.672   7.020  20.445  0.00  0.00    +0.000 HD
BRANCH  10  13
ATOM     13  C   UNL     1       0.879   9.453  19.759  0.00  0.00    +0.000 A 
ATOM     14  C   UNL     1       0.139  10.395  19.033  0.00  0.00    +0.000 A 
ATOM     15  N   UNL     1      -0.692  11.348  19.547  0.00  0.00    +0.000 NA
ATOM     16  C   UNL     1      -0.734  11.293  20.888  0.00  0.00    +0.000 A 
ATOM     17  N   UNL     1      -1.463  12.098  21.713  0.00  0.00    +0.000 N 
ATOM     18  C   UNL     1      -1.214  11.703  22.999  0.00  0.00    +0.000 A 
ATOM     19  N   UNL     1      -0.366  10.694  23.046  0.00  0.00    +0.000 NA
ATOM     20  C   UNL     1      -0.057  10.426  21.735  0.00  0.00    +0.000 A 
ATOM     21  C   UNL     1       0.788   9.464  21.158  0.00  0.00    +0.000 A 
ATOM     22  H   UNL     1      -2.069  12.846  21.408  0.00  0.00    +0.000 HD
ENDBRANCH  10  13
ENDBRANCH   1  11
BRANCH   1  23
ATOM     23  C   UNL     1       4.340   6.301  19.168  0.00  0.00    +0.000 C 
BRANCH  23  24
ATOM     24  C   UNL     1       5.222   5.818  18.038  0.00  0.00    +0.000 A 
ATOM     25  C   UNL     1       4.895   6.094  16.700  0.00  0.00    +0.000 A 
ATOM     26  C   UNL     1       5.753   5.712  15.665  0.00  0.00    +0.000 A 
ATOM     27  C   UNL     1       6.935   5.037  15.954  0.00  0.00    +0.000 A 
ATOM     28  C   UNL     1       7.241   4.729  17.274  0.00  0.00    +0.000 A 
ATOM     29  F   UNL     1       8.372   4.069  17.554  0.00  0.00    +0.000 F 
ATOM     30  C   UNL     1       6.397   5.107  18.313  0.00  0.00    +0.000 A 
ENDBRANCH  23  24
ENDBRANCH   1  23
TORSDOF 5
ENDMDL
MODEL 5
REMARK VINA RESULT:      -9.0      0.805      1.447
REMARK  Name = 
REMARK  5 active torsions:
REMARK  status: ('A' for Active; 'I' for Inactive)
REMARK    1  A    between atoms: C_2  and  C_20
REMARK    2  A    between atoms: N_3  and  C_4
REMARK    3  A    between atoms: C_4  and  C_5
REMARK    4  A    between atoms: C_4  and  C_13
REMARK    5  A    between atoms: C_5  and  C_6
REMARK                            x       y       z     vdW  Elec       q    Type
REMARK                         _______ _______ _______ _____ _____    ______ ____
ROOT
ATOM      1  C   UNL     1       2.794   6.463  18.536  0.00  0.00    +0.000 C 
ENDROOT
BRANCH   1   2
ATOM      2  C   UNL     1       2.206   5.104  18.882  0.00  0.00    +0.000 A 
ATOM      3  C   UNL     1       1.868   4.204  17.857  0.00  0.00    +0.000 A 
ATOM      4  C   UNL     1       1.308   2.958  18.153  0.00  0.00    +0.000 A 
ATOM      5  C   UNL     1       1.074   2.599  19.478  0.00  0.00    +0.000 A 
ATOM      6  C   UNL     1       1.407   3.484  20.494  0.00  0.00    +0.000 A 
ATOM      7  F   UNL     1       1.180   3.141  21.769  0.00  0.00    +0.000 F 
ATOM      8  C   UNL     1       1.968   4.724  20.213  0.00  0.00    +0.000 A 
ENDBRANCH   1   2
BRANCH   1  11
ATOM      9  O   UNL     1       2.110   8.910  17.373  0.00  0.00    +0.000 OA
ATOM     10  C   UNL     1       1.702   8.679  18.509  0.00  0.00    +0.000 C 
ATOM     11  N   UNL     1       2.018   7.521  19.187  0.00  0.00    +0.000 N 
ATOM     12  H   UNL     1       1.574   7.299  20.063  0.00  0.00    +0.000 HD
BRANCH  10  13
ATOM     13  C   UNL     1       0.833   9.683  19.179  0.00  0.00    +0.000 A 
ATOM     14  C   UNL     1       0.957   9.817  20.569  0.00  0.00    +0.000 A 
ATOM     15  N   UNL     1       0.257  10.672  21.369  0.00  0.00    +0.000 NA
ATOM     16  C   UNL     1      -0.610  11.413  20.659  0.00  0.00    +0.000 A 
ATOM     17  N   UNL     1      -1.460  12.362  21.148  0.00  0.00    +0.000 N 
ATOM     18  C   UNL     1      -2.162  12.869  20.089  0.00  0.00    +0.000 A 
ATOM     19  N   UNL     1      -1.813  12.299  18.952  0.00  0.00    +0.000 NA
ATOM     20  C   UNL     1      -0.845  11.387  19.292  0.00  0.00    +0.000 A 
ATOM     21  C   UNL     1      -0.101  10.488  18.511  0.00  0.00    +0.000 A 
ATOM     22  H   UNL     1      -1.540  12.625  22.120  0.00  0.00    +0.000 HD
ENDBRANCH  10  13
ENDBRANCH   1  11
BRANCH   1  23
ATOM     23  C   UNL     1       4.300   6.525  18.892  0.00  0.00    +0.000 C 
BRANCH  23  24
ATOM     24  C   UNL     1       5.191   5.890  17.848  0.00  0.00    +0.000 A 
ATOM     25  C   UNL     1       4.881   5.985  16.481  0.00  0.00    +0.000 A 
ATOM     26  C   UNL     1       5.747   5.463  15.516  0.00  0.00    +0.000 A 
ATOM     27  C   UNL     1       6.922   4.826  15.907  0.00  0.00    +0.000 A 
ATOM     28  C   UNL     1       7.211   4.697  17.260  0.00  0.00    +0.000 A 
ATOM     29  F   UNL     1       8.335   4.075  17.639  0.00  0.00    +0.000 F 
ATOM     30  C   UNL     1       6.358   5.216  18.229  0.00  0.00    +0.000 A 
ENDBRANCH  23  24
ENDBRANCH   1  23
TORSDOF 5
ENDMDL
MODEL 6
REMARK VINA RESULT:      -8.9      1.244      1.772
REMARK  Name = 
REMARK  5 active torsions:
REMARK  status: ('A' for Active; 'I' for Inactive)
REMARK    1  A    between atoms: C_2  and  C_20
REMARK    2  A    between atoms: N_3  and  C_4
REMARK    3  A    between atoms: C_4  and  C_5
REMARK    4  A    between atoms: C_4  and  C_13
REMARK    5  A    between atoms: C_5  and  C_6
REMARK                            x       y       z     vdW  Elec       q    Type
REMARK                         _______ _______ _______ _____ _____    ______ ____
ROOT
ATOM      1  C   UNL     1       3.074   5.980  19.188  0.00  0.00    +0.000 C 
ENDROOT
BRANCH   1   2
ATOM      2  C   UNL     1       2.365   4.733  19.692  0.00  0.00    +0.000 A 
ATOM      3  C   UNL     1       2.527   4.325  21.027  0.00  0.00    +0.000 A 
ATOM      4  C   UNL     1       1.901   3.170  21.504  0.00  0.00    +0.000 A 
ATOM      5  C   UNL     1       1.109   2.406  20.651  0.00  0.00    +0.000 A 
ATOM      6  C   UNL     1       0.945   2.806  19.332  0.00  0.00    +0.000 A 
ATOM      7  F   UNL     1       0.185   2.071  18.508  0.00  0.00    +0.000 F 
ATOM      8  C   UNL     1       1.560   3.954  18.846  0.00  0.00    +0.000 A 
ENDBRANCH   1   2
BRANCH   1  11
ATOM      9  O   UNL     1       2.031   8.138  17.753  0.00  0.00    +0.000 OA
ATOM     10  C   UNL     1       1.943   8.167  18.978  0.00  0.00    +0.000 C 
ATOM     11  N   UNL     1       2.464   7.173  19.779  0.00  0.00    +0.000 N 
ATOM     12  H   UNL     1       2.274   7.155  20.768  0.00  0.00    +0.000 HD
BRANCH  10  13
ATOM     13  C   UNL     1       1.250   9.313  19.624  0.00  0.00    +0.000 A 
ATOM     14  C   UNL     1       0.936  10.415  18.816  0.00  0.00    +0.000 A 
ATOM     15  N   UNL     1       0.307  11.559  19.210  0.00  0.00    +0.000 NA
ATOM     16  C   UNL     1       0.002  11.529  20.517  0.00  0.00    +0.000 A 
ATOM     17  N   UNL     1      -0.628  12.507  21.228  0.00  0.00    +0.000 N 
ATOM     18  C   UNL     1      -0.740  12.070  22.520  0.00  0.00    +0.000 A 
ATOM     19  N   UNL     1      -0.215  10.870  22.678  0.00  0.00    +0.000 NA
ATOM     20  C   UNL     1       0.252  10.519  21.435  0.00  0.00    +0.000 A 
ATOM     21  C   UNL     1       0.905   9.360  20.982  0.00  0.00    +0.000 A 
ATOM     22  H   UNL     1      -0.947  13.388  20.850  0.00  0.00    +0.000 HD
ENDBRANCH  10  13
ENDBRANCH   1  11
BRANCH   1  23
ATOM     23  C   UNL     1       4.599   5.899  19.453  0.00  0.00    +0.000 C 
BRANCH  23  24
ATOM     24  C   UNL     1       5.394   5.439  18.251  0.00  0.00    +0.000 A 
ATOM     25  C   UNL     1       6.759   5.128  18.366  0.00  0.00    +0.000 A 
ATOM     26  C   UNL     1       7.470   4.631  17.270  0.00  0.00    +0.000 A 
ATOM     27  C   UNL     1       6.830   4.456  16.046  0.00  0.00    +0.000 A 
ATOM     28  C   UNL     1       5.490   4.800  15.921  0.00  0.00    +0.000 A 
ATOM     29  F   UNL     1       4.875   4.645  14.741  0.00  0.00    +0.000 F 
ATOM     30  C   UNL     1       4.770   5.293  17.005  0.00  0.00    +0.000 A 
ENDBRANCH  23  24
ENDBRANCH   1  23
TORSDOF 5
ENDMDL
MODEL 7
REMARK VINA RESULT:      -8.9      1.472      2.227
REMARK  Name = 
REMARK  5 active torsions:
REMARK  status: ('A' for Active; 'I' for Inactive)
REMARK    1  A    between atoms: C_2  and  C_20
REMARK    2  A    between atoms: N_3  and  C_4
REMARK    3  A    between atoms: C_4  and  C_5
REMARK    4  A    between atoms: C_4  and  C_13
REMARK    5  A    between atoms: C_5  and  C_6
REMARK                            x       y       z     vdW  Elec       q    Type
REMARK                         _______ _______ _______ _____ _____    ______ ____
ROOT
ATOM      1  C   UNL     1       2.956   6.083  19.108  0.00  0.00    +0.000 C 
ENDROOT
BRANCH   1   2
ATOM      2  C   UNL     1       2.283   4.719  19.123  0.00  0.00    +0.000 A 
ATOM      3  C   UNL     1       1.410   4.379  20.171  0.00  0.00    +0.000 A 
ATOM      4  C   UNL     1       0.797   3.124  20.214  0.00  0.00    +0.000 A 
ATOM      5  C   UNL     1       1.054   2.190  19.213  0.00  0.00    +0.000 A 
ATOM      6  C   UNL     1       1.914   2.523  18.176  0.00  0.00    +0.000 A 
ATOM      7  F   UNL     1       2.164   1.625  17.212  0.00  0.00    +0.000 F 
ATOM      8  C   UNL     1       2.527   3.769  18.119  0.00  0.00    +0.000 A 
ENDBRANCH   1   2
BRANCH   1  11
ATOM      9  O   UNL     1       2.082   8.651  18.442  0.00  0.00    +0.000 OA
ATOM     10  C   UNL     1       1.827   8.232  19.569  0.00  0.00    +0.000 C 
ATOM     11  N   UNL     1       2.251   6.996  20.009  0.00  0.00    +0.000 N 
ATOM     12  H   UNL     1       1.928   6.624  20.888  0.00  0.00    +0.000 HD
BRANCH  10  13
ATOM     13  C   UNL     1       1.034   9.085  20.492  0.00  0.00    +0.000 A 
ATOM     14  C   UNL     1       1.221   8.894  21.868  0.00  0.00    +0.000 A 
ATOM     15  N   UNL     1       0.595   9.567  22.875  0.00  0.00    +0.000 NA
ATOM     16  C   UNL     1      -0.267  10.480  22.397  0.00  0.00    +0.000 A 
ATOM     17  N   UNL     1      -1.052  11.320  23.131  0.00  0.00    +0.000 N 
ATOM     18  C   UNL     1      -1.774  12.080  22.252  0.00  0.00    +0.000 A 
ATOM     19  N   UNL     1      -1.500  11.773  20.999  0.00  0.00    +0.000 NA
ATOM     20  C   UNL     1      -0.560  10.774  21.074  0.00  0.00    +0.000 A 
ATOM     21  C   UNL     1       0.110  10.053  20.072  0.00  0.00    +0.000 A 
ATOM     22  H   UNL     1      -1.079  11.357  24.140  0.00  0.00    +0.000 HD
ENDBRANCH  10  13
ENDBRANCH   1  11
BRANCH   1  23
ATOM     23  C   UNL     1       4.464   5.962  19.443  0.00  0.00    +0.000 C 
BRANCH  23  24
ATOM     24  C   UNL     1       5.328   5.681  18.233  0.00  0.00    +0.000 A 
ATOM     25  C   UNL     1       6.545   4.992  18.361  0.00  0.00    +0.000 A 
ATOM     26  C   UNL     1       7.301   4.668  17.231  0.00  0.00    +0.000 A 
ATOM     27  C   UNL     1       6.859   5.044  15.966  0.00  0.00    +0.000 A 
ATOM     28  C   UNL     1       5.675   5.760  15.841  0.00  0.00    +0.000 A 
ATOM     29  F   UNL     1       5.253   6.134  14.626  0.00  0.00    +0.000 F 
ATOM     30  C   UNL     1       4.911   6.085  16.958  0.00  0.00    +0.000 A 
ENDBRANCH  23  24
ENDBRANCH   1  23
TORSDOF 5
ENDMDL
MODEL 8
REMARK VINA RESULT:      -8.9      1.223      1.950
REMARK  Name = 
REMARK  5 active torsions:
REMARK  status: ('A' for Active; 'I' for Inactive)
REMARK    1  A    between atoms: C_2  and  C_20
REMARK    2  A    between atoms: N_3  and  C_4
REMARK    3  A    between atoms: C_4  and  C_5
REMARK    4  A    between atoms: C_4  and  C_13
REMARK    5  A    between atoms: C_5  and  C_6
REMARK                            x       y       z     vdW  Elec       q    Type
REMARK                         _______ _______ _______ _____ _____    ______ ____
ROOT
ATOM      1  C   UNL     1       2.947   6.120  18.697  0.00  0.00    +0.000 C 
ENDROOT
BRANCH   1   2
ATOM      2  C   UNL     1       2.236   4.835  19.091  0.00  0.00    +0.000 A 
ATOM      3  C   UNL     1       1.687   4.004  18.100  0.00  0.00    +0.000 A 
ATOM      4  C   UNL     1       1.012   2.829  18.442  0.00  0.00    +0.000 A 
ATOM      5  C   UNL     1       0.872   2.473  19.781  0.00  0.00    +0.000 A 
ATOM      6  C   UNL     1       1.413   3.291  20.764  0.00  0.00    +0.000 A 
ATOM      7  F   UNL     1       1.278   2.951  22.053  0.00  0.00    +0.000 F 
ATOM      8  C   UNL     1       2.091   4.459  20.436  0.00  0.00    +0.000 A 
ENDBRANCH   1   2
BRANCH   1  11
ATOM      9  O   UNL     1       2.436   8.520  17.361  0.00  0.00    +0.000 OA
ATOM     10  C   UNL     1       2.011   8.399  18.508  0.00  0.00    +0.000 C 
ATOM     11  N   UNL     1       2.246   7.272  19.267  0.00  0.00    +0.000 N 
ATOM     12  H   UNL     1       1.787   7.143  20.155  0.00  0.00    +0.000 HD
BRANCH  10  13
ATOM     13  C   UNL     1       1.213   9.505  19.101  0.00  0.00    +0.000 A 
ATOM     14  C   UNL     1       0.734   9.326  20.406  0.00  0.00    +0.000 A 
ATOM     15  N   UNL     1      -0.013  10.212  21.127  0.00  0.00    +0.000 NA
ATOM     16  C   UNL     1      -0.260  11.331  20.428  0.00  0.00    +0.000 A 
ATOM     17  N   UNL     1      -0.974  12.413  20.851  0.00  0.00    +0.000 N 
ATOM     18  C   UNL     1      -0.982  13.326  19.831  0.00  0.00    +0.000 A 
ATOM     19  N   UNL     1      -0.317  12.889  18.779  0.00  0.00    +0.000 NA
ATOM     20  C   UNL     1       0.140  11.644  19.136  0.00  0.00    +0.000 A 
ATOM     21  C   UNL     1       0.906  10.699  18.434  0.00  0.00    +0.000 A 
ATOM     22  H   UNL     1      -1.411  12.504  21.757  0.00  0.00    +0.000 HD
ENDBRANCH  10  13
ENDBRANCH   1  11
BRANCH   1  23
ATOM     23  C   UNL     1       4.442   6.075  19.100  0.00  0.00    +0.000 C 
BRANCH  23  24
ATOM     24  C   UNL     1       5.348   5.579  17.994  0.00  0.00    +0.000 A 
ATOM     25  C   UNL     1       6.643   5.114  18.277  0.00  0.00    +0.000 A 
ATOM     26  C   UNL     1       7.447   4.586  17.262  0.00  0.00    +0.000 A 
ATOM     27  C   UNL     1       6.973   4.534  15.954  0.00  0.00    +0.000 A 
ATOM     28  C   UNL     1       5.707   5.030  15.667  0.00  0.00    +0.000 A 
ATOM     29  F   UNL     1       5.252   4.992  14.407  0.00  0.00    +0.000 F 
ATOM     30  C   UNL     1       4.896   5.554  16.669  0.00  0.00    +0.000 A 
ENDBRANCH  23  24
ENDBRANCH   1  23
TORSDOF 5
ENDMDL
MODEL 9
REMARK VINA RESULT:      -8.9      1.855      2.073
REMARK  Name = 
REMARK  5 active torsions:
REMARK  status: ('A' for Active; 'I' for Inactive)
REMARK    1  A    between atoms: C_2  and  C_20
REMARK    2  A    between atoms: N_3  and  C_4
REMARK    3  A    between atoms: C_4  and  C_5
REMARK    4  A    between atoms: C_4  and  C_13
REMARK    5  A    between atoms: C_5  and  C_6
REMARK                            x       y       z     vdW  Elec       q    Type
REMARK                         _______ _______ _______ _____ _____    ______ ____
ROOT
ATOM      1  C   UNL     1       2.761   6.333  18.448  0.00  0.00    +0.000 C 
ENDROOT
BRANCH   1   2
ATOM      2  C   UNL     1       2.177   5.134  19.180  0.00  0.00    +0.000 A 
ATOM      3  C   UNL     1       2.337   5.016  20.571  0.00  0.00    +0.000 A 
ATOM      4  C   UNL     1       1.827   3.912  21.260  0.00  0.00    +0.000 A 
ATOM      5  C   UNL     1       1.154   2.910  20.565  0.00  0.00    +0.000 A 
ATOM      6  C   UNL     1       0.994   3.023  19.191  0.00  0.00    +0.000 A 
ATOM      7  F   UNL     1       0.349   2.059  18.520  0.00  0.00    +0.000 F 
ATOM      8  C   UNL     1       1.493   4.118  18.495  0.00  0.00    +0.000 A 
ENDBRANCH   1   2
BRANCH   1  11
ATOM      9  O   UNL     1       2.741   8.671  16.920  0.00  0.00    +0.000 OA
ATOM     10  C   UNL     1       2.004   8.621  17.902  0.00  0.00    +0.000 C 
ATOM     11  N   UNL     1       1.971   7.530  18.745  0.00  0.00    +0.000 N 
ATOM     12  H   UNL     1       1.275   7.459  19.470  0.00  0.00    +0.000 HD
BRANCH  10  13
ATOM     13  C   UNL     1       1.114   9.775  18.195  0.00  0.00    +0.000 A 
ATOM     14  C   UNL     1      -0.250   9.625  17.913  0.00  0.00    +0.000 A 
ATOM     15  N   UNL     1      -1.228  10.557  18.104  0.00  0.00    +0.000 NA
ATOM     16  C   UNL     1      -0.731  11.694  18.617  0.00  0.00    +0.000 A 
ATOM     17  N   UNL     1      -1.434  12.821  18.929  0.00  0.00    +0.000 N 
ATOM     18  C   UNL     1      -0.544  13.737  19.422  0.00  0.00    +0.000 A 
ATOM     19  N   UNL     1       0.687  13.263  19.440  0.00  0.00    +0.000 NA
ATOM     20  C   UNL     1       0.586  11.988  18.940  0.00  0.00    +0.000 A 
ATOM     21  C   UNL     1       1.557  10.997  18.722  0.00  0.00    +0.000 A 
ATOM     22  H   UNL     1      -2.430  12.937  18.810  0.00  0.00    +0.000 HD
ENDBRANCH  10  13
ENDBRANCH   1  11
BRANCH   1  23
ATOM     23  C   UNL     1       4.263   6.512  18.784  0.00  0.00    +0.000 C 
BRANCH  23  24
ATOM     24  C   UNL     1       5.185   5.836  17.794  0.00  0.00    +0.000 A 
ATOM     25  C   UNL     1       4.891   5.834  16.420  0.00  0.00    +0.000 A 
ATOM     26  C   UNL     1       5.784   5.275  15.502  0.00  0.00    +0.000 A 
ATOM     27  C   UNL     1       6.970   4.697  15.947  0.00  0.00    +0.000 A 
ATOM     28  C   UNL     1       7.243   4.663  17.309  0.00  0.00    +0.000 A 
ATOM     29  F   UNL     1       8.377   4.097  17.742  0.00  0.00    +0.000 F 
ATOM     30  C   UNL     1       6.363   5.220  18.233  0.00  0.00    +0.000 A 
ENDBRANCH  23  24
ENDBRANCH   1  23
TORSDOF 5
ENDMDL
