MODEL 1
REMARK VINA RESULT:      -8.7      0.000      0.000
REMARK  Name = 
REMARK  5 active torsions:
REMARK  status: ('A' for Active; 'I' for Inactive)
REMARK    1  A    between atoms: C_1  and  C_2
REMARK    2  A    between atoms: C_4  and  N_5
REMARK    3  A    between atoms: C_6  and  C_8
REMARK    4  A    between atoms: C_13  and  C_14
REMARK    5  A    between atoms: C_22  and  N_23
REMARK                            x       y       z     vdW  Elec       q    Type
REMARK                         _______ _______ _______ _____ _____    ______ ____
ROOT
ATOM      1  N   UNL     1       2.177   7.111  18.480  0.00  0.00    +0.000 N 
ATOM      2  C   UNL     1       2.387   6.104  19.423  0.00  0.00    +0.000 C 
ATOM      3  O   UNL     1       2.426   6.259  20.636  0.00  0.00    +0.000 OA
ATOM      4  H   UNL     1       2.258   6.867  17.503  0.00  0.00    +0.000 HD
ENDROOT
BRANCH   1   8
ATOM      5  C   UNL     1      -0.136  10.582  21.198  0.00  0.00    +0.000 C 
ATOM      6  C   UNL     1       0.785  10.237  20.061  0.00  0.00    +0.000 A 
ATOM      7  C   UNL     1       1.133   8.882  19.864  0.00  0.00    +0.000 A 
ATOM      8  C   UNL     1       1.856   8.468  18.744  0.00  0.00    +0.000 A 
ATOM      9  C   UNL     1       2.247   9.437  17.811  0.00  0.00    +0.000 A 
ATOM     10  C   UNL     1       1.930  10.792  18.006  0.00  0.00    +0.000 A 
ATOM     11  C   UNL     1       1.219  11.203  19.138  0.00  0.00    +0.000 A 
BRANCH  11  12
ATOM     12  N   UNL     1       0.920  12.570  19.344  0.00  0.00    +0.000 N 
ATOM     13  C   UNL     1       1.959  13.486  19.754  0.00  0.00    +0.000 C 
ATOM     14  C   UNL     1       1.221  14.798  19.924  0.00  0.00    +0.000 C 
ATOM     15  C   UNL     1       0.146  14.737  18.848  0.00  0.00    +0.000 C 
ATOM     16  C   UNL     1      -0.088  13.254  18.659  0.00  0.00    +0.000 C 
ATOM     17  O   UNL     1      -1.005  12.783  18.002  0.00  0.00    +0.000 OA
ENDBRANCH  11  12
ENDBRANCH   1   8
BRANCH   2  18
ATOM     18  C   UNL     1       2.645   4.734  18.864  0.00  0.00    +0.000 A 
ATOM     19  C   UNL     1       1.540   3.853  18.852  0.00  0.00    +0.000 A 
ATOM     20  C   UNL     1       1.625   2.596  18.257  0.00  0.00    +0.000 A 
ATOM     21  C   UNL     1       2.811   2.201  17.664  0.00  0.00    +0.000 A 
ATOM     22  C   UNL     1       3.915   3.057  17.678  0.00  0.00    +0.000 A 
ATOM     23  C   UNL     1       3.878   4.352  18.261  0.00  0.00    +0.000 A 
BRANCH  23  24
ATOM     24  C   UNL     1       5.113   5.195  18.179  0.00  0.00    +0.000 A 
ATOM     25  C   UNL     1       6.150   5.065  19.134  0.00  0.00    +0.000 A 
ATOM     26  C   UNL     1       7.324   5.826  19.070  0.00  0.00    +0.000 A 
ATOM     27  C   UNL     1       7.511   6.725  18.028  0.00  0.00    +0.000 A 
ATOM     28  C   UNL     1       6.504   6.892  17.084  0.00  0.00    +0.000 A 
ATOM     29  C   UNL     1       5.312   6.162  17.180  0.00  0.00    +0.000 A 
ENDBRANCH  23  24
ENDBRANCH   2  18
TORSDOF 4
ENDMDL
MODEL 2
REMARK VINA RESULT:      -8.5      1.819      3.391
REMARK  Name = 
REMARK  5 active torsions:
REMARK  status: ('A' for Active; 'I' for Inactive)
REMARK    1  A    between atoms: C_1  and  C_2
REMARK    2  A    between atoms: C_4  and  N_5
REMARK    3  A    between atoms: C_6  and  C_8
REMARK    4  A    between atoms: C_13  and  C_14
REMARK    5  A    between atoms: C_22  and  N_23
REMARK                            x       y       z     vdW  Elec       q    Type
REMARK                         _______ _______ _______ _____ _____    ______ ____
ROOT
ATOM      1  N   UNL     1       2.755   7.670  17.722  0.00  0.00    +0.000 N 
ATOM      2  C   UNL     1       3.635   6.711  18.223  0.00  0.00    +0.000 C 
ATOM      3  O   UNL     1       4.000   6.615  19.387  0.00  0.00    +0.000 OA
ATOM      4  H   UNL     1       2.605   7.698  16.723  0.00  0.00    +0.000 HD
ENDROOT
BRANCH   1   8
ATOM      5  C   UNL     1      -0.134   8.894  21.588  0.00  0.00    +0.000 C 
ATOM      6  C   UNL     1       0.647   9.320  20.376  0.00  0.00    +0.000 A 
ATOM      7  C   UNL     1       1.406   8.348  19.688  0.00  0.00    +0.000 A 
ATOM      8  C   UNL     1       2.031   8.633  18.473  0.00  0.00    +0.000 A 
ATOM      9  C   UNL     1       1.899   9.924  17.946  0.00  0.00    +0.000 A 
ATOM     10  C   UNL     1       1.169  10.910  18.631  0.00  0.00    +0.000 A 
ATOM     11  C   UNL     1       0.558  10.622  19.855  0.00  0.00    +0.000 A 
BRANCH  11  12
ATOM     12  N   UNL     1      -0.159  11.621  20.555  0.00  0.00    +0.000 N 
ATOM     13  C   UNL     1       0.550  12.632  21.305  0.00  0.00    +0.000 C 
ATOM     14  C   UNL     1      -0.563  13.441  21.939  0.00  0.00    +0.000 C 
ATOM     15  C   UNL     1      -1.669  13.394  20.895  0.00  0.00    +0.000 C 
ATOM     16  C   UNL     1      -1.410  12.100  20.155  0.00  0.00    +0.000 C 
ATOM     17  O   UNL     1      -2.182  11.605  19.348  0.00  0.00    +0.000 OA
ENDBRANCH  11  12
ENDBRANCH   1   8
BRANCH   2  18
ATOM     18  C   UNL     1       4.216   5.767  17.209  0.00  0.00    +0.000 A 
ATOM     19  C   UNL     1       5.089   6.342  16.258  0.00  0.00    +0.000 A 
ATOM     20  C   UNL     1       5.777   5.552  15.338  0.00  0.00    +0.000 A 
ATOM     21  C   UNL     1       5.604   4.179  15.356  0.00  0.00    +0.000 A 
ATOM     22  C   UNL     1       4.736   3.598  16.284  0.00  0.00    +0.000 A 
ATOM     23  C   UNL     1       4.021   4.357  17.248  0.00  0.00    +0.000 A 
BRANCH  23  24
ATOM     24  C   UNL     1       3.149   3.618  18.216  0.00  0.00    +0.000 A 
ATOM     25  C   UNL     1       3.654   3.172  19.461  0.00  0.00    +0.000 A 
ATOM     26  C   UNL     1       2.855   2.497  20.393  0.00  0.00    +0.000 A 
ATOM     27  C   UNL     1       1.513   2.271  20.120  0.00  0.00    +0.000 A 
ATOM     28  C   UNL     1       0.988   2.678  18.898  0.00  0.00    +0.000 A 
ATOM     29  C   UNL     1       1.804   3.311  17.951  0.00  0.00    +0.000 A 
ENDBRANCH  23  24
ENDBRANCH   2  18
TORSDOF 4
ENDMDL
MODEL 3
REMARK VINA RESULT:      -8.4      1.858      3.609
REMARK  Name = 
REMARK  5 active torsions:
REMARK  status: ('A' for Active; 'I' for Inactive)
REMARK    1  A    between atoms: C_1  and  C_2
REMARK    2  A    between atoms: C_4  and  N_5
REMARK    3  A    between atoms: C_6  and  C_8
REMARK    4  A    between atoms: C_13  and  C_14
REMARK    5  A    between atoms: C_22  and  N_23
REMARK                            x       y       z     vdW  Elec       q    Type
REMARK                         _______ _______ _______ _____ _____    ______ ____
ROOT
ATOM      1  N   UNL     1       2.148   8.394  17.678  0.00  0.00    +0.000 N 
ATOM      2  C   UNL     1       2.690   7.322  18.389  0.00  0.00    +0.000 C 
ATOM      3  O   UNL     1       2.586   7.139  19.594  0.00  0.00    +0.000 OA
ATOM      4  H   UNL     1       2.383   8.478  16.699  0.00  0.00    +0.000 HD
ENDROOT
BRANCH   1   8
ATOM      5  C   UNL     1      -2.303  10.617  17.868  0.00  0.00    +0.000 C 
ATOM      6  C   UNL     1      -0.887  10.519  18.368  0.00  0.00    +0.000 A 
ATOM      7  C   UNL     1      -0.076   9.467  17.888  0.00  0.00    +0.000 A 
ATOM      8  C   UNL     1       1.286   9.400  18.186  0.00  0.00    +0.000 A 
ATOM      9  C   UNL     1       1.839  10.404  18.991  0.00  0.00    +0.000 A 
ATOM     10  C   UNL     1       1.040  11.443  19.498  0.00  0.00    +0.000 A 
ATOM     11  C   UNL     1      -0.327  11.496  19.208  0.00  0.00    +0.000 A 
BRANCH  11  12
ATOM     12  N   UNL     1      -1.136  12.529  19.736  0.00  0.00    +0.000 N 
ATOM     13  C   UNL     1      -1.768  12.369  21.025  0.00  0.00    +0.000 C 
ATOM     14  C   UNL     1      -2.574  13.643  21.179  0.00  0.00    +0.000 C 
ATOM     15  C   UNL     1      -1.718  14.687  20.476  0.00  0.00    +0.000 C 
ATOM     16  C   UNL     1      -0.941  13.884  19.454  0.00  0.00    +0.000 C 
ATOM     17  O   UNL     1      -0.265  14.379  18.566  0.00  0.00    +0.000 OA
ENDBRANCH  11  12
ENDBRANCH   1   8
BRANCH   2  18
ATOM     18  C   UNL     1       3.519   6.361  17.585  0.00  0.00    +0.000 A 
ATOM     19  C   UNL     1       4.386   6.940  16.631  0.00  0.00    +0.000 A 
ATOM     20  C   UNL     1       5.285   6.162  15.905  0.00  0.00    +0.000 A 
ATOM     21  C   UNL     1       5.335   4.795  16.123  0.00  0.00    +0.000 A 
ATOM     22  C   UNL     1       4.476   4.208  17.056  0.00  0.00    +0.000 A 
ATOM     23  C   UNL     1       3.550   4.958  17.829  0.00  0.00    +0.000 A 
BRANCH  23  24
ATOM     24  C   UNL     1       2.709   4.222  18.826  0.00  0.00    +0.000 A 
ATOM     25  C   UNL     1       3.176   3.982  20.140  0.00  0.00    +0.000 A 
ATOM     26  C   UNL     1       2.402   3.314  21.098  0.00  0.00    +0.000 A 
ATOM     27  C   UNL     1       1.121   2.888  20.779  0.00  0.00    +0.000 A 
ATOM     28  C   UNL     1       0.637   3.089  19.490  0.00  0.00    +0.000 A 
ATOM     29  C   UNL     1       1.433   3.716  18.523  0.00  0.00    +0.000 A 
ENDBRANCH  23  24
ENDBRANCH   2  18
TORSDOF 4
ENDMDL
MODEL 4
REMARK VINA RESULT:      -8.4      1.932      3.443
REMARK  Name = 
REMARK  5 active torsions:
REMARK  status: ('A' for Active; 'I' for Inactive)
REMARK    1  A    between atoms: C_1  and  C_2
REMARK    2  A    between atoms: C_4  and  N_5
REMARK    3  A    between atoms: C_6  and  C_8
REMARK    4  A    between atoms: C_13  and  C_14
REMARK    5  A    between atoms: C_22  and  N_23
REMARK                            x       y       z     vdW  Elec       q    Type
REMARK                         _______ _______ _______ _____ _____    ______ ____
ROOT
ATOM      1  N   UNL     1       2.742   7.190  17.773  0.00  0.00    +0.000 N 
ATOM      2  C   UNL     1       4.110   7.060  17.534  0.00  0.00    +0.000 C 
ATOM      3  O   UNL     1       4.966   7.889  17.812  0.00  0.00    +0.000 OA
ATOM      4  H   UNL     1       2.129   6.472  17.413  0.00  0.00    +0.000 HD
ENDROOT
BRANCH   1   8
ATOM      5  C   UNL     1       0.379   8.910  21.803  0.00  0.00    +0.000 C 
ATOM      6  C   UNL     1       0.971   9.171  20.446  0.00  0.00    +0.000 A 
ATOM      7  C   UNL     1       1.658   8.121  19.798  0.00  0.00    +0.000 A 
ATOM      8  C   UNL     1       2.100   8.240  18.479  0.00  0.00    +0.000 A 
ATOM      9  C   UNL     1       1.856   9.443  17.804  0.00  0.00    +0.000 A 
ATOM     10  C   UNL     1       1.197  10.507  18.444  0.00  0.00    +0.000 A 
ATOM     11  C   UNL     1       0.770  10.386  19.770  0.00  0.00    +0.000 A 
BRANCH  11  12
ATOM     12  N   UNL     1       0.126  11.465  20.420  0.00  0.00    +0.000 N 
ATOM     13  C   UNL     1       0.908  12.525  21.016  0.00  0.00    +0.000 C 
ATOM     14  C   UNL     1      -0.139  13.418  21.648  0.00  0.00    +0.000 C 
ATOM     15  C   UNL     1      -1.321  13.301  20.696  0.00  0.00    +0.000 C 
ATOM     16  C   UNL     1      -1.141  11.936  20.068  0.00  0.00    +0.000 C 
ATOM     17  O   UNL     1      -1.981  11.387  19.370  0.00  0.00    +0.000 OA
ENDBRANCH  11  12
ENDBRANCH   1   8
BRANCH   2  18
ATOM     18  C   UNL     1       4.529   5.809  16.816  0.00  0.00    +0.000 A 
ATOM     19  C   UNL     1       5.468   5.978  15.773  0.00  0.00    +0.000 A 
ATOM     20  C   UNL     1       6.017   4.883  15.110  0.00  0.00    +0.000 A 
ATOM     21  C   UNL     1       5.640   3.604  15.479  0.00  0.00    +0.000 A 
ATOM     22  C   UNL     1       4.705   3.421  16.501  0.00  0.00    +0.000 A 
ATOM     23  C   UNL     1       4.125   4.503  17.215  0.00  0.00    +0.000 A 
BRANCH  23  24
ATOM     24  C   UNL     1       3.163   4.181  18.318  0.00  0.00    +0.000 A 
ATOM     25  C   UNL     1       1.859   3.710  18.035  0.00  0.00    +0.000 A 
ATOM     26  C   UNL     1       0.947   3.383  19.046  0.00  0.00    +0.000 A 
ATOM     27  C   UNL     1       1.322   3.489  20.378  0.00  0.00    +0.000 A 
ATOM     28  C   UNL     1       2.590   3.967  20.693  0.00  0.00    +0.000 A 
ATOM     29  C   UNL     1       3.481   4.337  19.677  0.00  0.00    +0.000 A 
ENDBRANCH  23  24
ENDBRANCH   2  18
TORSDOF 4
ENDMDL
MODEL 5
REMARK VINA RESULT:      -8.3      0.910      1.170
REMARK  Name = 
REMARK  5 active torsions:
REMARK  status: ('A' for Active; 'I' for Inactive)
REMARK    1  A    between atoms: C_1  and  C_2
REMARK    2  A    between atoms: C_4  and  N_5
REMARK    3  A    between atoms: C_6  and  C_8
REMARK    4  A    between atoms: C_13  and  C_14
REMARK    5  A    between atoms: C_22  and  N_23
REMARK                            x       y       z     vdW  Elec       q    Type
REMARK                         _______ _______ _______ _____ _____    ______ ____
ROOT
ATOM      1  N   UNL     1       2.167   7.130  18.479  0.00  0.00    +0.000 N 
ATOM      2  C   UNL     1       2.350   6.121  19.425  0.00  0.00    +0.000 C 
ATOM      3  O   UNL     1       2.366   6.274  20.638  0.00  0.00    +0.000 OA
ATOM      4  H   UNL     1       2.266   6.886  17.503  0.00  0.00    +0.000 HD
ENDROOT
BRANCH   1   8
ATOM      5  C   UNL     1      -0.237  10.613  21.101  0.00  0.00    +0.000 C 
ATOM      6  C   UNL     1       0.740  10.263  20.011  0.00  0.00    +0.000 A 
ATOM      7  C   UNL     1       1.077   8.905  19.821  0.00  0.00    +0.000 A 
ATOM      8  C   UNL     1       1.853   8.490  18.738  0.00  0.00    +0.000 A 
ATOM      9  C   UNL     1       2.308   9.460  17.837  0.00  0.00    +0.000 A 
ATOM     10  C   UNL     1       2.003  10.819  18.026  0.00  0.00    +0.000 A 
ATOM     11  C   UNL     1       1.237  11.230  19.122  0.00  0.00    +0.000 A 
BRANCH  11  12
ATOM     12  N   UNL     1       0.949  12.600  19.325  0.00  0.00    +0.000 N 
ATOM     13  C   UNL     1      -0.303  13.155  18.863  0.00  0.00    +0.000 C 
ATOM     14  C   UNL     1      -0.183  14.625  19.209  0.00  0.00    +0.000 C 
ATOM     15  C   UNL     1       0.629  14.616  20.497  0.00  0.00    +0.000 C 
ATOM     16  C   UNL     1       1.443  13.344  20.399  0.00  0.00    +0.000 C 
ATOM     17  O   UNL     1       2.356  13.056  21.158  0.00  0.00    +0.000 OA
ENDBRANCH  11  12
ENDBRANCH   1   8
BRANCH   2  18
ATOM     18  C   UNL     1       2.607   4.748  18.870  0.00  0.00    +0.000 A 
ATOM     19  C   UNL     1       1.507   3.861  18.881  0.00  0.00    +0.000 A 
ATOM     20  C   UNL     1       1.589   2.601  18.292  0.00  0.00    +0.000 A 
ATOM     21  C   UNL     1       2.769   2.209  17.682  0.00  0.00    +0.000 A 
ATOM     22  C   UNL     1       3.868   3.072  17.673  0.00  0.00    +0.000 A 
ATOM     23  C   UNL     1       3.832   4.370  18.249  0.00  0.00    +0.000 A 
BRANCH  23  24
ATOM     24  C   UNL     1       5.061   5.219  18.143  0.00  0.00    +0.000 A 
ATOM     25  C   UNL     1       6.108   5.112  19.089  0.00  0.00    +0.000 A 
ATOM     26  C   UNL     1       7.276   5.879  19.002  0.00  0.00    +0.000 A 
ATOM     27  C   UNL     1       7.447   6.762  17.945  0.00  0.00    +0.000 A 
ATOM     28  C   UNL     1       6.430   6.908  17.008  0.00  0.00    +0.000 A 
ATOM     29  C   UNL     1       5.244   6.172  17.126  0.00  0.00    +0.000 A 
ENDBRANCH  23  24
ENDBRANCH   2  18
TORSDOF 4
ENDMDL
MODEL 6
REMARK VINA RESULT:      -8.3      1.925      3.738
REMARK  Name = 
REMARK  5 active torsions:
REMARK  status: ('A' for Active; 'I' for Inactive)
REMARK    1  A    between atoms: C_1  and  C_2
REMARK    2  A    between atoms: C_4  and  N_5
REMARK    3  A    between atoms: C_6  and  C_8
REMARK    4  A    between atoms: C_13  and  C_14
REMARK    5  A    between atoms: C_22  and  N_23
REMARK                            x       y       z     vdW  Elec       q    Type
REMARK                         _______ _______ _______ _____ _____    ______ ____
ROOT
ATOM      1  N   UNL     1       2.538   8.245  17.704  0.00  0.00    +0.000 N 
ATOM      2  C   UNL     1       3.077   7.126  18.340  0.00  0.00    +0.000 C 
ATOM      3  O   UNL     1       3.073   6.919  19.546  0.00  0.00    +0.000 OA
ATOM      4  H   UNL     1       2.687   8.340  16.709  0.00  0.00    +0.000 HD
ENDROOT
BRANCH   1   8
ATOM      5  C   UNL     1       1.848  13.065  18.743  0.00  0.00    +0.000 C 
ATOM      6  C   UNL     1       1.358  11.645  18.823  0.00  0.00    +0.000 A 
ATOM      7  C   UNL     1       2.094  10.641  18.156  0.00  0.00    +0.000 A 
ATOM      8  C   UNL     1       1.789   9.288  18.310  0.00  0.00    +0.000 A 
ATOM      9  C   UNL     1       0.717   8.939  19.141  0.00  0.00    +0.000 A 
ATOM     10  C   UNL     1      -0.041   9.928  19.791  0.00  0.00    +0.000 A 
ATOM     11  C   UNL     1       0.260  11.283  19.621  0.00  0.00    +0.000 A 
BRANCH  11  12
ATOM     12  N   UNL     1      -0.517  12.279  20.258  0.00  0.00    +0.000 N 
ATOM     13  C   UNL     1      -1.692  12.811  19.606  0.00  0.00    +0.000 C 
ATOM     14  C   UNL     1      -2.177  13.871  20.573  0.00  0.00    +0.000 C 
ATOM     15  C   UNL     1      -1.819  13.294  21.935  0.00  0.00    +0.000 C 
ATOM     16  C   UNL     1      -0.634  12.399  21.645  0.00  0.00    +0.000 C 
ATOM     17  O   UNL     1       0.061  11.883  22.507  0.00  0.00    +0.000 OA
ENDBRANCH  11  12
ENDBRANCH   1   8
BRANCH   2  18
ATOM     18  C   UNL     1       3.769   6.139  17.444  0.00  0.00    +0.000 A 
ATOM     19  C   UNL     1       4.627   6.688  16.465  0.00  0.00    +0.000 A 
ATOM     20  C   UNL     1       5.410   5.872  15.651  0.00  0.00    +0.000 A 
ATOM     21  C   UNL     1       5.349   4.498  15.803  0.00  0.00    +0.000 A 
ATOM     22  C   UNL     1       4.497   3.940  16.760  0.00  0.00    +0.000 A 
ATOM     23  C   UNL     1       3.688   4.728  17.622  0.00  0.00    +0.000 A 
BRANCH  23  24
ATOM     24  C   UNL     1       2.844   4.018  18.635  0.00  0.00    +0.000 A 
ATOM     25  C   UNL     1       3.394   3.568  19.859  0.00  0.00    +0.000 A 
ATOM     26  C   UNL     1       2.624   2.919  20.832  0.00  0.00    +0.000 A 
ATOM     27  C   UNL     1       1.265   2.725  20.623  0.00  0.00    +0.000 A 
ATOM     28  C   UNL     1       0.695   3.136  19.423  0.00  0.00    +0.000 A 
ATOM     29  C   UNL     1       1.481   3.742  18.434  0.00  0.00    +0.000 A 
ENDBRANCH  23  24
ENDBRANCH   2  18
TORSDOF 4
ENDMDL
MODEL 7
REMARK VINA RESULT:      -8.2      2.117      3.641
REMARK  Name = 
REMARK  5 active torsions:
REMARK  status: ('A' for Active; 'I' for Inactive)
REMARK    1  A    between atoms: C_1  and  C_2
REMARK    2  A    between atoms: C_4  and  N_5
REMARK    3  A    between atoms: C_6  and  C_8
REMARK    4  A    between atoms: C_13  and  C_14
REMARK    5  A    between atoms: C_22  and  N_23
REMARK                            x       y       z     vdW  Elec       q    Type
REMARK                         _______ _______ _______ _____ _____    ______ ____
ROOT
ATOM      1  N   UNL     1       2.646   7.222  17.863  0.00  0.00    +0.000 N 
ATOM      2  C   UNL     1       4.011   7.097  17.602  0.00  0.00    +0.000 C 
ATOM      3  O   UNL     1       4.864   7.942  17.837  0.00  0.00    +0.000 OA
ATOM      4  H   UNL     1       2.034   6.487  17.538  0.00  0.00    +0.000 HD
ENDROOT
BRANCH   1   8
ATOM      5  C   UNL     1       0.536   9.120  21.954  0.00  0.00    +0.000 C 
ATOM      6  C   UNL     1       0.997   9.307  20.534  0.00  0.00    +0.000 A 
ATOM      7  C   UNL     1       1.685   8.247  19.904  0.00  0.00    +0.000 A 
ATOM      8  C   UNL     1       2.007   8.289  18.547  0.00  0.00    +0.000 A 
ATOM      9  C   UNL     1       1.640   9.423  17.812  0.00  0.00    +0.000 A 
ATOM     10  C   UNL     1       0.978  10.498  18.430  0.00  0.00    +0.000 A 
ATOM     11  C   UNL     1       0.672  10.456  19.794  0.00  0.00    +0.000 A 
BRANCH  11  12
ATOM     12  N   UNL     1       0.025  11.548  20.420  0.00  0.00    +0.000 N 
ATOM     13  C   UNL     1      -1.356  11.435  20.832  0.00  0.00    +0.000 C 
ATOM     14  C   UNL     1      -1.670  12.811  21.381  0.00  0.00    +0.000 C 
ATOM     15  C   UNL     1      -0.351  13.250  22.001  0.00  0.00    +0.000 C 
ATOM     16  C   UNL     1       0.690  12.495  21.203  0.00  0.00    +0.000 C 
ATOM     17  O   UNL     1       1.891  12.703  21.275  0.00  0.00    +0.000 OA
ENDBRANCH  11  12
ENDBRANCH   1   8
BRANCH   2  18
ATOM     18  C   UNL     1       4.429   5.826  16.918  0.00  0.00    +0.000 A 
ATOM     19  C   UNL     1       5.365   5.968  15.868  0.00  0.00    +0.000 A 
ATOM     20  C   UNL     1       5.913   4.855  15.233  0.00  0.00    +0.000 A 
ATOM     21  C   UNL     1       5.538   3.586  15.638  0.00  0.00    +0.000 A 
ATOM     22  C   UNL     1       4.606   3.431  16.668  0.00  0.00    +0.000 A 
ATOM     23  C   UNL     1       4.027   4.531  17.354  0.00  0.00    +0.000 A 
BRANCH  23  24
ATOM     24  C   UNL     1       3.069   4.239  18.468  0.00  0.00    +0.000 A 
ATOM     25  C   UNL     1       1.776   3.725  18.204  0.00  0.00    +0.000 A 
ATOM     26  C   UNL     1       0.868   3.425  19.227  0.00  0.00    +0.000 A 
ATOM     27  C   UNL     1       1.236   3.602  20.553  0.00  0.00    +0.000 A 
ATOM     28  C   UNL     1       2.491   4.124  20.849  0.00  0.00    +0.000 A 
ATOM     29  C   UNL     1       3.378   4.467  19.819  0.00  0.00    +0.000 A 
ENDBRANCH  23  24
ENDBRANCH   2  18
TORSDOF 4
ENDMDL
MODEL 8
REMARK VINA RESULT:      -8.2      1.247      1.895
REMARK  Name = 
REMARK  5 active torsions:
REMARK  status: ('A' for Active; 'I' for Inactive)
REMARK    1  A    between atoms: C_1  and  C_2
REMARK    2  A    between atoms: C_4  and  N_5
REMARK    3  A    between atoms: C_6  and  C_8
REMARK    4  A    between atoms: C_13  and  C_14
REMARK    5  A    between atoms: C_22  and  N_23
REMARK                            x       y       z     vdW  Elec       q    Type
REMARK                         _______ _______ _______ _____ _____    ______ ____
ROOT
ATOM      1  N   UNL     1       2.002   7.670  18.248  0.00  0.00    +0.000 N 
ATOM      2  C   UNL     1       2.539   6.705  19.101  0.00  0.00    +0.000 C 
ATOM      3  O   UNL     1       2.891   6.890  20.257  0.00  0.00    +0.000 OA
ATOM      4  H   UNL     1       1.835   7.411  17.286  0.00  0.00    +0.000 HD
ENDROOT
BRANCH   1   8
ATOM      5  C   UNL     1       2.728  12.580  17.857  0.00  0.00    +0.000 C 
ATOM      6  C   UNL     1       1.925  11.435  18.410  0.00  0.00    +0.000 A 
ATOM      7  C   UNL     1       2.255  10.123  18.003  0.00  0.00    +0.000 A 
ATOM      8  C   UNL     1       1.658   9.005  18.587  0.00  0.00    +0.000 A 
ATOM      9  C   UNL     1       0.703   9.210  19.590  0.00  0.00    +0.000 A 
ATOM     10  C   UNL     1       0.344  10.510  19.988  0.00  0.00    +0.000 A 
ATOM     11  C   UNL     1       0.935  11.627  19.388  0.00  0.00    +0.000 A 
BRANCH  11  12
ATOM     12  N   UNL     1       0.558  12.935  19.774  0.00  0.00    +0.000 N 
ATOM     13  C   UNL     1      -0.783  13.408  19.520  0.00  0.00    +0.000 C 
ATOM     14  C   UNL     1      -0.747  14.840  20.013  0.00  0.00    +0.000 C 
ATOM     15  C   UNL     1       0.214  14.781  21.192  0.00  0.00    +0.000 C 
ATOM     16  C   UNL     1       1.115  13.611  20.862  0.00  0.00    +0.000 C 
ATOM     17  O   UNL     1       2.135  13.338  21.477  0.00  0.00    +0.000 OA
ENDBRANCH  11  12
ENDBRANCH   1   8
BRANCH   2  18
ATOM     18  C   UNL     1       2.744   5.345  18.496  0.00  0.00    +0.000 A 
ATOM     19  C   UNL     1       1.584   4.554  18.341  0.00  0.00    +0.000 A 
ATOM     20  C   UNL     1       1.629   3.323  17.691  0.00  0.00    +0.000 A 
ATOM     21  C   UNL     1       2.832   2.864  17.183  0.00  0.00    +0.000 A 
ATOM     22  C   UNL     1       3.990   3.631  17.338  0.00  0.00    +0.000 A 
ATOM     23  C   UNL     1       3.995   4.896  17.982  0.00  0.00    +0.000 A 
BRANCH  23  24
ATOM     24  C   UNL     1       5.292   5.643  18.053  0.00  0.00    +0.000 A 
ATOM     25  C   UNL     1       6.280   5.302  19.007  0.00  0.00    +0.000 A 
ATOM     26  C   UNL     1       7.509   5.970  19.082  0.00  0.00    +0.000 A 
ATOM     27  C   UNL     1       7.800   6.986  18.183  0.00  0.00    +0.000 A 
ATOM     28  C   UNL     1       6.844   7.361  17.244  0.00  0.00    +0.000 A 
ATOM     29  C   UNL     1       5.599   6.719  17.205  0.00  0.00    +0.000 A 
ENDBRANCH  23  24
ENDBRANCH   2  18
TORSDOF 4
ENDMDL
MODEL 9
REMARK VINA RESULT:      -8.1      1.254      1.350
REMARK  Name = 
REMARK  5 active torsions:
REMARK  status: ('A' for Active; 'I' for Inactive)
REMARK    1  A    between atoms: C_1  and  C_2
REMARK    2  A    between atoms: C_4  and  N_5
REMARK    3  A    between atoms: C_6  and  C_8
REMARK    4  A    between atoms: C_13  and  C_14
REMARK    5  A    between atoms: C_22  and  N_23
REMARK                            x       y       z     vdW  Elec       q    Type
REMARK                         _______ _______ _______ _____ _____    ______ ____
ROOT
ATOM      1  N   UNL     1       2.014   6.432  18.808  0.00  0.00    +0.000 N 
ATOM      2  C   UNL     1       3.153   5.717  19.179  0.00  0.00    +0.000 C 
ATOM      3  O   UNL     1       4.198   6.202  19.591  0.00  0.00    +0.000 OA
ATOM      4  H   UNL     1       1.246   5.919  18.398  0.00  0.00    +0.000 HD
ENDROOT
BRANCH   1   8
ATOM      5  C   UNL     1       0.450  10.363  21.433  0.00  0.00    +0.000 C 
ATOM      6  C   UNL     1       1.102   9.817  20.193  0.00  0.00    +0.000 A 
ATOM      7  C   UNL     1       1.349   8.429  20.117  0.00  0.00    +0.000 A 
ATOM      8  C   UNL     1       1.808   7.830  18.943  0.00  0.00    +0.000 A 
ATOM      9  C   UNL     1       2.034   8.645  17.827  0.00  0.00    +0.000 A 
ATOM     10  C   UNL     1       1.817  10.033  17.893  0.00  0.00    +0.000 A 
ATOM     11  C   UNL     1       1.372  10.628  19.078  0.00  0.00    +0.000 A 
BRANCH  11  12
ATOM     12  N   UNL     1       1.176  12.028  19.150  0.00  0.00    +0.000 N 
ATOM     13  C   UNL     1       2.308  12.923  19.090  0.00  0.00    +0.000 C 
ATOM     14  C   UNL     1       1.680  14.291  19.266  0.00  0.00    +0.000 C 
ATOM     15  C   UNL     1       0.330  14.148  18.578  0.00  0.00    +0.000 C 
ATOM     16  C   UNL     1       0.021  12.671  18.697  0.00  0.00    +0.000 C 
ATOM     17  O   UNL     1      -1.059  12.173  18.419  0.00  0.00    +0.000 OA
ENDBRANCH  11  12
ENDBRANCH   1   8
BRANCH   2  18
ATOM     18  C   UNL     1       3.078   4.229  18.988  0.00  0.00    +0.000 A 
ATOM     19  C   UNL     1       2.066   3.562  19.716  0.00  0.00    +0.000 A 
ATOM     20  C   UNL     1       1.824   2.202  19.537  0.00  0.00    +0.000 A 
ATOM     21  C   UNL     1       2.585   1.488  18.627  0.00  0.00    +0.000 A 
ATOM     22  C   UNL     1       3.596   2.132  17.908  0.00  0.00    +0.000 A 
ATOM     23  C   UNL     1       3.875   3.517  18.046  0.00  0.00    +0.000 A 
BRANCH  23  24
ATOM     24  C   UNL     1       4.958   4.104  17.193  0.00  0.00    +0.000 A 
ATOM     25  C   UNL     1       6.257   4.324  17.709  0.00  0.00    +0.000 A 
ATOM     26  C   UNL     1       7.292   4.852  16.928  0.00  0.00    +0.000 A 
ATOM     27  C   UNL     1       7.068   5.151  15.591  0.00  0.00    +0.000 A 
ATOM     28  C   UNL     1       5.797   4.967  15.056  0.00  0.00    +0.000 A 
ATOM     29  C   UNL     1       4.754   4.482  15.855  0.00  0.00    +0.000 A 
ENDBRANCH  23  24
ENDBRANCH   2  18
TORSDOF 4
ENDMDL
