MODEL 1
REMARK VINA RESULT:      -8.9      0.000      0.000
REMARK  Name = 
REMARK  5 active torsions:
REMARK  status: ('A' for Active; 'I' for Inactive)
REMARK    1  A    between atoms: C_1  and  C_2
REMARK    2  A    between atoms: C_2  and  C_3
REMARK    3  A    between atoms: C_5  and  N_6
REMARK    4  A    between atoms: C_7  and  C_9
REMARK    5  A    between atoms: N_14  and  C_15
REMARK                            x       y       z     vdW  Elec       q    Type
REMARK                         _______ _______ _______ _____ _____    ______ ____
ROOT
ATOM      1  N   UNL     1       2.171   7.243  18.783  0.00  0.00    +0.000 N 
ATOM      2  C   UNL     1       1.959   8.523  18.319  0.00  0.00    +0.000 C 
ATOM      3  O   UNL     1       2.159   8.894  17.171  0.00  0.00    +0.000 OA
ATOM      4  H   UNL     1       1.945   7.054  19.756  0.00  0.00    +0.000 HD
ENDROOT
BRANCH   1   9
ATOM      5  C   UNL     1       1.455   2.836  19.518  0.00  0.00    +0.000 C 
ATOM      6  C   UNL     1       2.309   4.102  19.348  0.00  0.00    +0.000 C 
ATOM      7  C   UNL     1       2.261   4.876  20.675  0.00  0.00    +0.000 C 
ATOM      8  C   UNL     1       1.791   4.869  18.126  0.00  0.00    +0.000 C 
ATOM      9  C   UNL     1       2.584   6.159  17.900  0.00  0.00    +0.000 C 
ATOM     10  C   UNL     1       4.061   5.852  18.031  0.00  0.00    +0.000 A 
ATOM     11  C   UNL     1       5.019   6.761  17.553  0.00  0.00    +0.000 A 
ATOM     12  C   UNL     1       6.380   6.456  17.625  0.00  0.00    +0.000 A 
ATOM     13  C   UNL     1       6.785   5.242  18.167  0.00  0.00    +0.000 A 
ATOM     14  F   UNL     1       8.092   4.950  18.225  0.00  0.00    +0.000 F 
ATOM     15  C   UNL     1       5.859   4.329  18.649  0.00  0.00    +0.000 A 
ATOM     16  C   UNL     1       4.500   4.639  18.595  0.00  0.00    +0.000 A 
ATOM     17  O   UNL     1       3.663   3.679  19.108  0.00  0.00    +0.000 OA
ENDBRANCH   1   9
BRANCH   2  18
ATOM     18  C   UNL     1       1.376   9.506  19.338  0.00  0.00    +0.000 A 
ATOM     19  C   UNL     1       0.859   8.909  20.582  0.00  0.00    +0.000 A 
ATOM     20  C   UNL     1       0.418   9.753  21.510  0.00  0.00    +0.000 A 
ATOM     21  C   UNL     1       0.440  11.215  21.296  0.00  0.00    +0.000 A 
ATOM     22  O   UNL     1       0.001  11.898  22.221  0.00  0.00    +0.000 OA
ATOM     23  N   UNL     1       0.906  11.646  20.044  0.00  0.00    +0.000 N 
ATOM     24  N   UNL     1       1.382  10.775  19.064  0.00  0.00    +0.000 NA
BRANCH  23  25
ATOM     25  C   UNL     1       0.927  13.027  19.662  0.00  0.00    +0.000 A 
ATOM     26  C   UNL     1      -0.218  13.681  19.182  0.00  0.00    +0.000 A 
ATOM     27  C   UNL     1      -0.180  15.015  18.770  0.00  0.00    +0.000 A 
ATOM     28  C   UNL     1       1.013  15.728  18.829  0.00  0.00    +0.000 A 
ATOM     29  C   UNL     1       2.158  15.110  19.319  0.00  0.00    +0.000 A 
ATOM     30  C   UNL     1       2.116  13.781  19.742  0.00  0.00    +0.000 A 
ENDBRANCH  23  25
ENDBRANCH   2  18
TORSDOF 3
ENDMDL
MODEL 2
REMARK VINA RESULT:      -8.8      3.523      8.665
REMARK  Name = 
REMARK  5 active torsions:
REMARK  status: ('A' for Active; 'I' for Inactive)
REMARK    1  A    between atoms: C_1  and  C_2
REMARK    2  A    between atoms: C_2  and  C_3
REMARK    3  A    between atoms: C_5  and  N_6
REMARK    4  A    between atoms: C_7  and  C_9
REMARK    5  A    between atoms: N_14  and  C_15
REMARK                            x       y       z     vdW  Elec       q    Type
REMARK                         _______ _______ _______ _____ _____    ______ ____
ROOT
ATOM      1  N   UNL     1       0.805   9.656  19.051  0.00  0.00    +0.000 N 
ATOM      2  C   UNL     1       1.752   9.040  18.261  0.00  0.00    +0.000 C 
ATOM      3  O   UNL     1       2.186   9.488  17.209  0.00  0.00    +0.000 OA
ATOM      4  H   UNL     1       0.542   9.192  19.915  0.00  0.00    +0.000 HD
ENDROOT
BRANCH   1   9
ATOM      5  C   UNL     1      -0.342  12.811  22.085  0.00  0.00    +0.000 C 
ATOM      6  C   UNL     1      -0.603  11.788  20.968  0.00  0.00    +0.000 C 
ATOM      7  C   UNL     1      -0.636  10.393  21.613  0.00  0.00    +0.000 C 
ATOM      8  C   UNL     1       0.464  11.980  19.884  0.00  0.00    +0.000 C 
ATOM      9  C   UNL     1       0.282  10.980  18.739  0.00  0.00    +0.000 C 
ATOM     10  C   UNL     1      -1.183  10.937  18.359  0.00  0.00    +0.000 A 
ATOM     11  C   UNL     1      -1.583  10.365  17.140  0.00  0.00    +0.000 A 
ATOM     12  C   UNL     1      -2.928  10.372  16.764  0.00  0.00    +0.000 A 
ATOM     13  C   UNL     1      -3.873  10.953  17.601  0.00  0.00    +0.000 A 
ATOM     14  F   UNL     1      -5.161  10.965  17.231  0.00  0.00    +0.000 F 
ATOM     15  C   UNL     1      -3.505  11.520  18.812  0.00  0.00    +0.000 A 
ATOM     16  C   UNL     1      -2.165  11.500  19.198  0.00  0.00    +0.000 A 
ATOM     17  O   UNL     1      -1.901  12.074  20.416  0.00  0.00    +0.000 OA
ENDBRANCH   1   9
BRANCH   2  18
ATOM     18  C   UNL     1       2.314   7.725  18.809  0.00  0.00    +0.000 A 
ATOM     19  C   UNL     1       1.639   7.187  20.002  0.00  0.00    +0.000 A 
ATOM     20  C   UNL     1       2.064   6.009  20.449  0.00  0.00    +0.000 A 
ATOM     21  C   UNL     1       3.165   5.284  19.781  0.00  0.00    +0.000 A 
ATOM     22  O   UNL     1       3.478   4.205  20.284  0.00  0.00    +0.000 OA
ATOM     23  N   UNL     1       3.757   5.936  18.688  0.00  0.00    +0.000 N 
ATOM     24  N   UNL     1       3.316   7.167  18.202  0.00  0.00    +0.000 NA
BRANCH  23  25
ATOM     25  C   UNL     1       4.877   5.392  17.978  0.00  0.00    +0.000 A 
ATOM     26  C   UNL     1       6.192   5.528  18.450  0.00  0.00    +0.000 A 
ATOM     27  C   UNL     1       7.282   5.034  17.731  0.00  0.00    +0.000 A 
ATOM     28  C   UNL     1       7.080   4.389  16.516  0.00  0.00    +0.000 A 
ATOM     29  C   UNL     1       5.786   4.222  16.034  0.00  0.00    +0.000 A 
ATOM     30  C   UNL     1       4.696   4.706  16.760  0.00  0.00    +0.000 A 
ENDBRANCH  23  25
ENDBRANCH   2  18
TORSDOF 3
ENDMDL
MODEL 3
REMARK VINA RESULT:      -8.5      2.845      4.435
REMARK  Name = 
REMARK  5 active torsions:
REMARK  status: ('A' for Active; 'I' for Inactive)
REMARK    1  A    between atoms: C_1  and  C_2
REMARK    2  A    between atoms: C_2  and  C_3
REMARK    3  A    between atoms: C_5  and  N_6
REMARK    4  A    between atoms: C_7  and  C_9
REMARK    5  A    between atoms: N_14  and  C_15
REMARK                            x       y       z     vdW  Elec       q    Type
REMARK                         _______ _______ _______ _____ _____    ______ ____
ROOT
ATOM      1  N   UNL     1       3.970   6.137  17.811  0.00  0.00    +0.000 N 
ATOM      2  C   UNL     1       3.097   6.380  18.849  0.00  0.00    +0.000 C 
ATOM      3  O   UNL     1       2.875   5.610  19.773  0.00  0.00    +0.000 OA
ATOM      4  H   UNL     1       4.084   6.867  17.114  0.00  0.00    +0.000 HD
ENDROOT
BRANCH   1   9
ATOM      5  C   UNL     1       8.214   5.811  19.344  0.00  0.00    +0.000 C 
ATOM      6  C   UNL     1       7.115   5.820  18.271  0.00  0.00    +0.000 C 
ATOM      7  C   UNL     1       6.769   7.288  17.972  0.00  0.00    +0.000 C 
ATOM      8  C   UNL     1       5.946   4.964  18.774  0.00  0.00    +0.000 C 
ATOM      9  C   UNL     1       4.798   4.938  17.762  0.00  0.00    +0.000 C 
ATOM     10  C   UNL     1       5.371   4.699  16.381  0.00  0.00    +0.000 A 
ATOM     11  C   UNL     1       4.534   4.302  15.325  0.00  0.00    +0.000 A 
ATOM     12  C   UNL     1       5.068   4.031  14.064  0.00  0.00    +0.000 A 
ATOM     13  C   UNL     1       6.438   4.148  13.857  0.00  0.00    +0.000 A 
ATOM     14  F   UNL     1       6.947   3.876  12.648  0.00  0.00    +0.000 F 
ATOM     15  C   UNL     1       7.285   4.541  14.883  0.00  0.00    +0.000 A 
ATOM     16  C   UNL     1       6.752   4.831  16.139  0.00  0.00    +0.000 A 
ATOM     17  O   UNL     1       7.667   5.223  17.084  0.00  0.00    +0.000 OA
ENDBRANCH   1   9
BRANCH   2  18
ATOM     18  C   UNL     1       2.419   7.753  18.833  0.00  0.00    +0.000 A 
ATOM     19  C   UNL     1       2.590   8.538  17.599  0.00  0.00    +0.000 A 
ATOM     20  C   UNL     1       1.947   9.700  17.537  0.00  0.00    +0.000 A 
ATOM     21  C   UNL     1       1.111  10.179  18.657  0.00  0.00    +0.000 A 
ATOM     22  O   UNL     1       0.568  11.271  18.492  0.00  0.00    +0.000 OA
ATOM     23  N   UNL     1       1.080   9.359  19.796  0.00  0.00    +0.000 N 
ATOM     24  N   UNL     1       1.741   8.132  19.873  0.00  0.00    +0.000 NA
BRANCH  23  25
ATOM     25  C   UNL     1       0.368   9.717  20.987  0.00  0.00    +0.000 A 
ATOM     26  C   UNL     1      -0.547  10.781  21.012  0.00  0.00    +0.000 A 
ATOM     27  C   UNL     1      -1.205  11.153  22.187  0.00  0.00    +0.000 A 
ATOM     28  C   UNL     1      -0.958  10.465  23.370  0.00  0.00    +0.000 A 
ATOM     29  C   UNL     1      -0.071   9.394  23.369  0.00  0.00    +0.000 A 
ATOM     30  C   UNL     1       0.577   9.016  22.192  0.00  0.00    +0.000 A 
ENDBRANCH  23  25
ENDBRANCH   2  18
TORSDOF 3
ENDMDL
MODEL 4
REMARK VINA RESULT:      -8.3      3.772      8.802
REMARK  Name = 
REMARK  5 active torsions:
REMARK  status: ('A' for Active; 'I' for Inactive)
REMARK    1  A    between atoms: C_1  and  C_2
REMARK    2  A    between atoms: C_2  and  C_3
REMARK    3  A    between atoms: C_5  and  N_6
REMARK    4  A    between atoms: C_7  and  C_9
REMARK    5  A    between atoms: N_14  and  C_15
REMARK                            x       y       z     vdW  Elec       q    Type
REMARK                         _______ _______ _______ _____ _____    ______ ____
ROOT
ATOM      1  N   UNL     1       0.291  10.083  18.616  0.00  0.00    +0.000 N 
ATOM      2  C   UNL     1       1.572   9.760  18.220  0.00  0.00    +0.000 C 
ATOM      3  O   UNL     1       2.308  10.486  17.568  0.00  0.00    +0.000 OA
ATOM      4  H   UNL     1      -0.212   9.400  19.175  0.00  0.00    +0.000 HD
ENDROOT
BRANCH   1   9
ATOM      5  C   UNL     1      -0.502  13.264  21.733  0.00  0.00    +0.000 C 
ATOM      6  C   UNL     1      -0.890  12.222  20.673  0.00  0.00    +0.000 C 
ATOM      7  C   UNL     1      -0.816  10.836  21.335  0.00  0.00    +0.000 C 
ATOM      8  C   UNL     1       0.025  12.413  19.457  0.00  0.00    +0.000 C 
ATOM      9  C   UNL     1      -0.289  11.394  18.358  0.00  0.00    +0.000 C 
ATOM     10  C   UNL     1      -1.790  11.325  18.173  0.00  0.00    +0.000 A 
ATOM     11  C   UNL     1      -2.336  10.730  17.023  0.00  0.00    +0.000 A 
ATOM     12  C   UNL     1      -3.718  10.712  16.825  0.00  0.00    +0.000 A 
ATOM     13  C   UNL     1      -4.556  11.292  17.770  0.00  0.00    +0.000 A 
ATOM     14  F   UNL     1      -5.881  11.280  17.571  0.00  0.00    +0.000 F 
ATOM     15  C   UNL     1      -4.042  11.882  18.916  0.00  0.00    +0.000 A 
ATOM     16  C   UNL     1      -2.663  11.886  19.125  0.00  0.00    +0.000 A 
ATOM     17  O   UNL     1      -2.252  12.481  20.291  0.00  0.00    +0.000 OA
ENDBRANCH   1   9
BRANCH   2  18
ATOM     18  C   UNL     1       2.089   8.402  18.705  0.00  0.00    +0.000 A 
ATOM     19  C   UNL     1       1.675   8.005  20.061  0.00  0.00    +0.000 A 
ATOM     20  C   UNL     1       2.052   6.798  20.471  0.00  0.00    +0.000 A 
ATOM     21  C   UNL     1       2.853   5.906  19.607  0.00  0.00    +0.000 A 
ATOM     22  O   UNL     1       3.149   4.814  20.093  0.00  0.00    +0.000 OA
ATOM     23  N   UNL     1       3.226   6.431  18.360  0.00  0.00    +0.000 N 
ATOM     24  N   UNL     1       2.831   7.691  17.911  0.00  0.00    +0.000 NA
BRANCH  23  25
ATOM     25  C   UNL     1       4.057   5.713  17.438  0.00  0.00    +0.000 A 
ATOM     26  C   UNL     1       5.019   6.362  16.648  0.00  0.00    +0.000 A 
ATOM     27  C   UNL     1       5.794   5.664  15.720  0.00  0.00    +0.000 A 
ATOM     28  C   UNL     1       5.622   4.293  15.559  0.00  0.00    +0.000 A 
ATOM     29  C   UNL     1       4.689   3.622  16.343  0.00  0.00    +0.000 A 
ATOM     30  C   UNL     1       3.923   4.319  17.279  0.00  0.00    +0.000 A 
ENDBRANCH  23  25
ENDBRANCH   2  18
TORSDOF 3
ENDMDL
MODEL 5
REMARK VINA RESULT:      -7.9      2.054      2.183
REMARK  Name = 
REMARK  5 active torsions:
REMARK  status: ('A' for Active; 'I' for Inactive)
REMARK    1  A    between atoms: C_1  and  C_2
REMARK    2  A    between atoms: C_2  and  C_3
REMARK    3  A    between atoms: C_5  and  N_6
REMARK    4  A    between atoms: C_7  and  C_9
REMARK    5  A    between atoms: N_14  and  C_15
REMARK                            x       y       z     vdW  Elec       q    Type
REMARK                         _______ _______ _______ _____ _____    ______ ____
ROOT
ATOM      1  N   UNL     1       2.108   6.806  18.966  0.00  0.00    +0.000 N 
ATOM      2  C   UNL     1       1.765   8.131  18.800  0.00  0.00    +0.000 C 
ATOM      3  O   UNL     1       1.870   8.756  17.755  0.00  0.00    +0.000 OA
ATOM      4  H   UNL     1       1.953   6.393  19.880  0.00  0.00    +0.000 HD
ENDROOT
BRANCH   1   9
ATOM      5  C   UNL     1       1.563   2.328  18.622  0.00  0.00    +0.000 C 
ATOM      6  C   UNL     1       2.368   3.629  18.766  0.00  0.00    +0.000 C 
ATOM      7  C   UNL     1       2.291   4.062  20.239  0.00  0.00    +0.000 C 
ATOM      8  C   UNL     1       1.819   4.646  17.758  0.00  0.00    +0.000 C 
ATOM      9  C   UNL     1       2.562   5.981  17.853  0.00  0.00    +0.000 C 
ATOM     10  C   UNL     1       4.049   5.707  17.919  0.00  0.00    +0.000 A 
ATOM     11  C   UNL     1       4.972   6.739  17.679  0.00  0.00    +0.000 A 
ATOM     12  C   UNL     1       6.343   6.477  17.688  0.00  0.00    +0.000 A 
ATOM     13  C   UNL     1       6.796   5.185  17.928  0.00  0.00    +0.000 A 
ATOM     14  F   UNL     1       8.113   4.936  17.926  0.00  0.00    +0.000 F 
ATOM     15  C   UNL     1       5.906   4.149  18.172  0.00  0.00    +0.000 A 
ATOM     16  C   UNL     1       4.536   4.412  18.181  0.00  0.00    +0.000 A 
ATOM     17  O   UNL     1       3.737   3.326  18.443  0.00  0.00    +0.000 OA
ENDBRANCH   1   9
BRANCH   2  18
ATOM     18  C   UNL     1       1.158   8.814  20.029  0.00  0.00    +0.000 A 
ATOM     19  C   UNL     1       1.678   8.366  21.333  0.00  0.00    +0.000 A 
ATOM     20  C   UNL     1       1.218   9.000  22.408  0.00  0.00    +0.000 A 
ATOM     21  C   UNL     1       0.229  10.092  22.294  0.00  0.00    +0.000 A 
ATOM     22  O   UNL     1      -0.129  10.602  23.356  0.00  0.00    +0.000 OA
ATOM     23  N   UNL     1      -0.223  10.380  20.997  0.00  0.00    +0.000 N 
ATOM     24  N   UNL     1       0.257   9.731  19.859  0.00  0.00    +0.000 NA
BRANCH  23  25
ATOM     25  C   UNL     1      -1.228  11.367  20.731  0.00  0.00    +0.000 A 
ATOM     26  C   UNL     1      -1.602  12.322  21.689  0.00  0.00    +0.000 A 
ATOM     27  C   UNL     1      -2.612  13.252  21.438  0.00  0.00    +0.000 A 
ATOM     28  C   UNL     1      -3.277  13.247  20.216  0.00  0.00    +0.000 A 
ATOM     29  C   UNL     1      -2.913  12.324  19.242  0.00  0.00    +0.000 A 
ATOM     30  C   UNL     1      -1.894  11.402  19.489  0.00  0.00    +0.000 A 
ENDBRANCH  23  25
ENDBRANCH   2  18
TORSDOF 3
ENDMDL
MODEL 6
REMARK VINA RESULT:      -7.9      0.870      1.261
REMARK  Name = 
REMARK  5 active torsions:
REMARK  status: ('A' for Active; 'I' for Inactive)
REMARK    1  A    between atoms: C_1  and  C_2
REMARK    2  A    between atoms: C_2  and  C_3
REMARK    3  A    between atoms: C_5  and  N_6
REMARK    4  A    between atoms: C_7  and  C_9
REMARK    5  A    between atoms: N_14  and  C_15
REMARK                            x       y       z     vdW  Elec       q    Type
REMARK                         _______ _______ _______ _____ _____    ______ ____
ROOT
ATOM      1  N   UNL     1       2.529   7.956  18.499  0.00  0.00    +0.000 N 
ATOM      2  C   UNL     1       1.594   8.876  18.077  0.00  0.00    +0.000 C 
ATOM      3  O   UNL     1       0.953   8.798  17.039  0.00  0.00    +0.000 OA
ATOM      4  H   UNL     1       2.980   8.123  19.394  0.00  0.00    +0.000 HD
ENDROOT
BRANCH   1   9
ATOM      5  C   UNL     1       1.173   3.823  19.744  0.00  0.00    +0.000 C 
ATOM      6  C   UNL     1       2.204   4.922  19.444  0.00  0.00    +0.000 C 
ATOM      7  C   UNL     1       2.260   5.854  20.666  0.00  0.00    +0.000 C 
ATOM      8  C   UNL     1       1.812   5.599  18.125  0.00  0.00    +0.000 C 
ATOM      9  C   UNL     1       2.787   6.724  17.765  0.00  0.00    +0.000 C 
ATOM     10  C   UNL     1       4.202   6.226  17.969  0.00  0.00    +0.000 A 
ATOM     11  C   UNL     1       5.286   6.921  17.408  0.00  0.00    +0.000 A 
ATOM     12  C   UNL     1       6.587   6.435  17.550  0.00  0.00    +0.000 A 
ATOM     13  C   UNL     1       6.807   5.252  18.246  0.00  0.00    +0.000 A 
ATOM     14  F   UNL     1       8.057   4.784  18.371  0.00  0.00    +0.000 F 
ATOM     15  C   UNL     1       5.754   4.548  18.812  0.00  0.00    +0.000 A 
ATOM     16  C   UNL     1       4.455   5.041  18.687  0.00  0.00    +0.000 A 
ATOM     17  O   UNL     1       3.484   4.282  19.290  0.00  0.00    +0.000 OA
ENDBRANCH   1   9
BRANCH   2  18
ATOM     18  C   UNL     1       1.330  10.037  19.041  0.00  0.00    +0.000 A 
ATOM     19  C   UNL     1       0.761   9.669  20.348  0.00  0.00    +0.000 A 
ATOM     20  C   UNL     1       0.594  10.653  21.226  0.00  0.00    +0.000 A 
ATOM     21  C   UNL     1       0.957  12.048  20.897  0.00  0.00    +0.000 A 
ATOM     22  O   UNL     1       0.754  12.877  21.784  0.00  0.00    +0.000 OA
ATOM     23  N   UNL     1       1.437  12.268  19.597  0.00  0.00    +0.000 N 
ATOM     24  N   UNL     1       1.626  11.244  18.668  0.00  0.00    +0.000 NA
BRANCH  23  25
ATOM     25  C   UNL     1       1.768  13.574  19.107  0.00  0.00    +0.000 A 
ATOM     26  C   UNL     1       3.051  13.882  18.628  0.00  0.00    +0.000 A 
ATOM     27  C   UNL     1       3.380  15.168  18.193  0.00  0.00    +0.000 A 
ATOM     28  C   UNL     1       2.426  16.180  18.229  0.00  0.00    +0.000 A 
ATOM     29  C   UNL     1       1.142  15.897  18.680  0.00  0.00    +0.000 A 
ATOM     30  C   UNL     1       0.811  14.609  19.103  0.00  0.00    +0.000 A 
ENDBRANCH  23  25
ENDBRANCH   2  18
TORSDOF 3
ENDMDL
MODEL 7
REMARK VINA RESULT:      -7.9      2.550      4.028
REMARK  Name = 
REMARK  5 active torsions:
REMARK  status: ('A' for Active; 'I' for Inactive)
REMARK    1  A    between atoms: C_1  and  C_2
REMARK    2  A    between atoms: C_2  and  C_3
REMARK    3  A    between atoms: C_5  and  N_6
REMARK    4  A    between atoms: C_7  and  C_9
REMARK    5  A    between atoms: N_14  and  C_15
REMARK                            x       y       z     vdW  Elec       q    Type
REMARK                         _______ _______ _______ _____ _____    ______ ____
ROOT
ATOM      1  N   UNL     1       2.855   6.859  19.570  0.00  0.00    +0.000 N 
ATOM      2  C   UNL     1       1.881   7.480  20.321  0.00  0.00    +0.000 C 
ATOM      3  O   UNL     1       1.352   7.004  21.315  0.00  0.00    +0.000 OA
ATOM      4  H   UNL     1       3.232   7.370  18.777  0.00  0.00    +0.000 HD
ENDROOT
BRANCH   1   9
ATOM      5  C   UNL     1       6.345   4.818  17.540  0.00  0.00    +0.000 C 
ATOM      6  C   UNL     1       4.879   4.975  17.972  0.00  0.00    +0.000 C 
ATOM      7  C   UNL     1       4.216   5.974  17.010  0.00  0.00    +0.000 C 
ATOM      8  C   UNL     1       4.856   5.379  19.451  0.00  0.00    +0.000 C 
ATOM      9  C   UNL     1       3.423   5.573  19.953  0.00  0.00    +0.000 C 
ATOM     10  C   UNL     1       2.577   4.413  19.472  0.00  0.00    +0.000 A 
ATOM     11  C   UNL     1       1.322   4.161  20.052  0.00  0.00    +0.000 A 
ATOM     12  C   UNL     1       0.564   3.061  19.646  0.00  0.00    +0.000 A 
ATOM     13  C   UNL     1       1.059   2.208  18.667  0.00  0.00    +0.000 A 
ATOM     14  F   UNL     1       0.332   1.148  18.288  0.00  0.00    +0.000 F 
ATOM     15  C   UNL     1       2.293   2.436  18.076  0.00  0.00    +0.000 A 
ATOM     16  C   UNL     1       3.045   3.544  18.467  0.00  0.00    +0.000 A 
ATOM     17  O   UNL     1       4.245   3.693  17.817  0.00  0.00    +0.000 OA
ENDBRANCH   1   9
BRANCH   2  18
ATOM     18  C   UNL     1       1.504   8.896  19.873  0.00  0.00    +0.000 A 
ATOM     19  C   UNL     1       1.802   9.224  18.468  0.00  0.00    +0.000 A 
ATOM     20  C   UNL     1       1.415  10.421  18.040  0.00  0.00    +0.000 A 
ATOM     21  C   UNL     1       0.726  11.374  18.935  0.00  0.00    +0.000 A 
ATOM     22  O   UNL     1       0.418  12.455  18.432  0.00  0.00    +0.000 OA
ATOM     23  N   UNL     1       0.554  10.956  20.264  0.00  0.00    +0.000 N 
ATOM     24  N   UNL     1       0.946   9.699  20.726  0.00  0.00    +0.000 NA
BRANCH  23  25
ATOM     25  C   UNL     1      -0.037  11.792  21.267  0.00  0.00    +0.000 A 
ATOM     26  C   UNL     1      -1.034  11.319  22.133  0.00  0.00    +0.000 A 
ATOM     27  C   UNL     1      -1.637  12.151  23.079  0.00  0.00    +0.000 A 
ATOM     28  C   UNL     1      -1.253  13.484  23.178  0.00  0.00    +0.000 A 
ATOM     29  C   UNL     1      -0.253  13.974  22.345  0.00  0.00    +0.000 A 
ATOM     30  C   UNL     1       0.357  13.138  21.408  0.00  0.00    +0.000 A 
ENDBRANCH  23  25
ENDBRANCH   2  18
TORSDOF 3
ENDMDL
MODEL 8
REMARK VINA RESULT:      -7.7      2.299      2.885
REMARK  Name = 
REMARK  5 active torsions:
REMARK  status: ('A' for Active; 'I' for Inactive)
REMARK    1  A    between atoms: C_1  and  C_2
REMARK    2  A    between atoms: C_2  and  C_3
REMARK    3  A    between atoms: C_5  and  N_6
REMARK    4  A    between atoms: C_7  and  C_9
REMARK    5  A    between atoms: N_14  and  C_15
REMARK                            x       y       z     vdW  Elec       q    Type
REMARK                         _______ _______ _______ _____ _____    ______ ____
ROOT
ATOM      1  N   UNL     1       2.012   7.042  18.425  0.00  0.00    +0.000 N 
ATOM      2  C   UNL     1       1.965   8.304  17.874  0.00  0.00    +0.000 C 
ATOM      3  O   UNL     1       2.563   8.652  16.866  0.00  0.00    +0.000 OA
ATOM      4  H   UNL     1       1.451   6.871  19.255  0.00  0.00    +0.000 HD
ENDROOT
BRANCH   1   9
ATOM      5  C   UNL     1       2.037   2.740  19.828  0.00  0.00    +0.000 C 
ATOM      6  C   UNL     1       2.656   4.115  19.532  0.00  0.00    +0.000 C 
ATOM      7  C   UNL     1       2.286   5.051  20.694  0.00  0.00    +0.000 C 
ATOM      8  C   UNL     1       2.172   4.570  18.150  0.00  0.00    +0.000 C 
ATOM      9  C   UNL     1       2.734   5.948  17.788  0.00  0.00    +0.000 C 
ATOM     10  C   UNL     1       4.211   5.973  18.120  0.00  0.00    +0.000 A 
ATOM     11  C   UNL     1       5.039   6.978  17.593  0.00  0.00    +0.000 A 
ATOM     12  C   UNL     1       6.411   6.973  17.855  0.00  0.00    +0.000 A 
ATOM     13  C   UNL     1       6.959   5.963  18.636  0.00  0.00    +0.000 A 
ATOM     14  F   UNL     1       8.277   5.957  18.877  0.00  0.00    +0.000 F 
ATOM     15  C   UNL     1       6.162   4.961  19.171  0.00  0.00    +0.000 A 
ATOM     16  C   UNL     1       4.789   4.973  18.926  0.00  0.00    +0.000 A 
ATOM     17  O   UNL     1       4.084   3.949  19.507  0.00  0.00    +0.000 OA
ENDBRANCH   1   9
BRANCH   2  18
ATOM     18  C   UNL     1       1.036   9.297  18.580  0.00  0.00    +0.000 A 
ATOM     19  C   UNL     1       1.508   9.805  19.879  0.00  0.00    +0.000 A 
ATOM     20  C   UNL     1       0.753  10.724  20.472  0.00  0.00    +0.000 A 
ATOM     21  C   UNL     1      -0.502  11.204  19.855  0.00  0.00    +0.000 A 
ATOM     22  O   UNL     1      -1.123  12.052  20.495  0.00  0.00    +0.000 OA
ATOM     23  N   UNL     1      -0.863  10.596  18.642  0.00  0.00    +0.000 N 
ATOM     24  N   UNL     1      -0.076   9.637  18.004  0.00  0.00    +0.000 NA
BRANCH  23  25
ATOM     25  C   UNL     1      -2.082  10.907  17.956  0.00  0.00    +0.000 A 
ATOM     26  C   UNL     1      -3.168  11.509  18.609  0.00  0.00    +0.000 A 
ATOM     27  C   UNL     1      -4.369  11.768  17.945  0.00  0.00    +0.000 A 
ATOM     28  C   UNL     1      -4.511  11.428  16.604  0.00  0.00    +0.000 A 
ATOM     29  C   UNL     1      -3.443  10.848  15.927  0.00  0.00    +0.000 A 
ATOM     30  C   UNL     1      -2.239  10.600  16.589  0.00  0.00    +0.000 A 
ENDBRANCH  23  25
ENDBRANCH   2  18
TORSDOF 3
ENDMDL
