MODEL 1
REMARK VINA RESULT:      -9.1      0.000      0.000
REMARK  Name = 
REMARK  7 active torsions:
REMARK  status: ('A' for Active; 'I' for Inactive)
REMARK    1  A    between atoms: C_1  and  N_2
REMARK    2  A    between atoms: C_6  and  C_7
REMARK    3  A    between atoms: C_7  and  C_8
REMARK    4  A    between atoms: C_8  and  C_9
REMARK    5  A    between atoms: C_15  and  C_17
REMARK    6  A    between atoms: C_17  and  C_18
REMARK    7  A    between atoms: C_18  and  N_19
REMARK                            x       y       z     vdW  Elec       q    Type
REMARK                         _______ _______ _______ _____ _____    ______ ____
ROOT
ATOM      1  C   UNL     1       5.063   4.310  16.755  0.00  0.00    +0.000 A 
ATOM      2  C   UNL     1       5.533   3.752  15.558  0.00  0.00    +0.000 A 
ATOM      3  C   UNL     1       6.573   4.368  14.867  0.00  0.00    +0.000 A 
ATOM      4  N   UNL     1       7.210   5.485  15.284  0.00  0.00    +0.000 NA
ATOM      5  C   UNL     1       6.809   5.979  16.465  0.00  0.00    +0.000 A 
ATOM      6  N   UNL     1       7.592   6.993  17.018  0.00  0.00    +0.000 N 
ATOM      7  C   UNL     1       7.899   7.010  18.366  0.00  0.00    +0.000 C 
ATOM      8  O   UNL     1       7.521   6.190  19.199  0.00  0.00    +0.000 OA
ATOM      9  C   UNL     1       5.713   5.484  17.158  0.00  0.00    +0.000 A 
ATOM     10  H   UNL     1       8.260   7.390  16.372  0.00  0.00    +0.000 HD
ENDROOT
BRANCH   1  11
ATOM     11  C   UNL     1       3.941   3.648  17.702  0.00  0.00    +0.000 C 
ATOM     12  C   UNL     1       3.843   2.098  17.748  0.00  0.00    +0.000 C 
ATOM     13  O   UNL     1       4.104   2.057  19.167  0.00  0.00    +0.000 OA
ATOM     14  C   UNL     1       4.386   3.467  19.192  0.00  0.00    +0.000 C 
BRANCH  11  15
ATOM     15  C   UNL     1       2.597   4.399  17.613  0.00  0.00    +0.000 C 
BRANCH  15  21
ATOM     16  C   UNL     1       0.989   3.848  20.268  0.00  0.00    +0.000 C 
ATOM     17  N   UNL     1       1.638   5.069  19.880  0.00  0.00    +0.000 N 
ATOM     18  C   UNL     1       1.631   6.224  20.608  0.00  0.00    +0.000 A 
ATOM     19  N   UNL     1       2.289   7.155  19.965  0.00  0.00    +0.000 NA
ATOM     20  N   UNL     1       2.728   6.607  18.786  0.00  0.00    +0.000 NA
ATOM     21  C   UNL     1       2.351   5.348  18.737  0.00  0.00    +0.000 A 
ENDBRANCH  15  21
ENDBRANCH  11  15
ENDBRANCH   1  11
BRANCH   7  22
ATOM     22  C   UNL     1       8.718   8.197  18.795  0.00  0.00    +0.000 C 
BRANCH  22  23
ATOM     23  C   UNL     1       8.255   9.385  17.953  0.00  0.00    +0.000 C 
BRANCH  23  24
ATOM     24  N   UNL     1       9.140  10.557  18.041  0.00  0.00    +0.000 NA
ATOM     25  C   UNL     1       9.944  10.578  19.276  0.00  0.00    +0.000 C 
ATOM     26  C   UNL     1       9.385  11.454  20.402  0.00  0.00    +0.000 C 
ATOM     27  C   UNL     1       9.299  12.859  19.877  0.00  0.00    +0.000 A 
ATOM     28  C   UNL     1       9.682  13.968  20.632  0.00  0.00    +0.000 A 
ATOM     29  C   UNL     1       9.648  15.236  20.057  0.00  0.00    +0.000 A 
ATOM     30  C   UNL     1       9.217  15.398  18.738  0.00  0.00    +0.000 A 
ATOM     31  C   UNL     1       8.806  14.293  17.991  0.00  0.00    +0.000 A 
ATOM     32  C   UNL     1       8.855  13.015  18.552  0.00  0.00    +0.000 A 
ATOM     33  C   UNL     1       8.354  11.792  17.817  0.00  0.00    +0.000 C 
ENDBRANCH  23  24
ENDBRANCH  22  23
ENDBRANCH   7  22
TORSDOF 6
ENDMDL
MODEL 2
REMARK VINA RESULT:      -8.8      0.561      1.095
REMARK  Name = 
REMARK  7 active torsions:
REMARK  status: ('A' for Active; 'I' for Inactive)
REMARK    1  A    between atoms: C_1  and  N_2
REMARK    2  A    between atoms: C_6  and  C_7
REMARK    3  A    between atoms: C_7  and  C_8
REMARK    4  A    between atoms: C_8  and  C_9
REMARK    5  A    between atoms: C_15  and  C_17
REMARK    6  A    between atoms: C_17  and  C_18
REMARK    7  A    between atoms: C_18  and  N_19
REMARK                            x       y       z     vdW  Elec       q    Type
REMARK                         _______ _______ _______ _____ _____    ______ ____
ROOT
ATOM      1  C   UNL     1       5.054   4.201  16.601  0.00  0.00    +0.000 A 
ATOM      2  C   UNL     1       5.556   3.671  15.404  0.00  0.00    +0.000 A 
ATOM      3  C   UNL     1       6.604   4.312  14.748  0.00  0.00    +0.000 A 
ATOM      4  N   UNL     1       7.220   5.426  15.200  0.00  0.00    +0.000 NA
ATOM      5  C   UNL     1       6.788   5.892  16.381  0.00  0.00    +0.000 A 
ATOM      6  N   UNL     1       7.549   6.904  16.972  0.00  0.00    +0.000 N 
ATOM      7  C   UNL     1       7.826   6.896  18.326  0.00  0.00    +0.000 C 
ATOM      8  O   UNL     1       7.440   6.056  19.134  0.00  0.00    +0.000 OA
ATOM      9  C   UNL     1       5.683   5.373  17.041  0.00  0.00    +0.000 A 
ATOM     10  H   UNL     1       8.226   7.320  16.348  0.00  0.00    +0.000 HD
ENDROOT
BRANCH   1  11
ATOM     11  C   UNL     1       3.920   3.509  17.511  0.00  0.00    +0.000 C 
ATOM     12  C   UNL     1       3.806   1.960  17.486  0.00  0.00    +0.000 C 
ATOM     13  O   UNL     1       4.056   1.853  18.904  0.00  0.00    +0.000 OA
ATOM     14  C   UNL     1       4.352   3.257  18.993  0.00  0.00    +0.000 C 
BRANCH  11  15
ATOM     15  C   UNL     1       2.584   4.276  17.446  0.00  0.00    +0.000 C 
BRANCH  15  21
ATOM     16  C   UNL     1       2.933   6.865  19.212  0.00  0.00    +0.000 C 
ATOM     17  N   UNL     1       2.155   5.698  19.521  0.00  0.00    +0.000 N 
ATOM     18  C   UNL     1       1.451   5.511  20.676  0.00  0.00    +0.000 A 
ATOM     19  N   UNL     1       0.875   4.335  20.656  0.00  0.00    +0.000 NA
ATOM     20  N   UNL     1       1.216   3.732  19.471  0.00  0.00    +0.000 NA
ATOM     21  C   UNL     1       1.973   4.554  18.779  0.00  0.00    +0.000 A 
ENDBRANCH  15  21
ENDBRANCH  11  15
ENDBRANCH   1  11
BRANCH   7  22
ATOM     22  C   UNL     1       8.624   8.083  18.795  0.00  0.00    +0.000 C 
BRANCH  22  23
ATOM     23  C   UNL     1       8.186   9.276  17.949  0.00  0.00    +0.000 C 
BRANCH  23  24
ATOM     24  N   UNL     1       9.090  10.435  18.041  0.00  0.00    +0.000 NA
ATOM     25  C   UNL     1       9.878  10.450  19.287  0.00  0.00    +0.000 C 
ATOM     26  C   UNL     1       9.318  11.343  20.400  0.00  0.00    +0.000 C 
ATOM     27  C   UNL     1       9.263  12.746  19.864  0.00  0.00    +0.000 A 
ATOM     28  C   UNL     1       9.654  13.853  20.618  0.00  0.00    +0.000 A 
ATOM     29  C   UNL     1       9.650  15.117  20.034  0.00  0.00    +0.000 A 
ATOM     30  C   UNL     1       9.239  15.278  18.709  0.00  0.00    +0.000 A 
ATOM     31  C   UNL     1       8.820  14.175  17.963  0.00  0.00    +0.000 A 
ATOM     32  C   UNL     1       8.840  12.900  18.533  0.00  0.00    +0.000 A 
ATOM     33  C   UNL     1       8.327  11.681  17.799  0.00  0.00    +0.000 C 
ENDBRANCH  23  24
ENDBRANCH  22  23
ENDBRANCH   7  22
TORSDOF 6
ENDMDL
MODEL 3
REMARK VINA RESULT:      -8.7      4.766      7.688
REMARK  Name = 
REMARK  7 active torsions:
REMARK  status: ('A' for Active; 'I' for Inactive)
REMARK    1  A    between atoms: C_1  and  N_2
REMARK    2  A    between atoms: C_6  and  C_7
REMARK    3  A    between atoms: C_7  and  C_8
REMARK    4  A    between atoms: C_8  and  C_9
REMARK    5  A    between atoms: C_15  and  C_17
REMARK    6  A    between atoms: C_17  and  C_18
REMARK    7  A    between atoms: C_18  and  N_19
REMARK                            x       y       z     vdW  Elec       q    Type
REMARK                         _______ _______ _______ _____ _____    ______ ____
ROOT
ATOM      1  C   UNL     1       4.531   4.412  17.682  0.00  0.00    +0.000 A 
ATOM      2  C   UNL     1       4.003   3.118  17.581  0.00  0.00    +0.000 A 
ATOM      3  C   UNL     1       3.059   2.679  18.505  0.00  0.00    +0.000 A 
ATOM      4  N   UNL     1       2.568   3.435  19.512  0.00  0.00    +0.000 NA
ATOM      5  C   UNL     1       3.018   4.697  19.567  0.00  0.00    +0.000 A 
ATOM      6  N   UNL     1       2.368   5.557  20.454  0.00  0.00    +0.000 N 
ATOM      7  C   UNL     1       2.053   6.854  20.096  0.00  0.00    +0.000 C 
ATOM      8  O   UNL     1       2.313   7.387  19.020  0.00  0.00    +0.000 OA
ATOM      9  C   UNL     1       4.034   5.173  18.750  0.00  0.00    +0.000 A 
ATOM     10  H   UNL     1       1.764   5.083  21.110  0.00  0.00    +0.000 HD
ENDROOT
BRANCH   1  11
ATOM     11  C   UNL     1       5.547   5.079  16.626  0.00  0.00    +0.000 C 
ATOM     12  C   UNL     1       5.122   6.404  15.936  0.00  0.00    +0.000 C 
ATOM     13  O   UNL     1       6.260   7.120  16.462  0.00  0.00    +0.000 OA
ATOM     14  C   UNL     1       6.636   5.996  17.276  0.00  0.00    +0.000 C 
BRANCH  11  15
ATOM     15  C   UNL     1       6.191   4.023  15.704  0.00  0.00    +0.000 C 
BRANCH  15  21
ATOM     16  C   UNL     1       5.588   3.357  12.682  0.00  0.00    +0.000 C 
ATOM     17  N   UNL     1       6.571   4.270  13.193  0.00  0.00    +0.000 N 
ATOM     18  C   UNL     1       7.444   4.989  12.427  0.00  0.00    +0.000 A 
ATOM     19  N   UNL     1       8.224   5.703  13.200  0.00  0.00    +0.000 NA
ATOM     20  N   UNL     1       7.865   5.442  14.499  0.00  0.00    +0.000 NA
ATOM     21  C   UNL     1       6.862   4.592  14.499  0.00  0.00    +0.000 A 
ENDBRANCH  15  21
ENDBRANCH  11  15
ENDBRANCH   1  11
BRANCH   7  22
ATOM     22  C   UNL     1       1.390   7.649  21.189  0.00  0.00    +0.000 C 
BRANCH  22  23
ATOM     23  C   UNL     1       1.033   9.010  20.594  0.00  0.00    +0.000 C 
BRANCH  23  24
ATOM     24  N   UNL     1       1.085  10.116  21.564  0.00  0.00    +0.000 NA
ATOM     25  C   UNL     1       0.308   9.844  22.787  0.00  0.00    +0.000 C 
ATOM     26  C   UNL     1      -1.096  10.457  22.816  0.00  0.00    +0.000 C 
ATOM     27  C   UNL     1      -0.938  11.946  22.682  0.00  0.00    +0.000 A 
ATOM     28  C   UNL     1      -1.674  12.850  23.450  0.00  0.00    +0.000 A 
ATOM     29  C   UNL     1      -1.423  14.214  23.331  0.00  0.00    +0.000 A 
ATOM     30  C   UNL     1      -0.456  14.676  22.435  0.00  0.00    +0.000 A 
ATOM     31  C   UNL     1       0.261  13.774  21.646  0.00  0.00    +0.000 A 
ATOM     32  C   UNL     1       0.031  12.402  21.773  0.00  0.00    +0.000 A 
ATOM     33  C   UNL     1       0.721  11.385  20.893  0.00  0.00    +0.000 C 
ENDBRANCH  23  24
ENDBRANCH  22  23
ENDBRANCH   7  22
TORSDOF 6
ENDMDL
MODEL 4
REMARK VINA RESULT:      -8.6      4.733      8.314
REMARK  Name = 
REMARK  7 active torsions:
REMARK  status: ('A' for Active; 'I' for Inactive)
REMARK    1  A    between atoms: C_1  and  N_2
REMARK    2  A    between atoms: C_6  and  C_7
REMARK    3  A    between atoms: C_7  and  C_8
REMARK    4  A    between atoms: C_8  and  C_9
REMARK    5  A    between atoms: C_15  and  C_17
REMARK    6  A    between atoms: C_17  and  C_18
REMARK    7  A    between atoms: C_18  and  N_19
REMARK                            x       y       z     vdW  Elec       q    Type
REMARK                         _______ _______ _______ _____ _____    ______ ____
ROOT
ATOM      1  C   UNL     1       4.429   4.755  17.586  0.00  0.00    +0.000 A 
ATOM      2  C   UNL     1       3.791   3.515  17.449  0.00  0.00    +0.000 A 
ATOM      3  C   UNL     1       2.752   3.170  18.309  0.00  0.00    +0.000 A 
ATOM      4  N   UNL     1       2.270   3.974  19.284  0.00  0.00    +0.000 NA
ATOM      5  C   UNL     1       2.831   5.188  19.369  0.00  0.00    +0.000 A 
ATOM      6  N   UNL     1       2.208   6.109  20.213  0.00  0.00    +0.000 N 
ATOM      7  C   UNL     1       2.040   7.429  19.838  0.00  0.00    +0.000 C 
ATOM      8  O   UNL     1       2.418   7.929  18.781  0.00  0.00    +0.000 OA
ATOM      9  C   UNL     1       3.938   5.563  18.620  0.00  0.00    +0.000 A 
ATOM     10  H   UNL     1       1.521   5.696  20.828  0.00  0.00    +0.000 HD
ENDROOT
BRANCH   1  11
ATOM     11  C   UNL     1       5.570   5.319  16.599  0.00  0.00    +0.000 C 
ATOM     12  C   UNL     1       5.284   6.634  15.825  0.00  0.00    +0.000 C 
ATOM     13  O   UNL     1       6.412   7.309  16.421  0.00  0.00    +0.000 OA
ATOM     14  C   UNL     1       6.651   6.202  17.307  0.00  0.00    +0.000 C 
BRANCH  11  15
ATOM     15  C   UNL     1       6.228   4.191  15.778  0.00  0.00    +0.000 C 
BRANCH  15  21
ATOM     16  C   UNL     1       5.495   3.364  12.825  0.00  0.00    +0.000 C 
ATOM     17  N   UNL     1       6.532   4.263  13.245  0.00  0.00    +0.000 N 
ATOM     18  C   UNL     1       7.408   4.893  12.409  0.00  0.00    +0.000 A 
ATOM     19  N   UNL     1       8.243   5.620  13.109  0.00  0.00    +0.000 NA
ATOM     20  N   UNL     1       7.918   5.456  14.432  0.00  0.00    +0.000 NA
ATOM     21  C   UNL     1       6.880   4.653  14.518  0.00  0.00    +0.000 A 
ENDBRANCH  15  21
ENDBRANCH  11  15
ENDBRANCH   1  11
BRANCH   7  22
ATOM     22  C   UNL     1       1.385   8.287  20.886  0.00  0.00    +0.000 C 
BRANCH  22  23
ATOM     23  C   UNL     1       0.854   9.530  20.175  0.00  0.00    +0.000 C 
BRANCH  23  24
ATOM     24  N   UNL     1      -0.514   9.904  20.572  0.00  0.00    +0.000 NA
ATOM     25  C   UNL     1      -1.214  10.694  19.543  0.00  0.00    +0.000 C 
ATOM     26  C   UNL     1      -1.197  12.211  19.763  0.00  0.00    +0.000 C 
ATOM     27  C   UNL     1      -1.855  12.479  21.088  0.00  0.00    +0.000 A 
ATOM     28  C   UNL     1      -2.762  13.522  21.278  0.00  0.00    +0.000 A 
ATOM     29  C   UNL     1      -3.393  13.667  22.510  0.00  0.00    +0.000 A 
ATOM     30  C   UNL     1      -3.106  12.786  23.555  0.00  0.00    +0.000 A 
ATOM     31  C   UNL     1      -2.177  11.759  23.375  0.00  0.00    +0.000 A 
ATOM     32  C   UNL     1      -1.554  11.593  22.136  0.00  0.00    +0.000 A 
ATOM     33  C   UNL     1      -0.487  10.547  21.906  0.00  0.00    +0.000 C 
ENDBRANCH  23  24
ENDBRANCH  22  23
ENDBRANCH   7  22
TORSDOF 6
ENDMDL
MODEL 5
REMARK VINA RESULT:      -8.5      4.354      7.104
REMARK  Name = 
REMARK  7 active torsions:
REMARK  status: ('A' for Active; 'I' for Inactive)
REMARK    1  A    between atoms: C_1  and  N_2
REMARK    2  A    between atoms: C_6  and  C_7
REMARK    3  A    between atoms: C_7  and  C_8
REMARK    4  A    between atoms: C_8  and  C_9
REMARK    5  A    between atoms: C_15  and  C_17
REMARK    6  A    between atoms: C_17  and  C_18
REMARK    7  A    between atoms: C_18  and  N_19
REMARK                            x       y       z     vdW  Elec       q    Type
REMARK                         _______ _______ _______ _____ _____    ______ ____
ROOT
ATOM      1  C   UNL     1       4.173   4.773  17.918  0.00  0.00    +0.000 A 
ATOM      2  C   UNL     1       3.492   3.554  17.792  0.00  0.00    +0.000 A 
ATOM      3  C   UNL     1       2.477   3.230  18.688  0.00  0.00    +0.000 A 
ATOM      4  N   UNL     1       2.058   4.036  19.689  0.00  0.00    +0.000 NA
ATOM      5  C   UNL     1       2.659   5.232  19.766  0.00  0.00    +0.000 A 
ATOM      6  N   UNL     1       2.097   6.161  20.644  0.00  0.00    +0.000 N 
ATOM      7  C   UNL     1       1.954   7.489  20.290  0.00  0.00    +0.000 C 
ATOM      8  O   UNL     1       2.306   7.991  19.225  0.00  0.00    +0.000 OA
ATOM      9  C   UNL     1       3.747   5.583  18.979  0.00  0.00    +0.000 A 
ATOM     10  H   UNL     1       1.422   5.761  21.281  0.00  0.00    +0.000 HD
ENDROOT
BRANCH   1  11
ATOM     11  C   UNL     1       5.291   5.314  16.893  0.00  0.00    +0.000 C 
ATOM     12  C   UNL     1       4.994   6.621  16.109  0.00  0.00    +0.000 C 
ATOM     13  O   UNL     1       6.143   7.295  16.665  0.00  0.00    +0.000 OA
ATOM     14  C   UNL     1       6.397   6.198  17.560  0.00  0.00    +0.000 C 
BRANCH  11  15
ATOM     15  C   UNL     1       5.918   4.171  16.070  0.00  0.00    +0.000 C 
BRANCH  15  21
ATOM     16  C   UNL     1       5.294   3.479  13.058  0.00  0.00    +0.000 C 
ATOM     17  N   UNL     1       6.363   4.296  13.561  0.00  0.00    +0.000 N 
ATOM     18  C   UNL     1       7.321   4.892  12.791  0.00  0.00    +0.000 A 
ATOM     19  N   UNL     1       8.161   5.541  13.558  0.00  0.00    +0.000 NA
ATOM     20  N   UNL     1       7.756   5.361  14.856  0.00  0.00    +0.000 NA
ATOM     21  C   UNL     1       6.666   4.625  14.862  0.00  0.00    +0.000 A 
ENDBRANCH  15  21
ENDBRANCH  11  15
ENDBRANCH   1  11
BRANCH   7  22
ATOM     22  C   UNL     1       1.367   8.353  21.373  0.00  0.00    +0.000 C 
BRANCH  22  23
ATOM     23  C   UNL     1      -0.085   8.629  20.983  0.00  0.00    +0.000 C 
BRANCH  23  24
ATOM     24  N   UNL     1      -0.349  10.032  20.627  0.00  0.00    +0.000 NA
ATOM     25  C   UNL     1      -0.513  10.234  19.176  0.00  0.00    +0.000 C 
ATOM     26  C   UNL     1       0.737  10.733  18.443  0.00  0.00    +0.000 C 
ATOM     27  C   UNL     1       1.122  12.049  19.058  0.00  0.00    +0.000 A 
ATOM     28  C   UNL     1       1.523  13.146  18.294  0.00  0.00    +0.000 A 
ATOM     29  C   UNL     1       1.792  14.359  18.924  0.00  0.00    +0.000 A 
ATOM     30  C   UNL     1       1.680  14.472  20.311  0.00  0.00    +0.000 A 
ATOM     31  C   UNL     1       1.306  13.367  21.079  0.00  0.00    +0.000 A 
ATOM     32  C   UNL     1       1.015  12.152  20.456  0.00  0.00    +0.000 A 
ATOM     33  C   UNL     1       0.679  10.904  21.241  0.00  0.00    +0.000 C 
ENDBRANCH  23  24
ENDBRANCH  22  23
ENDBRANCH   7  22
TORSDOF 6
ENDMDL
MODEL 6
REMARK VINA RESULT:      -8.4      1.113      1.939
REMARK  Name = 
REMARK  7 active torsions:
REMARK  status: ('A' for Active; 'I' for Inactive)
REMARK    1  A    between atoms: C_1  and  N_2
REMARK    2  A    between atoms: C_6  and  C_7
REMARK    3  A    between atoms: C_7  and  C_8
REMARK    4  A    between atoms: C_8  and  C_9
REMARK    5  A    between atoms: C_15  and  C_17
REMARK    6  A    between atoms: C_17  and  C_18
REMARK    7  A    between atoms: C_18  and  N_19
REMARK                            x       y       z     vdW  Elec       q    Type
REMARK                         _______ _______ _______ _____ _____    ______ ____
ROOT
ATOM      1  C   UNL     1       5.299   4.440  16.796  0.00  0.00    +0.000 A 
ATOM      2  C   UNL     1       5.778   3.875  15.606  0.00  0.00    +0.000 A 
ATOM      3  C   UNL     1       6.784   4.516  14.890  0.00  0.00    +0.000 A 
ATOM      4  N   UNL     1       7.381   5.667  15.275  0.00  0.00    +0.000 NA
ATOM      5  C   UNL     1       6.974   6.170  16.449  0.00  0.00    +0.000 A 
ATOM      6  N   UNL     1       7.723   7.226  16.972  0.00  0.00    +0.000 N 
ATOM      7  C   UNL     1       8.043   7.284  18.315  0.00  0.00    +0.000 C 
ATOM      8  O   UNL     1       7.708   6.468  19.170  0.00  0.00    +0.000 OA
ATOM      9  C   UNL     1       5.906   5.647  17.166  0.00  0.00    +0.000 A 
ATOM     10  H   UNL     1       8.366   7.635  16.309  0.00  0.00    +0.000 HD
ENDROOT
BRANCH   1  11
ATOM     11  C   UNL     1       4.215   3.755  17.771  0.00  0.00    +0.000 C 
ATOM     12  C   UNL     1       4.107   2.205  17.772  0.00  0.00    +0.000 C 
ATOM     13  O   UNL     1       4.431   2.117  19.176  0.00  0.00    +0.000 OA
ATOM     14  C   UNL     1       4.725   3.524  19.233  0.00  0.00    +0.000 C 
BRANCH  11  15
ATOM     15  C   UNL     1       2.875   4.516  17.766  0.00  0.00    +0.000 C 
BRANCH  15  21
ATOM     16  C   UNL     1       1.933   5.134  20.711  0.00  0.00    +0.000 C 
ATOM     17  N   UNL     1       1.407   4.139  19.819  0.00  0.00    +0.000 N 
ATOM     18  C   UNL     1       0.410   3.259  20.129  0.00  0.00    +0.000 A 
ATOM     19  N   UNL     1       0.185   2.470  19.109  0.00  0.00    +0.000 NA
ATOM     20  N   UNL     1       1.058   2.829  18.112  0.00  0.00    +0.000 NA
ATOM     21  C   UNL     1       1.785   3.842  18.530  0.00  0.00    +0.000 A 
ENDBRANCH  15  21
ENDBRANCH  11  15
ENDBRANCH   1  11
BRANCH   7  22
ATOM     22  C   UNL     1       8.820   8.512  18.708  0.00  0.00    +0.000 C 
BRANCH  22  23
ATOM     23  C   UNL     1       8.397   9.629  17.756  0.00  0.00    +0.000 C 
BRANCH  23  24
ATOM     24  N   UNL     1       8.233  10.938  18.410  0.00  0.00    +0.000 NA
ATOM     25  C   UNL     1       8.423  12.070  17.485  0.00  0.00    +0.000 C 
ATOM     26  C   UNL     1       9.815  12.710  17.518  0.00  0.00    +0.000 C 
ATOM     27  C   UNL     1      10.047  13.205  18.918  0.00  0.00    +0.000 A 
ATOM     28  C   UNL     1      10.625  14.447  19.189  0.00  0.00    +0.000 A 
ATOM     29  C   UNL     1      10.741  14.876  20.509  0.00  0.00    +0.000 A 
ATOM     30  C   UNL     1      10.299  14.063  21.555  0.00  0.00    +0.000 A 
ATOM     31  C   UNL     1       9.747  12.809  21.286  0.00  0.00    +0.000 A 
ATOM     32  C   UNL     1       9.608  12.378  19.965  0.00  0.00    +0.000 A 
ATOM     33  C   UNL     1       9.087  11.001  19.618  0.00  0.00    +0.000 C 
ENDBRANCH  23  24
ENDBRANCH  22  23
ENDBRANCH   7  22
TORSDOF 6
ENDMDL
MODEL 7
REMARK VINA RESULT:      -8.3      4.416      7.319
REMARK  Name = 
REMARK  7 active torsions:
REMARK  status: ('A' for Active; 'I' for Inactive)
REMARK    1  A    between atoms: C_1  and  N_2
REMARK    2  A    between atoms: C_6  and  C_7
REMARK    3  A    between atoms: C_7  and  C_8
REMARK    4  A    between atoms: C_8  and  C_9
REMARK    5  A    between atoms: C_15  and  C_17
REMARK    6  A    between atoms: C_17  and  C_18
REMARK    7  A    between atoms: C_18  and  N_19
REMARK                            x       y       z     vdW  Elec       q    Type
REMARK                         _______ _______ _______ _____ _____    ______ ____
ROOT
ATOM      1  C   UNL     1       4.374   4.765  17.866  0.00  0.00    +0.000 A 
ATOM      2  C   UNL     1       3.765   3.505  17.774  0.00  0.00    +0.000 A 
ATOM      3  C   UNL     1       2.761   3.154  18.672  0.00  0.00    +0.000 A 
ATOM      4  N   UNL     1       2.286   3.966  19.643  0.00  0.00    +0.000 NA
ATOM      5  C   UNL     1       2.817   5.197  19.685  0.00  0.00    +0.000 A 
ATOM      6  N   UNL     1       2.194   6.120  20.527  0.00  0.00    +0.000 N 
ATOM      7  C   UNL     1       1.980   7.425  20.128  0.00  0.00    +0.000 C 
ATOM      8  O   UNL     1       2.313   7.912  19.049  0.00  0.00    +0.000 OA
ATOM      9  C   UNL     1       3.891   5.583  18.896  0.00  0.00    +0.000 A 
ATOM     10  H   UNL     1       1.536   5.703  21.171  0.00  0.00    +0.000 HD
ENDROOT
BRANCH   1  11
ATOM     11  C   UNL     1       5.470   5.335  16.833  0.00  0.00    +0.000 C 
ATOM     12  C   UNL     1       5.121   6.617  16.029  0.00  0.00    +0.000 C 
ATOM     13  O   UNL     1       6.241   7.346  16.576  0.00  0.00    +0.000 OA
ATOM     14  C   UNL     1       6.538   6.274  17.487  0.00  0.00    +0.000 C 
BRANCH  11  15
ATOM     15  C   UNL     1       6.144   4.206  16.028  0.00  0.00    +0.000 C 
BRANCH  15  21
ATOM     16  C   UNL     1       5.382   3.451  13.063  0.00  0.00    +0.000 C 
ATOM     17  N   UNL     1       6.452   4.306  13.497  0.00  0.00    +0.000 N 
ATOM     18  C   UNL     1       7.350   4.916  12.670  0.00  0.00    +0.000 A 
ATOM     19  N   UNL     1       8.210   5.601  13.381  0.00  0.00    +0.000 NA
ATOM     20  N   UNL     1       7.879   5.429  14.702  0.00  0.00    +0.000 NA
ATOM     21  C   UNL     1       6.813   4.663  14.775  0.00  0.00    +0.000 A 
ENDBRANCH  15  21
ENDBRANCH  11  15
ENDBRANCH   1  11
BRANCH   7  22
ATOM     22  C   UNL     1       1.332   8.290  21.176  0.00  0.00    +0.000 C 
BRANCH  22  23
ATOM     23  C   UNL     1       0.440   9.288  20.440  0.00  0.00    +0.000 C 
BRANCH  23  24
ATOM     24  N   UNL     1       0.732  10.695  20.758  0.00  0.00    +0.000 NA
ATOM     25  C   UNL     1      -0.326  11.332  21.563  0.00  0.00    +0.000 C 
ATOM     26  C   UNL     1      -1.334  12.170  20.768  0.00  0.00    +0.000 C 
ATOM     27  C   UNL     1      -0.562  13.252  20.067  0.00  0.00    +0.000 A 
ATOM     28  C   UNL     1      -1.011  14.572  20.003  0.00  0.00    +0.000 A 
ATOM     29  C   UNL     1      -0.210  15.541  19.404  0.00  0.00    +0.000 A 
ATOM     30  C   UNL     1       1.026  15.191  18.854  0.00  0.00    +0.000 A 
ATOM     31  C   UNL     1       1.463  13.865  18.893  0.00  0.00    +0.000 A 
ATOM     32  C   UNL     1       0.676  12.890  19.509  0.00  0.00    +0.000 A 
ATOM     33  C   UNL     1       1.062  11.428  19.515  0.00  0.00    +0.000 C 
ENDBRANCH  23  24
ENDBRANCH  22  23
ENDBRANCH   7  22
TORSDOF 6
ENDMDL
MODEL 8
REMARK VINA RESULT:      -8.3      1.112      1.549
REMARK  Name = 
REMARK  7 active torsions:
REMARK  status: ('A' for Active; 'I' for Inactive)
REMARK    1  A    between atoms: C_1  and  N_2
REMARK    2  A    between atoms: C_6  and  C_7
REMARK    3  A    between atoms: C_7  and  C_8
REMARK    4  A    between atoms: C_8  and  C_9
REMARK    5  A    between atoms: C_15  and  C_17
REMARK    6  A    between atoms: C_17  and  C_18
REMARK    7  A    between atoms: C_18  and  N_19
REMARK                            x       y       z     vdW  Elec       q    Type
REMARK                         _______ _______ _______ _____ _____    ______ ____
ROOT
ATOM      1  C   UNL     1       5.391   4.650  17.017  0.00  0.00    +0.000 A 
ATOM      2  C   UNL     1       5.840   4.091  15.812  0.00  0.00    +0.000 A 
ATOM      3  C   UNL     1       6.824   4.739  15.071  0.00  0.00    +0.000 A 
ATOM      4  N   UNL     1       7.427   5.890  15.444  0.00  0.00    +0.000 NA
ATOM      5  C   UNL     1       7.049   6.387  16.631  0.00  0.00    +0.000 A 
ATOM      6  N   UNL     1       7.808   7.445  17.137  0.00  0.00    +0.000 N 
ATOM      7  C   UNL     1       8.164   7.499  18.471  0.00  0.00    +0.000 C 
ATOM      8  O   UNL     1       7.855   6.679  19.332  0.00  0.00    +0.000 OA
ATOM      9  C   UNL     1       6.004   5.858  17.374  0.00  0.00    +0.000 A 
ATOM     10  H   UNL     1       8.432   7.858  16.458  0.00  0.00    +0.000 HD
ENDROOT
BRANCH   1  11
ATOM     11  C   UNL     1       4.337   3.957  18.018  0.00  0.00    +0.000 C 
ATOM     12  C   UNL     1       4.331   2.407  18.117  0.00  0.00    +0.000 C 
ATOM     13  O   UNL     1       4.633   2.429  19.529  0.00  0.00    +0.000 OA
ATOM     14  C   UNL     1       4.833   3.854  19.499  0.00  0.00    +0.000 C 
BRANCH  11  15
ATOM     15  C   UNL     1       2.949   4.625  17.944  0.00  0.00    +0.000 C 
BRANCH  15  21
ATOM     16  C   UNL     1       1.719   4.783  20.843  0.00  0.00    +0.000 C 
ATOM     17  N   UNL     1       1.335   3.896  19.781  0.00  0.00    +0.000 N 
ATOM     18  C   UNL     1       0.372   2.933  19.876  0.00  0.00    +0.000 A 
ATOM     19  N   UNL     1       0.286   2.282  18.743  0.00  0.00    +0.000 NA
ATOM     20  N   UNL     1       1.218   2.817  17.890  0.00  0.00    +0.000 NA
ATOM     21  C   UNL     1       1.841   3.798  18.505  0.00  0.00    +0.000 A 
ENDBRANCH  15  21
ENDBRANCH  11  15
ENDBRANCH   1  11
BRANCH   7  22
ATOM     22  C   UNL     1       8.946   8.729  18.848  0.00  0.00    +0.000 C 
BRANCH  22  23
ATOM     23  C   UNL     1       8.474   9.855  17.930  0.00  0.00    +0.000 C 
BRANCH  23  24
ATOM     24  N   UNL     1       9.402  10.996  17.862  0.00  0.00    +0.000 NA
ATOM     25  C   UNL     1      10.465  10.932  18.881  0.00  0.00    +0.000 C 
ATOM     26  C   UNL     1      10.212  11.766  20.141  0.00  0.00    +0.000 C 
ATOM     27  C   UNL     1      10.064  13.198  19.708  0.00  0.00    +0.000 A 
ATOM     28  C   UNL     1      10.652  14.257  20.402  0.00  0.00    +0.000 A 
ATOM     29  C   UNL     1      10.539  15.552  19.902  0.00  0.00    +0.000 A 
ATOM     30  C   UNL     1       9.826  15.792  18.725  0.00  0.00    +0.000 A 
ATOM     31  C   UNL     1       9.213  14.737  18.046  0.00  0.00    +0.000 A 
ATOM     32  C   UNL     1       9.338  13.432  18.527  0.00  0.00    +0.000 A 
ATOM     33  C   UNL     1       8.635  12.263  17.876  0.00  0.00    +0.000 C 
ENDBRANCH  23  24
ENDBRANCH  22  23
ENDBRANCH   7  22
TORSDOF 6
ENDMDL
MODEL 9
REMARK VINA RESULT:      -8.3      1.339      1.918
REMARK  Name = 
REMARK  7 active torsions:
REMARK  status: ('A' for Active; 'I' for Inactive)
REMARK    1  A    between atoms: C_1  and  N_2
REMARK    2  A    between atoms: C_6  and  C_7
REMARK    3  A    between atoms: C_7  and  C_8
REMARK    4  A    between atoms: C_8  and  C_9
REMARK    5  A    between atoms: C_15  and  C_17
REMARK    6  A    between atoms: C_17  and  C_18
REMARK    7  A    between atoms: C_18  and  N_19
REMARK                            x       y       z     vdW  Elec       q    Type
REMARK                         _______ _______ _______ _____ _____    ______ ____
ROOT
ATOM      1  C   UNL     1       4.444   4.875  16.855  0.00  0.00    +0.000 A 
ATOM      2  C   UNL     1       4.746   4.231  15.647  0.00  0.00    +0.000 A 
ATOM      3  C   UNL     1       5.819   4.669  14.876  0.00  0.00    +0.000 A 
ATOM      4  N   UNL     1       6.644   5.683  15.222  0.00  0.00    +0.000 NA
ATOM      5  C   UNL     1       6.400   6.253  16.412  0.00  0.00    +0.000 A 
ATOM      6  N   UNL     1       7.362   7.146  16.888  0.00  0.00    +0.000 N 
ATOM      7  C   UNL     1       7.755   7.139  18.212  0.00  0.00    +0.000 C 
ATOM      8  O   UNL     1       7.314   6.400  19.090  0.00  0.00    +0.000 OA
ATOM      9  C   UNL     1       5.290   5.943  17.185  0.00  0.00    +0.000 A 
ATOM     10  H   UNL     1       8.038   7.424  16.190  0.00  0.00    +0.000 HD
ENDROOT
BRANCH   1  11
ATOM     11  C   UNL     1       3.300   4.409  17.888  0.00  0.00    +0.000 C 
ATOM     12  C   UNL     1       1.824   4.757  17.553  0.00  0.00    +0.000 C 
ATOM     13  O   UNL     1       1.431   3.369  17.534  0.00  0.00    +0.000 OA
ATOM     14  C   UNL     1       2.798   2.943  17.669  0.00  0.00    +0.000 C 
BRANCH  11  15
ATOM     15  C   UNL     1       3.722   4.636  19.354  0.00  0.00    +0.000 C 
BRANCH  15  21
ATOM     16  C   UNL     1       4.515   1.849  20.597  0.00  0.00    +0.000 C 
ATOM     17  N   UNL     1       3.329   2.614  20.860  0.00  0.00    +0.000 N 
ATOM     18  C   UNL     1       2.316   2.227  21.690  0.00  0.00    +0.000 A 
ATOM     19  N   UNL     1       1.373   3.135  21.689  0.00  0.00    +0.000 NA
ATOM     20  N   UNL     1       1.767   4.134  20.834  0.00  0.00    +0.000 NA
ATOM     21  C   UNL     1       2.949   3.832  20.345  0.00  0.00    +0.000 A 
ENDBRANCH  15  21
ENDBRANCH  11  15
ENDBRANCH   1  11
BRANCH   7  22
ATOM     22  C   UNL     1       8.771   8.194  18.557  0.00  0.00    +0.000 C 
BRANCH  22  23
ATOM     23  C   UNL     1       8.229   9.522  18.030  0.00  0.00    +0.000 C 
BRANCH  23  24
ATOM     24  N   UNL     1       9.166  10.648  18.179  0.00  0.00    +0.000 NA
ATOM     25  C   UNL     1       9.893  10.623  19.461  0.00  0.00    +0.000 C 
ATOM     26  C   UNL     1       9.312  11.523  20.557  0.00  0.00    +0.000 C 
ATOM     27  C   UNL     1       9.328  12.932  20.035  0.00  0.00    +0.000 A 
ATOM     28  C   UNL     1       9.720  14.018  20.820  0.00  0.00    +0.000 A 
ATOM     29  C   UNL     1       9.786  15.287  20.252  0.00  0.00    +0.000 A 
ATOM     30  C   UNL     1       9.444  15.476  18.911  0.00  0.00    +0.000 A 
ATOM     31  C   UNL     1       9.025  14.395  18.132  0.00  0.00    +0.000 A 
ATOM     32  C   UNL     1       8.975  13.115  18.688  0.00  0.00    +0.000 A 
ATOM     33  C   UNL     1       8.458  11.922  17.916  0.00  0.00    +0.000 C 
ENDBRANCH  23  24
ENDBRANCH  22  23
ENDBRANCH   7  22
TORSDOF 6
ENDMDL
