MODEL 1
REMARK VINA RESULT:      -8.2      0.000      0.000
REMARK  Name = 
REMARK  6 active torsions:
REMARK  status: ('A' for Active; 'I' for Inactive)
REMARK    1  A    between atoms: C_1  and  N_2
REMARK    2  A    between atoms: N_2  and  C_3
REMARK    3  A    between atoms: N_2  and  S_16
REMARK    4  A    between atoms: C_8  and  O_9
REMARK    5  A    between atoms: O_9  and  C_10
REMARK    6  A    between atoms: S_16  and  C_19
REMARK                            x       y       z     vdW  Elec       q    Type
REMARK                         _______ _______ _______ _____ _____    ______ ____
ROOT
ATOM      1  C   UNL     1       4.022   7.101  17.765  0.00  0.00    +0.000 C 
ATOM      2  N   UNL     1       4.061   5.838  18.513  0.00  0.00    +0.000 N 
ENDROOT
BRANCH   2   3
ATOM      3  C   UNL     1       2.819   5.243  18.919  0.00  0.00    +0.000 A 
ATOM      4  C   UNL     1       2.359   4.090  18.275  0.00  0.00    +0.000 A 
ATOM      5  C   UNL     1       1.307   3.353  18.820  0.00  0.00    +0.000 A 
ATOM      6  C   UNL     1       0.747   3.728  20.037  0.00  0.00    +0.000 A 
ATOM      7  C   UNL     1       1.180   4.889  20.662  0.00  0.00    +0.000 A 
ATOM      8  C   UNL     1       2.146   5.706  20.065  0.00  0.00    +0.000 A 
BRANCH   8   9
ATOM      9  O   UNL     1       2.530   6.935  20.570  0.00  0.00    +0.000 OA
BRANCH   9  10
ATOM     10  C   UNL     1       1.671   8.007  20.461  0.00  0.00    +0.000 A 
ATOM     11  C   UNL     1       0.959   8.339  21.614  0.00  0.00    +0.000 A 
ATOM     12  C   UNL     1      -0.021   9.329  21.563  0.00  0.00    +0.000 A 
ATOM     13  C   UNL     1      -0.283   9.990  20.362  0.00  0.00    +0.000 A 
ATOM     14  C   UNL     1       0.482   9.711  19.230  0.00  0.00    +0.000 A 
ATOM     15  C   UNL     1       1.489   8.749  19.289  0.00  0.00    +0.000 A 
ENDBRANCH   9  10
ENDBRANCH   8   9
ENDBRANCH   2   3
BRANCH   2  16
ATOM     16  S   UNL     1       5.519   5.000  18.595  0.00  0.00    +0.000 S 
ATOM     17  O   UNL     1       6.564   5.912  19.043  0.00  0.00    +0.000 OA
ATOM     18  O   UNL     1       5.278   3.742  19.264  0.00  0.00    +0.000 OA
BRANCH  16  19
ATOM     19  C   UNL     1       5.867   4.619  16.895  0.00  0.00    +0.000 A 
ATOM     20  C   UNL     1       5.042   3.695  16.215  0.00  0.00    +0.000 A 
ATOM     21  C   UNL     1       5.298   3.352  14.886  0.00  0.00    +0.000 A 
ATOM     22  C   UNL     1       6.332   4.018  14.277  0.00  0.00    +0.000 A 
ATOM     23  N   UNL     1       6.776   3.977  12.987  0.00  0.00    +0.000 N 
ATOM     24  C   UNL     1       7.640   5.031  12.819  0.00  0.00    +0.000 A 
ATOM     25  O   UNL     1       8.065   5.413  11.736  0.00  0.00    +0.000 OA
ATOM     26  O   UNL     1       7.949   5.634  14.043  0.00  0.00    +0.000 OA
ATOM     27  C   UNL     1       7.096   4.976  14.913  0.00  0.00    +0.000 A 
ATOM     28  C   UNL     1       6.944   5.249  16.252  0.00  0.00    +0.000 A 
ATOM     29  H   UNL     1       6.490   3.357  12.249  0.00  0.00    +0.000 HD
ENDBRANCH  16  19
ENDBRANCH   2  16
TORSDOF 5
ENDMDL
MODEL 2
REMARK VINA RESULT:      -8.1      1.101      1.447
REMARK  Name = 
REMARK  6 active torsions:
REMARK  status: ('A' for Active; 'I' for Inactive)
REMARK    1  A    between atoms: C_1  and  N_2
REMARK    2  A    between atoms: N_2  and  C_3
REMARK    3  A    between atoms: N_2  and  S_16
REMARK    4  A    between atoms: C_8  and  O_9
REMARK    5  A    between atoms: O_9  and  C_10
REMARK    6  A    between atoms: S_16  and  C_19
REMARK                            x       y       z     vdW  Elec       q    Type
REMARK                         _______ _______ _______ _____ _____    ______ ____
ROOT
ATOM      1  C   UNL     1       3.907   7.053  17.462  0.00  0.00    +0.000 C 
ATOM      2  N   UNL     1       3.996   5.838  18.281  0.00  0.00    +0.000 N 
ENDROOT
BRANCH   2   3
ATOM      3  C   UNL     1       2.779   5.223  18.731  0.00  0.00    +0.000 A 
ATOM      4  C   UNL     1       2.296   4.083  18.081  0.00  0.00    +0.000 A 
ATOM      5  C   UNL     1       1.277   3.325  18.657  0.00  0.00    +0.000 A 
ATOM      6  C   UNL     1       0.774   3.664  19.909  0.00  0.00    +0.000 A 
ATOM      7  C   UNL     1       1.229   4.813  20.542  0.00  0.00    +0.000 A 
ATOM      8  C   UNL     1       2.160   5.652  19.920  0.00  0.00    +0.000 A 
BRANCH   8   9
ATOM      9  O   UNL     1       2.558   6.871  20.436  0.00  0.00    +0.000 OA
BRANCH   9  10
ATOM     10  C   UNL     1       1.696   7.944  20.376  0.00  0.00    +0.000 A 
ATOM     11  C   UNL     1       0.949   8.193  21.527  0.00  0.00    +0.000 A 
ATOM     12  C   UNL     1      -0.036   9.180  21.515  0.00  0.00    +0.000 A 
ATOM     13  C   UNL     1      -0.265   9.921  20.356  0.00  0.00    +0.000 A 
ATOM     14  C   UNL     1       0.535   9.725  19.231  0.00  0.00    +0.000 A 
ATOM     15  C   UNL     1       1.545   8.765  19.254  0.00  0.00    +0.000 A 
ENDBRANCH   9  10
ENDBRANCH   8   9
ENDBRANCH   2   3
BRANCH   2  16
ATOM     16  S   UNL     1       5.484   5.059  18.401  0.00  0.00    +0.000 S 
ATOM     17  O   UNL     1       6.447   5.969  19.008  0.00  0.00    +0.000 OA
ATOM     18  O   UNL     1       5.258   3.735  18.932  0.00  0.00    +0.000 OA
BRANCH  16  19
ATOM     19  C   UNL     1       5.975   4.855  16.705  0.00  0.00    +0.000 A 
ATOM     20  C   UNL     1       7.275   5.248  16.313  0.00  0.00    +0.000 A 
ATOM     21  C   UNL     1       7.688   5.125  14.986  0.00  0.00    +0.000 A 
ATOM     22  C   UNL     1       6.796   4.538  14.125  0.00  0.00    +0.000 A 
ATOM     23  N   UNL     1       6.924   4.201  12.809  0.00  0.00    +0.000 N 
ATOM     24  C   UNL     1       5.865   3.386  12.490  0.00  0.00    +0.000 A 
ATOM     25  O   UNL     1       5.773   2.740  11.455  0.00  0.00    +0.000 OA
ATOM     26  O   UNL     1       4.915   3.365  13.518  0.00  0.00    +0.000 OA
ATOM     27  C   UNL     1       5.552   4.084  14.515  0.00  0.00    +0.000 A 
ATOM     28  C   UNL     1       5.072   4.296  15.787  0.00  0.00    +0.000 A 
ATOM     29  H   UNL     1       7.677   4.421  12.179  0.00  0.00    +0.000 HD
ENDBRANCH  16  19
ENDBRANCH   2  16
TORSDOF 5
ENDMDL
MODEL 3
REMARK VINA RESULT:      -8.0      1.800      2.414
REMARK  Name = 
REMARK  6 active torsions:
REMARK  status: ('A' for Active; 'I' for Inactive)
REMARK    1  A    between atoms: C_1  and  N_2
REMARK    2  A    between atoms: N_2  and  C_3
REMARK    3  A    between atoms: N_2  and  S_16
REMARK    4  A    between atoms: C_8  and  O_9
REMARK    5  A    between atoms: O_9  and  C_10
REMARK    6  A    between atoms: S_16  and  C_19
REMARK                            x       y       z     vdW  Elec       q    Type
REMARK                         _______ _______ _______ _____ _____    ______ ____
ROOT
ATOM      1  C   UNL     1       5.924   4.701  19.114  0.00  0.00    +0.000 C 
ATOM      2  N   UNL     1       4.922   5.121  18.128  0.00  0.00    +0.000 N 
ENDROOT
BRANCH   2   3
ATOM      3  C   UNL     1       3.574   4.648  18.275  0.00  0.00    +0.000 A 
ATOM      4  C   UNL     1       3.162   3.503  17.588  0.00  0.00    +0.000 A 
ATOM      5  C   UNL     1       1.957   2.881  17.917  0.00  0.00    +0.000 A 
ATOM      6  C   UNL     1       1.186   3.362  18.970  0.00  0.00    +0.000 A 
ATOM      7  C   UNL     1       1.577   4.518  19.633  0.00  0.00    +0.000 A 
ATOM      8  C   UNL     1       2.716   5.223  19.232  0.00  0.00    +0.000 A 
BRANCH   8   9
ATOM      9  O   UNL     1       3.090   6.443  19.764  0.00  0.00    +0.000 OA
BRANCH   9  10
ATOM     10  C   UNL     1       2.181   7.478  19.786  0.00  0.00    +0.000 A 
ATOM     11  C   UNL     1       2.038   8.191  18.595  0.00  0.00    +0.000 A 
ATOM     12  C   UNL     1       1.232   9.328  18.561  0.00  0.00    +0.000 A 
ATOM     13  C   UNL     1       0.566   9.746  19.713  0.00  0.00    +0.000 A 
ATOM     14  C   UNL     1       0.648   8.989  20.881  0.00  0.00    +0.000 A 
ATOM     15  C   UNL     1       1.422   7.830  20.907  0.00  0.00    +0.000 A 
ENDBRANCH   9  10
ENDBRANCH   8   9
ENDBRANCH   2   3
BRANCH   2  16
ATOM     16  S   UNL     1       5.318   6.362  17.060  0.00  0.00    +0.000 S 
ATOM     17  O   UNL     1       4.103   7.079  16.697  0.00  0.00    +0.000 OA
ATOM     18  O   UNL     1       6.474   7.053  17.583  0.00  0.00    +0.000 OA
BRANCH  16  19
ATOM     19  C   UNL     1       5.853   5.493  15.606  0.00  0.00    +0.000 A 
ATOM     20  C   UNL     1       7.238   5.379  15.344  0.00  0.00    +0.000 A 
ATOM     21  C   UNL     1       7.697   4.724  14.200  0.00  0.00    +0.000 A 
ATOM     22  C   UNL     1       6.738   4.145  13.407  0.00  0.00    +0.000 A 
ATOM     23  N   UNL     1       6.859   3.376  12.287  0.00  0.00    +0.000 N 
ATOM     24  C   UNL     1       5.630   2.813  12.043  0.00  0.00    +0.000 A 
ATOM     25  O   UNL     1       5.427   1.912  11.239  0.00  0.00    +0.000 OA
ATOM     26  O   UNL     1       4.642   3.380  12.855  0.00  0.00    +0.000 OA
ATOM     27  C   UNL     1       5.388   4.190  13.695  0.00  0.00    +0.000 A 
ATOM     28  C   UNL     1       4.898   4.925  14.750  0.00  0.00    +0.000 A 
ATOM     29  H   UNL     1       7.689   3.171  11.758  0.00  0.00    +0.000 HD
ENDBRANCH  16  19
ENDBRANCH   2  16
TORSDOF 5
ENDMDL
MODEL 4
REMARK VINA RESULT:      -7.9      6.466     12.058
REMARK  Name = 
REMARK  6 active torsions:
REMARK  status: ('A' for Active; 'I' for Inactive)
REMARK    1  A    between atoms: C_1  and  N_2
REMARK    2  A    between atoms: N_2  and  C_3
REMARK    3  A    between atoms: N_2  and  S_16
REMARK    4  A    between atoms: C_8  and  O_9
REMARK    5  A    between atoms: O_9  and  C_10
REMARK    6  A    between atoms: S_16  and  C_19
REMARK                            x       y       z     vdW  Elec       q    Type
REMARK                         _______ _______ _______ _____ _____    ______ ____
ROOT
ATOM      1  C   UNL     1      -0.261  14.139  19.861  0.00  0.00    +0.000 C 
ATOM      2  N   UNL     1      -1.023  13.058  20.498  0.00  0.00    +0.000 N 
ENDROOT
BRANCH   2   3
ATOM      3  C   UNL     1      -1.650  12.074  19.661  0.00  0.00    +0.000 A 
ATOM      4  C   UNL     1      -3.020  12.159  19.397  0.00  0.00    +0.000 A 
ATOM      5  C   UNL     1      -3.592  11.383  18.388  0.00  0.00    +0.000 A 
ATOM      6  C   UNL     1      -2.791  10.563  17.599  0.00  0.00    +0.000 A 
ATOM      7  C   UNL     1      -1.436  10.453  17.879  0.00  0.00    +0.000 A 
ATOM      8  C   UNL     1      -0.873  11.129  18.966  0.00  0.00    +0.000 A 
BRANCH   8   9
ATOM      9  O   UNL     1       0.438  10.965  19.376  0.00  0.00    +0.000 OA
BRANCH   9  10
ATOM     10  C   UNL     1       1.055   9.746  19.194  0.00  0.00    +0.000 A 
ATOM     11  C   UNL     1       1.056   8.892  20.297  0.00  0.00    +0.000 A 
ATOM     12  C   UNL     1       1.763   7.691  20.242  0.00  0.00    +0.000 A 
ATOM     13  C   UNL     1       2.460   7.344  19.085  0.00  0.00    +0.000 A 
ATOM     14  C   UNL     1       2.394   8.162  17.957  0.00  0.00    +0.000 A 
ATOM     15  C   UNL     1       1.655   9.344  17.997  0.00  0.00    +0.000 A 
ENDBRANCH   9  10
ENDBRANCH   8   9
ENDBRANCH   2   3
BRANCH   2  16
ATOM     16  S   UNL     1      -0.878  12.848  22.163  0.00  0.00    +0.000 S 
ATOM     17  O   UNL     1      -0.783  11.423  22.453  0.00  0.00    +0.000 OA
ATOM     18  O   UNL     1       0.107  13.785  22.651  0.00  0.00    +0.000 OA
BRANCH  16  19
ATOM     19  C   UNL     1      -2.453  13.390  22.781  0.00  0.00    +0.000 A 
ATOM     20  C   UNL     1      -2.753  14.772  22.781  0.00  0.00    +0.000 A 
ATOM     21  C   UNL     1      -3.970  15.239  23.281  0.00  0.00    +0.000 A 
ATOM     22  C   UNL     1      -4.865  14.282  23.688  0.00  0.00    +0.000 A 
ATOM     23  N   UNL     1      -6.148  14.402  24.137  0.00  0.00    +0.000 N 
ATOM     24  C   UNL     1      -6.699  13.143  24.138  0.00  0.00    +0.000 A 
ATOM     25  O   UNL     1      -7.891  12.908  24.289  0.00  0.00    +0.000 OA
ATOM     26  O   UNL     1      -5.726  12.163  23.912  0.00  0.00    +0.000 OA
ATOM     27  C   UNL     1      -4.608  12.927  23.623  0.00  0.00    +0.000 A 
ATOM     28  C   UNL     1      -3.377  12.442  23.246  0.00  0.00    +0.000 A 
ATOM     29  H   UNL     1      -6.655  15.241  24.360  0.00  0.00    +0.000 HD
ENDBRANCH  16  19
ENDBRANCH   2  16
TORSDOF 5
ENDMDL
MODEL 5
REMARK VINA RESULT:      -7.8      2.679      3.461
REMARK  Name = 
REMARK  6 active torsions:
REMARK  status: ('A' for Active; 'I' for Inactive)
REMARK    1  A    between atoms: C_1  and  N_2
REMARK    2  A    between atoms: N_2  and  C_3
REMARK    3  A    between atoms: N_2  and  S_16
REMARK    4  A    between atoms: C_8  and  O_9
REMARK    5  A    between atoms: O_9  and  C_10
REMARK    6  A    between atoms: S_16  and  C_19
REMARK                            x       y       z     vdW  Elec       q    Type
REMARK                         _______ _______ _______ _____ _____    ______ ____
ROOT
ATOM      1  C   UNL     1       2.286   3.733  16.745  0.00  0.00    +0.000 C 
ATOM      2  N   UNL     1       3.082   3.619  17.973  0.00  0.00    +0.000 N 
ENDROOT
BRANCH   2   3
ATOM      3  C   UNL     1       2.400   3.626  19.236  0.00  0.00    +0.000 A 
ATOM      4  C   UNL     1       1.638   2.517  19.618  0.00  0.00    +0.000 A 
ATOM      5  C   UNL     1       1.190   2.392  20.934  0.00  0.00    +0.000 A 
ATOM      6  C   UNL     1       1.549   3.338  21.888  0.00  0.00    +0.000 A 
ATOM      7  C   UNL     1       2.278   4.456  21.504  0.00  0.00    +0.000 A 
ATOM      8  C   UNL     1       2.626   4.658  20.165  0.00  0.00    +0.000 A 
BRANCH   8   9
ATOM      9  O   UNL     1       3.239   5.806  19.696  0.00  0.00    +0.000 OA
BRANCH   9  10
ATOM     10  C   UNL     1       2.483   6.939  19.491  0.00  0.00    +0.000 A 
ATOM     11  C   UNL     1       2.429   7.408  18.178  0.00  0.00    +0.000 A 
ATOM     12  C   UNL     1       1.790   8.615  17.898  0.00  0.00    +0.000 A 
ATOM     13  C   UNL     1       1.200   9.347  18.929  0.00  0.00    +0.000 A 
ATOM     14  C   UNL     1       1.187   8.839  20.228  0.00  0.00    +0.000 A 
ATOM     15  C   UNL     1       1.791   7.614  20.502  0.00  0.00    +0.000 A 
ENDBRANCH   9  10
ENDBRANCH   8   9
ENDBRANCH   2   3
BRANCH   2  16
ATOM     16  S   UNL     1       4.704   3.187  17.839  0.00  0.00    +0.000 S 
ATOM     17  O   UNL     1       5.167   2.686  19.127  0.00  0.00    +0.000 OA
ATOM     18  O   UNL     1       4.866   2.417  16.627  0.00  0.00    +0.000 OA
BRANCH  16  19
ATOM     19  C   UNL     1       5.520   4.742  17.571  0.00  0.00    +0.000 A 
ATOM     20  C   UNL     1       4.985   5.646  16.625  0.00  0.00    +0.000 A 
ATOM     21  C   UNL     1       5.611   6.867  16.370  0.00  0.00    +0.000 A 
ATOM     22  C   UNL     1       6.710   7.157  17.139  0.00  0.00    +0.000 A 
ATOM     23  N   UNL     1       7.481   8.281  17.196  0.00  0.00    +0.000 N 
ATOM     24  C   UNL     1       8.268   8.181  18.318  0.00  0.00    +0.000 A 
ATOM     25  O   UNL     1       8.931   9.098  18.784  0.00  0.00    +0.000 OA
ATOM     26  O   UNL     1       8.190   6.901  18.878  0.00  0.00    +0.000 OA
ATOM     27  C   UNL     1       7.196   6.311  18.116  0.00  0.00    +0.000 A 
ATOM     28  C   UNL     1       6.672   5.054  18.310  0.00  0.00    +0.000 A 
ATOM     29  H   UNL     1       7.453   9.087  16.595  0.00  0.00    +0.000 HD
ENDBRANCH  16  19
ENDBRANCH   2  16
TORSDOF 5
ENDMDL
MODEL 6
REMARK VINA RESULT:      -7.8      2.684      3.831
REMARK  Name = 
REMARK  6 active torsions:
REMARK  status: ('A' for Active; 'I' for Inactive)
REMARK    1  A    between atoms: C_1  and  N_2
REMARK    2  A    between atoms: N_2  and  C_3
REMARK    3  A    between atoms: N_2  and  S_16
REMARK    4  A    between atoms: C_8  and  O_9
REMARK    5  A    between atoms: O_9  and  C_10
REMARK    6  A    between atoms: S_16  and  C_19
REMARK                            x       y       z     vdW  Elec       q    Type
REMARK                         _______ _______ _______ _____ _____    ______ ____
ROOT
ATOM      1  C   UNL     1       5.418   3.518  19.479  0.00  0.00    +0.000 C 
ATOM      2  N   UNL     1       4.508   3.765  18.354  0.00  0.00    +0.000 N 
ENDROOT
BRANCH   2   3
ATOM      3  C   UNL     1       3.096   3.610  18.567  0.00  0.00    +0.000 A 
ATOM      4  C   UNL     1       2.440   2.479  18.073  0.00  0.00    +0.000 A 
ATOM      5  C   UNL     1       1.142   2.180  18.491  0.00  0.00    +0.000 A 
ATOM      6  C   UNL     1       0.515   2.975  19.445  0.00  0.00    +0.000 A 
ATOM      7  C   UNL     1       1.151   4.116  19.913  0.00  0.00    +0.000 A 
ATOM      8  C   UNL     1       2.400   4.497  19.409  0.00  0.00    +0.000 A 
BRANCH   8   9
ATOM      9  O   UNL     1       3.030   5.684  19.737  0.00  0.00    +0.000 OA
BRANCH   9  10
ATOM     10  C   UNL     1       2.388   6.878  19.493  0.00  0.00    +0.000 A 
ATOM     11  C   UNL     1       2.415   7.328  18.172  0.00  0.00    +0.000 A 
ATOM     12  C   UNL     1       1.899   8.584  17.857  0.00  0.00    +0.000 A 
ATOM     13  C   UNL     1       1.351   9.384  18.860  0.00  0.00    +0.000 A 
ATOM     14  C   UNL     1       1.255   8.902  20.164  0.00  0.00    +0.000 A 
ATOM     15  C   UNL     1       1.735   7.631  20.474  0.00  0.00    +0.000 A 
ENDBRANCH   9  10
ENDBRANCH   8   9
ENDBRANCH   2   3
BRANCH   2  16
ATOM     16  S   UNL     1       5.124   4.502  16.971  0.00  0.00    +0.000 S 
ATOM     17  O   UNL     1       5.896   3.522  16.217  0.00  0.00    +0.000 OA
ATOM     18  O   UNL     1       4.061   5.261  16.353  0.00  0.00    +0.000 OA
BRANCH  16  19
ATOM     19  C   UNL     1       6.286   5.679  17.619  0.00  0.00    +0.000 A 
ATOM     20  C   UNL     1       7.314   5.228  18.478  0.00  0.00    +0.000 A 
ATOM     21  C   UNL     1       8.232   6.126  19.026  0.00  0.00    +0.000 A 
ATOM     22  C   UNL     1       8.118   7.432  18.621  0.00  0.00    +0.000 A 
ATOM     23  N   UNL     1       8.895   8.518  18.900  0.00  0.00    +0.000 N 
ATOM     24  C   UNL     1       8.530   9.517  18.030  0.00  0.00    +0.000 A 
ATOM     25  O   UNL     1       9.155  10.556  17.865  0.00  0.00    +0.000 OA
ATOM     26  O   UNL     1       7.364   9.180  17.332  0.00  0.00    +0.000 OA
ATOM     27  C   UNL     1       7.162   7.867  17.726  0.00  0.00    +0.000 A 
ATOM     28  C   UNL     1       6.174   7.031  17.260  0.00  0.00    +0.000 A 
ATOM     29  H   UNL     1       9.655   8.590  19.555  0.00  0.00    +0.000 HD
ENDBRANCH  16  19
ENDBRANCH   2  16
TORSDOF 5
ENDMDL
MODEL 7
REMARK VINA RESULT:      -7.7      5.993     11.240
REMARK  Name = 
REMARK  6 active torsions:
REMARK  status: ('A' for Active; 'I' for Inactive)
REMARK    1  A    between atoms: C_1  and  N_2
REMARK    2  A    between atoms: N_2  and  C_3
REMARK    3  A    between atoms: N_2  and  S_16
REMARK    4  A    between atoms: C_8  and  O_9
REMARK    5  A    between atoms: O_9  and  C_10
REMARK    6  A    between atoms: S_16  and  C_19
REMARK                            x       y       z     vdW  Elec       q    Type
REMARK                         _______ _______ _______ _____ _____    ______ ____
ROOT
ATOM      1  C   UNL     1       0.630  13.929  18.699  0.00  0.00    +0.000 C 
ATOM      2  N   UNL     1      -0.040  13.049  19.664  0.00  0.00    +0.000 N 
ENDROOT
BRANCH   2   3
ATOM      3  C   UNL     1      -0.908  12.019  19.166  0.00  0.00    +0.000 A 
ATOM      4  C   UNL     1      -2.293  12.210  19.184  0.00  0.00    +0.000 A 
ATOM      5  C   UNL     1      -3.130  11.351  18.472  0.00  0.00    +0.000 A 
ATOM      6  C   UNL     1      -2.589  10.334  17.693  0.00  0.00    +0.000 A 
ATOM      7  C   UNL     1      -1.217  10.122  17.698  0.00  0.00    +0.000 A 
ATOM      8  C   UNL     1      -0.377  10.895  18.505  0.00  0.00    +0.000 A 
BRANCH   8   9
ATOM      9  O   UNL     1       0.977  10.656  18.655  0.00  0.00    +0.000 OA
BRANCH   9  10
ATOM     10  C   UNL     1       1.418   9.364  18.842  0.00  0.00    +0.000 A 
ATOM     11  C   UNL     1       1.197   8.821  20.108  0.00  0.00    +0.000 A 
ATOM     12  C   UNL     1       1.718   7.568  20.425  0.00  0.00    +0.000 A 
ATOM     13  C   UNL     1       2.451   6.856  19.474  0.00  0.00    +0.000 A 
ATOM     14  C   UNL     1       2.605   7.366  18.186  0.00  0.00    +0.000 A 
ATOM     15  C   UNL     1       2.051   8.602  17.855  0.00  0.00    +0.000 A 
ENDBRANCH   9  10
ENDBRANCH   8   9
ENDBRANCH   2   3
BRANCH   2  16
ATOM     16  S   UNL     1       0.466  13.086  21.270  0.00  0.00    +0.000 S 
ATOM     17  O   UNL     1       0.918  11.755  21.654  0.00  0.00    +0.000 OA
ATOM     18  O   UNL     1       1.304  14.249  21.450  0.00  0.00    +0.000 OA
BRANCH  16  19
ATOM     19  C   UNL     1      -1.038  13.394  22.165  0.00  0.00    +0.000 A 
ATOM     20  C   UNL     1      -1.612  14.685  22.120  0.00  0.00    +0.000 A 
ATOM     21  C   UNL     1      -2.780  14.971  22.829  0.00  0.00    +0.000 A 
ATOM     22  C   UNL     1      -3.361  13.919  23.491  0.00  0.00    +0.000 A 
ATOM     23  N   UNL     1      -4.530  13.848  24.192  0.00  0.00    +0.000 N 
ATOM     24  C   UNL     1      -4.796  12.518  24.409  0.00  0.00    +0.000 A 
ATOM     25  O   UNL     1      -5.861  12.084  24.828  0.00  0.00    +0.000 OA
ATOM     26  O   UNL     1      -3.702  11.718  24.059  0.00  0.00    +0.000 OA
ATOM     27  C   UNL     1      -2.845  12.638  23.479  0.00  0.00    +0.000 A 
ATOM     28  C   UNL     1      -1.637  12.351  22.888  0.00  0.00    +0.000 A 
ATOM     29  H   UNL     1      -5.148  14.598  24.451  0.00  0.00    +0.000 HD
ENDBRANCH  16  19
ENDBRANCH   2  16
TORSDOF 5
ENDMDL
MODEL 8
REMARK VINA RESULT:      -7.7      6.343     11.897
REMARK  Name = 
REMARK  6 active torsions:
REMARK  status: ('A' for Active; 'I' for Inactive)
REMARK    1  A    between atoms: C_1  and  N_2
REMARK    2  A    between atoms: N_2  and  C_3
REMARK    3  A    between atoms: N_2  and  S_16
REMARK    4  A    between atoms: C_8  and  O_9
REMARK    5  A    between atoms: O_9  and  C_10
REMARK    6  A    between atoms: S_16  and  C_19
REMARK                            x       y       z     vdW  Elec       q    Type
REMARK                         _______ _______ _______ _____ _____    ______ ____
ROOT
ATOM      1  C   UNL     1      -0.548  13.870  18.965  0.00  0.00    +0.000 C 
ATOM      2  N   UNL     1      -1.240  12.814  19.714  0.00  0.00    +0.000 N 
ENDROOT
BRANCH   2   3
ATOM      3  C   UNL     1      -1.754  11.685  18.990  0.00  0.00    +0.000 A 
ATOM      4  C   UNL     1      -3.131  11.565  18.778  0.00  0.00    +0.000 A 
ATOM      5  C   UNL     1      -3.623  10.633  17.864  0.00  0.00    +0.000 A 
ATOM      6  C   UNL     1      -2.744   9.857  17.115  0.00  0.00    +0.000 A 
ATOM      7  C   UNL     1      -1.379   9.951  17.346  0.00  0.00    +0.000 A 
ATOM      8  C   UNL     1      -0.878  10.790  18.348  0.00  0.00    +0.000 A 
BRANCH   8   9
ATOM      9  O   UNL     1       0.454  10.837  18.715  0.00  0.00    +0.000 OA
BRANCH   9  10
ATOM     10  C   UNL     1       1.107   9.668  19.040  0.00  0.00    +0.000 A 
ATOM     11  C   UNL     1       1.884   9.100  18.030  0.00  0.00    +0.000 A 
ATOM     12  C   UNL     1       2.479   7.855  18.231  0.00  0.00    +0.000 A 
ATOM     13  C   UNL     1       2.302   7.184  19.441  0.00  0.00    +0.000 A 
ATOM     14  C   UNL     1       1.590   7.788  20.477  0.00  0.00    +0.000 A 
ATOM     15  C   UNL     1       1.027   9.049  20.292  0.00  0.00    +0.000 A 
ENDBRANCH   9  10
ENDBRANCH   8   9
ENDBRANCH   2   3
BRANCH   2  16
ATOM     16  S   UNL     1      -1.135  12.822  21.394  0.00  0.00    +0.000 S 
ATOM     17  O   UNL     1      -0.956  11.454  21.863  0.00  0.00    +0.000 OA
ATOM     18  O   UNL     1      -0.229  13.878  21.784  0.00  0.00    +0.000 OA
BRANCH  16  19
ATOM     19  C   UNL     1      -2.761  13.327  21.902  0.00  0.00    +0.000 A 
ATOM     20  C   UNL     1      -3.339  14.476  21.314  0.00  0.00    +0.000 A 
ATOM     21  C   UNL     1      -4.604  14.918  21.704  0.00  0.00    +0.000 A 
ATOM     22  C   UNL     1      -5.265  14.135  22.616  0.00  0.00    +0.000 A 
ATOM     23  N   UNL     1      -6.526  14.241  23.128  0.00  0.00    +0.000 N 
ATOM     24  C   UNL     1      -6.806  13.061  23.774  0.00  0.00    +0.000 A 
ATOM     25  O   UNL     1      -7.916  12.735  24.172  0.00  0.00    +0.000 OA
ATOM     26  O   UNL     1      -5.661  12.264  23.891  0.00  0.00    +0.000 OA
ATOM     27  C   UNL     1      -4.738  12.972  23.140  0.00  0.00    +0.000 A 
ATOM     28  C   UNL     1      -3.450  12.574  22.865  0.00  0.00    +0.000 A 
ATOM     29  H   UNL     1      -7.186  14.991  23.010  0.00  0.00    +0.000 HD
ENDBRANCH  16  19
ENDBRANCH   2  16
TORSDOF 5
ENDMDL
MODEL 9
REMARK VINA RESULT:      -7.5      6.122     11.589
REMARK  Name = 
REMARK  6 active torsions:
REMARK  status: ('A' for Active; 'I' for Inactive)
REMARK    1  A    between atoms: C_1  and  N_2
REMARK    2  A    between atoms: N_2  and  C_3
REMARK    3  A    between atoms: N_2  and  S_16
REMARK    4  A    between atoms: C_8  and  O_9
REMARK    5  A    between atoms: O_9  and  C_10
REMARK    6  A    between atoms: S_16  and  C_19
REMARK                            x       y       z     vdW  Elec       q    Type
REMARK                         _______ _______ _______ _____ _____    ______ ____
ROOT
ATOM      1  C   UNL     1       0.230  13.864  19.103  0.00  0.00    +0.000 C 
ATOM      2  N   UNL     1      -0.392  12.812  19.915  0.00  0.00    +0.000 N 
ENDROOT
BRANCH   2   3
ATOM      3  C   UNL     1      -1.101  11.758  19.246  0.00  0.00    +0.000 A 
ATOM      4  C   UNL     1      -2.497  11.803  19.166  0.00  0.00    +0.000 A 
ATOM      5  C   UNL     1      -3.179  10.943  18.305  0.00  0.00    +0.000 A 
ATOM      6  C   UNL     1      -2.473  10.077  17.477  0.00  0.00    +0.000 A 
ATOM      7  C   UNL     1      -1.090  10.007  17.577  0.00  0.00    +0.000 A 
ATOM      8  C   UNL     1      -0.402  10.772  18.525  0.00  0.00    +0.000 A 
BRANCH   8   9
ATOM      9  O   UNL     1       0.955  10.659  18.763  0.00  0.00    +0.000 OA
BRANCH   9  10
ATOM     10  C   UNL     1       1.502   9.412  18.974  0.00  0.00    +0.000 A 
ATOM     11  C   UNL     1       2.240   8.882  17.916  0.00  0.00    +0.000 A 
ATOM     12  C   UNL     1       2.725   7.577  17.994  0.00  0.00    +0.000 A 
ATOM     13  C   UNL     1       2.478   6.808  19.131  0.00  0.00    +0.000 A 
ATOM     14  C   UNL     1       1.806   7.365  20.219  0.00  0.00    +0.000 A 
ATOM     15  C   UNL     1       1.355   8.682  20.158  0.00  0.00    +0.000 A 
ENDBRANCH   9  10
ENDBRANCH   8   9
ENDBRANCH   2   3
BRANCH   2  16
ATOM     16  S   UNL     1       0.005  12.720  21.549  0.00  0.00    +0.000 S 
ATOM     17  O   UNL     1       0.288  11.332  21.889  0.00  0.00    +0.000 OA
ATOM     18  O   UNL     1       0.947  13.776  21.843  0.00  0.00    +0.000 OA
BRANCH  16  19
ATOM     19  C   UNL     1      -1.515  13.147  22.363  0.00  0.00    +0.000 A 
ATOM     20  C   UNL     1      -2.209  12.151  23.089  0.00  0.00    +0.000 A 
ATOM     21  C   UNL     1      -3.419  12.441  23.722  0.00  0.00    +0.000 A 
ATOM     22  C   UNL     1      -3.837  13.746  23.659  0.00  0.00    +0.000 A 
ATOM     23  N   UNL     1      -4.911  14.362  24.235  0.00  0.00    +0.000 N 
ATOM     24  C   UNL     1      -4.724  15.717  24.104  0.00  0.00    +0.000 A 
ATOM     25  O   UNL     1      -5.388  16.567  24.681  0.00  0.00    +0.000 OA
ATOM     26  O   UNL     1      -3.653  16.000  23.249  0.00  0.00    +0.000 OA
ATOM     27  C   UNL     1      -3.128  14.740  23.015  0.00  0.00    +0.000 A 
ATOM     28  C   UNL     1      -1.996  14.462  22.285  0.00  0.00    +0.000 A 
ATOM     29  H   UNL     1      -5.674  13.943  24.738  0.00  0.00    +0.000 HD
ENDBRANCH  16  19
ENDBRANCH   2  16
TORSDOF 5
ENDMDL
