MODEL 1
REMARK VINA RESULT:      -9.1      0.000      0.000
REMARK  Name = 
REMARK  4 active torsions:
REMARK  status: ('A' for Active; 'I' for Inactive)
REMARK    1  A    between atoms: C_1  and  C_2
REMARK    2  A    between atoms: C_2  and  C_3
REMARK    3  A    between atoms: C_5  and  N_6
REMARK    4  A    between atoms: C_7  and  C_9
REMARK                            x       y       z     vdW  Elec       q    Type
REMARK                         _______ _______ _______ _____ _____    ______ ____
ROOT
ATOM      1  N   UNL     1       2.543   7.227  18.790  0.00  0.00    +0.000 N 
ATOM      2  C   UNL     1       2.140   8.434  18.245  0.00  0.00    +0.000 C 
ATOM      3  O   UNL     1       2.502   8.887  17.162  0.00  0.00    +0.000 OA
ATOM      4  H   UNL     1       2.182   7.006  19.717  0.00  0.00    +0.000 HD
ENDROOT
BRANCH   2   5
ATOM      5  C   UNL     1       1.239   9.248  19.113  0.00  0.00    +0.000 A 
ATOM      6  C   UNL     1       0.797  10.426  18.650  0.00  0.00    +0.000 A 
ATOM      7  N   UNL     1       0.051  11.331  19.352  0.00  0.00    +0.000 NA
ATOM      8  C   UNL     1      -0.228  11.037  20.584  0.00  0.00    +0.000 A 
ATOM      9  C   UNL     1      -0.964  12.030  21.412  0.00  0.00    +0.000 A 
ATOM     10  C   UNL     1      -1.234  11.759  22.694  0.00  0.00    +0.000 A 
ATOM     11  C   UNL     1      -0.842  10.501  23.271  0.00  0.00    +0.000 A 
ATOM     12  C   UNL     1      -0.192   9.598  22.527  0.00  0.00    +0.000 A 
ATOM     13  N   UNL     1       0.135   9.844  21.199  0.00  0.00    +0.000 N 
ATOM     14  C   UNL     1       0.836   8.879  20.487  0.00  0.00    +0.000 A 
ATOM     15  O   UNL     1       1.152   7.773  20.937  0.00  0.00    +0.000 OA
ENDBRANCH   2   5
BRANCH   1  18
ATOM     16  C   UNL     1       5.522   5.719  17.188  0.00  0.00    +0.000 A 
ATOM     17  C   UNL     1       4.678   6.664  17.742  0.00  0.00    +0.000 A 
ATOM     18  C   UNL     1       3.428   6.275  18.214  0.00  0.00    +0.000 A 
ATOM     19  C   UNL     1       3.047   4.907  18.107  0.00  0.00    +0.000 A 
ATOM     20  C   UNL     1       1.838   4.339  18.605  0.00  0.00    +0.000 A 
ATOM     21  C   UNL     1       1.547   2.983  18.445  0.00  0.00    +0.000 A 
ATOM     22  C   UNL     1       2.447   2.161  17.784  0.00  0.00    +0.000 A 
ATOM     23  C   UNL     1       3.645   2.696  17.316  0.00  0.00    +0.000 A 
ATOM     24  C   UNL     1       3.968   4.035  17.479  0.00  0.00    +0.000 A 
ATOM     25  N   UNL     1       5.169   4.428  17.039  0.00  0.00    +0.000 NA
BRANCH  16  27
ATOM     26  C   UNL     1       7.352   7.355  17.572  0.00  0.00    +0.000 C 
ATOM     27  C   UNL     1       6.929   6.103  16.816  0.00  0.00    +0.000 C 
ENDBRANCH  16  27
ENDBRANCH   1  18
TORSDOF 3
ENDMDL
MODEL 2
REMARK VINA RESULT:      -8.7      1.388      1.967
REMARK  Name = 
REMARK  4 active torsions:
REMARK  status: ('A' for Active; 'I' for Inactive)
REMARK    1  A    between atoms: C_1  and  C_2
REMARK    2  A    between atoms: C_2  and  C_3
REMARK    3  A    between atoms: C_5  and  N_6
REMARK    4  A    between atoms: C_7  and  C_9
REMARK                            x       y       z     vdW  Elec       q    Type
REMARK                         _______ _______ _______ _____ _____    ______ ____
ROOT
ATOM      1  N   UNL     1       2.504   6.668  19.999  0.00  0.00    +0.000 N 
ATOM      2  C   UNL     1       2.021   7.807  19.379  0.00  0.00    +0.000 C 
ATOM      3  O   UNL     1       2.191   8.106  18.199  0.00  0.00    +0.000 OA
ATOM      4  H   UNL     1       2.309   6.579  20.995  0.00  0.00    +0.000 HD
ENDROOT
BRANCH   2   5
ATOM      5  C   UNL     1       1.294   8.754  20.275  0.00  0.00    +0.000 A 
ATOM      6  C   UNL     1       1.311   8.525  21.595  0.00  0.00    +0.000 A 
ATOM      7  N   UNL     1       0.620   9.233  22.538  0.00  0.00    +0.000 NA
ATOM      8  C   UNL     1      -0.144  10.192  22.113  0.00  0.00    +0.000 A 
ATOM      9  C   UNL     1      -0.980  10.935  23.094  0.00  0.00    +0.000 A 
ATOM     10  C   UNL     1      -1.798  11.906  22.672  0.00  0.00    +0.000 A 
ATOM     11  C   UNL     1      -1.853  12.257  21.278  0.00  0.00    +0.000 A 
ATOM     12  C   UNL     1      -1.092  11.603  20.393  0.00  0.00    +0.000 A 
ATOM     13  N   UNL     1      -0.248  10.568  20.779  0.00  0.00    +0.000 N 
ATOM     14  C   UNL     1       0.496   9.907  19.809  0.00  0.00    +0.000 A 
ATOM     15  O   UNL     1       0.504  10.209  18.612  0.00  0.00    +0.000 OA
ENDBRANCH   2   5
BRANCH   1  18
ATOM     16  C   UNL     1       5.315   4.795  18.482  0.00  0.00    +0.000 A 
ATOM     17  C   UNL     1       4.594   5.828  19.052  0.00  0.00    +0.000 A 
ATOM     18  C   UNL     1       3.265   5.623  19.409  0.00  0.00    +0.000 A 
ATOM     19  C   UNL     1       2.677   4.348  19.169  0.00  0.00    +0.000 A 
ATOM     20  C   UNL     1       1.358   3.957  19.540  0.00  0.00    +0.000 A 
ATOM     21  C   UNL     1       0.865   2.682  19.254  0.00  0.00    +0.000 A 
ATOM     22  C   UNL     1       1.668   1.768  18.590  0.00  0.00    +0.000 A 
ATOM     23  C   UNL     1       2.970   2.126  18.246  0.00  0.00    +0.000 A 
ATOM     24  C   UNL     1       3.491   3.379  18.535  0.00  0.00    +0.000 A 
ATOM     25  N   UNL     1       4.772   3.594  18.208  0.00  0.00    +0.000 NA
BRANCH  16  27
ATOM     26  C   UNL     1       7.434   5.731  19.381  0.00  0.00    +0.000 C 
ATOM     27  C   UNL     1       6.791   4.963  18.235  0.00  0.00    +0.000 C 
ENDBRANCH  16  27
ENDBRANCH   1  18
TORSDOF 3
ENDMDL
MODEL 3
REMARK VINA RESULT:      -8.6      1.037      1.094
REMARK  Name = 
REMARK  4 active torsions:
REMARK  status: ('A' for Active; 'I' for Inactive)
REMARK    1  A    between atoms: C_1  and  C_2
REMARK    2  A    between atoms: C_2  and  C_3
REMARK    3  A    between atoms: C_5  and  N_6
REMARK    4  A    between atoms: C_7  and  C_9
REMARK                            x       y       z     vdW  Elec       q    Type
REMARK                         _______ _______ _______ _____ _____    ______ ____
ROOT
ATOM      1  N   UNL     1       2.510   7.067  19.528  0.00  0.00    +0.000 N 
ATOM      2  C   UNL     1       2.104   8.085  18.682  0.00  0.00    +0.000 C 
ATOM      3  O   UNL     1       2.365   8.168  17.484  0.00  0.00    +0.000 OA
ATOM      4  H   UNL     1       2.243   7.159  20.506  0.00  0.00    +0.000 HD
ENDROOT
BRANCH   2   5
ATOM      5  C   UNL     1       1.341   9.186  19.341  0.00  0.00    +0.000 A 
ATOM      6  C   UNL     1       1.341  10.396  18.767  0.00  0.00    +0.000 A 
ATOM      7  N   UNL     1       0.778  11.528  19.288  0.00  0.00    +0.000 NA
ATOM      8  C   UNL     1       0.223  11.427  20.456  0.00  0.00    +0.000 A 
ATOM      9  C   UNL     1      -0.327  12.650  21.101  0.00  0.00    +0.000 A 
ATOM     10  C   UNL     1      -0.875  12.572  22.319  0.00  0.00    +0.000 A 
ATOM     11  C   UNL     1      -0.964  11.307  22.999  0.00  0.00    +0.000 A 
ATOM     12  C   UNL     1      -0.485  10.201  22.417  0.00  0.00    +0.000 A 
ATOM     13  N   UNL     1       0.119  10.235  21.166  0.00  0.00    +0.000 N 
ATOM     14  C   UNL     1       0.624   9.058  20.627  0.00  0.00    +0.000 A 
ATOM     15  O   UNL     1       0.528   7.950  21.164  0.00  0.00    +0.000 OA
ENDBRANCH   2   5
BRANCH   1  18
ATOM     16  C   UNL     1       5.339   4.928  18.463  0.00  0.00    +0.000 A 
ATOM     17  C   UNL     1       4.607   6.056  18.785  0.00  0.00    +0.000 A 
ATOM     18  C   UNL     1       3.283   5.923  19.189  0.00  0.00    +0.000 A 
ATOM     19  C   UNL     1       2.710   4.620  19.253  0.00  0.00    +0.000 A 
ATOM     20  C   UNL     1       1.397   4.310  19.713  0.00  0.00    +0.000 A 
ATOM     21  C   UNL     1       0.920   2.998  19.732  0.00  0.00    +0.000 A 
ATOM     22  C   UNL     1       1.732   1.965  19.291  0.00  0.00    +0.000 A 
ATOM     23  C   UNL     1       3.028   2.249  18.865  0.00  0.00    +0.000 A 
ATOM     24  C   UNL     1       3.534   3.541  18.854  0.00  0.00    +0.000 A 
ATOM     25  N   UNL     1       4.810   3.690  18.477  0.00  0.00    +0.000 NA
BRANCH  16  27
ATOM     26  C   UNL     1       7.176   6.504  17.903  0.00  0.00    +0.000 C 
ATOM     27  C   UNL     1       6.812   5.052  18.174  0.00  0.00    +0.000 C 
ENDBRANCH  16  27
ENDBRANCH   1  18
TORSDOF 3
ENDMDL
MODEL 4
REMARK VINA RESULT:      -8.6      1.248      1.531
REMARK  Name = 
REMARK  4 active torsions:
REMARK  status: ('A' for Active; 'I' for Inactive)
REMARK    1  A    between atoms: C_1  and  C_2
REMARK    2  A    between atoms: C_2  and  C_3
REMARK    3  A    between atoms: C_5  and  N_6
REMARK    4  A    between atoms: C_7  and  C_9
REMARK                            x       y       z     vdW  Elec       q    Type
REMARK                         _______ _______ _______ _____ _____    ______ ____
ROOT
ATOM      1  N   UNL     1       2.186   7.649  19.331  0.00  0.00    +0.000 N 
ATOM      2  C   UNL     1       1.776   8.718  18.553  0.00  0.00    +0.000 C 
ATOM      3  O   UNL     1       1.963   8.838  17.345  0.00  0.00    +0.000 OA
ATOM      4  H   UNL     1       1.986   7.711  20.328  0.00  0.00    +0.000 HD
ENDROOT
BRANCH   2   5
ATOM      5  C   UNL     1       1.109   9.823  19.303  0.00  0.00    +0.000 A 
ATOM      6  C   UNL     1       1.291  11.082  18.881  0.00  0.00    +0.000 A 
ATOM      7  N   UNL     1       0.836  12.208  19.507  0.00  0.00    +0.000 NA
ATOM      8  C   UNL     1       0.198  12.045  20.625  0.00  0.00    +0.000 A 
ATOM      9  C   UNL     1      -0.242  13.245  21.386  0.00  0.00    +0.000 A 
ATOM     10  C   UNL     1      -0.873  13.099  22.556  0.00  0.00    +0.000 A 
ATOM     11  C   UNL     1      -1.156  11.786  23.072  0.00  0.00    +0.000 A 
ATOM     12  C   UNL     1      -0.776  10.702  22.385  0.00  0.00    +0.000 A 
ATOM     13  N   UNL     1      -0.093  10.803  21.178  0.00  0.00    +0.000 N 
ATOM     14  C   UNL     1       0.300   9.641  20.527  0.00  0.00    +0.000 A 
ATOM     15  O   UNL     1       0.038   8.499  20.919  0.00  0.00    +0.000 OA
ENDBRANCH   2   5
BRANCH   1  18
ATOM     16  C   UNL     1       4.586   5.437  17.579  0.00  0.00    +0.000 A 
ATOM     17  C   UNL     1       3.923   6.582  17.983  0.00  0.00    +0.000 A 
ATOM     18  C   UNL     1       2.881   6.486  18.898  0.00  0.00    +0.000 A 
ATOM     19  C   UNL     1       2.516   5.201  19.393  0.00  0.00    +0.000 A 
ATOM     20  C   UNL     1       1.524   4.941  20.384  0.00  0.00    +0.000 A 
ATOM     21  C   UNL     1       1.229   3.642  20.801  0.00  0.00    +0.000 A 
ATOM     22  C   UNL     1       1.910   2.571  20.243  0.00  0.00    +0.000 A 
ATOM     23  C   UNL     1       2.902   2.810  19.294  0.00  0.00    +0.000 A 
ATOM     24  C   UNL     1       3.227   4.092  18.876  0.00  0.00    +0.000 A 
ATOM     25  N   UNL     1       4.234   4.208  18.001  0.00  0.00    +0.000 NA
BRANCH  16  27
ATOM     26  C   UNL     1       5.512   5.034  15.309  0.00  0.00    +0.000 C 
ATOM     27  C   UNL     1       5.809   5.551  16.709  0.00  0.00    +0.000 C 
ENDBRANCH  16  27
ENDBRANCH   1  18
TORSDOF 3
ENDMDL
MODEL 5
REMARK VINA RESULT:      -8.5      1.220      1.902
REMARK  Name = 
REMARK  4 active torsions:
REMARK  status: ('A' for Active; 'I' for Inactive)
REMARK    1  A    between atoms: C_1  and  C_2
REMARK    2  A    between atoms: C_2  and  C_3
REMARK    3  A    between atoms: C_5  and  N_6
REMARK    4  A    between atoms: C_7  and  C_9
REMARK                            x       y       z     vdW  Elec       q    Type
REMARK                         _______ _______ _______ _____ _____    ______ ____
ROOT
ATOM      1  N   UNL     1       2.154   7.079  19.247  0.00  0.00    +0.000 N 
ATOM      2  C   UNL     1       1.753   8.341  18.847  0.00  0.00    +0.000 C 
ATOM      3  O   UNL     1       1.952   8.839  17.741  0.00  0.00    +0.000 OA
ATOM      4  H   UNL     1       1.945   6.822  20.210  0.00  0.00    +0.000 HD
ENDROOT
BRANCH   2   5
ATOM      5  C   UNL     1       1.081   9.154  19.903  0.00  0.00    +0.000 A 
ATOM      6  C   UNL     1       1.215   8.776  21.182  0.00  0.00    +0.000 A 
ATOM      7  N   UNL     1       0.589   9.348  22.253  0.00  0.00    +0.000 NA
ATOM      8  C   UNL     1      -0.231  10.324  22.007  0.00  0.00    +0.000 A 
ATOM      9  C   UNL     1      -1.000  10.920  23.132  0.00  0.00    +0.000 A 
ATOM     10  C   UNL     1      -1.873  11.906  22.894  0.00  0.00    +0.000 A 
ATOM     11  C   UNL     1      -2.053  12.412  21.560  0.00  0.00    +0.000 A 
ATOM     12  C   UNL     1      -1.354  11.890  20.546  0.00  0.00    +0.000 A 
ATOM     13  N   UNL     1      -0.455  10.846  20.738  0.00  0.00    +0.000 N 
ATOM     14  C   UNL     1       0.220  10.326  19.641  0.00  0.00    +0.000 A 
ATOM     15  O   UNL     1       0.120  10.763  18.490  0.00  0.00    +0.000 OA
ENDBRANCH   2   5
BRANCH   1  18
ATOM     16  C   UNL     1       4.589   5.524  16.929  0.00  0.00    +0.000 A 
ATOM     17  C   UNL     1       3.925   6.484  17.671  0.00  0.00    +0.000 A 
ATOM     18  C   UNL     1       2.851   6.111  18.473  0.00  0.00    +0.000 A 
ATOM     19  C   UNL     1       2.457   4.743  18.503  0.00  0.00    +0.000 A 
ATOM     20  C   UNL     1       1.430   4.190  19.322  0.00  0.00    +0.000 A 
ATOM     21  C   UNL     1       1.109   2.832  19.277  0.00  0.00    +0.000 A 
ATOM     22  C   UNL     1       1.796   1.992  18.414  0.00  0.00    +0.000 A 
ATOM     23  C   UNL     1       2.822   2.512  17.627  0.00  0.00    +0.000 A 
ATOM     24  C   UNL     1       3.174   3.853  17.667  0.00  0.00    +0.000 A 
ATOM     25  N   UNL     1       4.211   4.231  16.909  0.00  0.00    +0.000 NA
BRANCH  16  27
ATOM     26  C   UNL     1       5.927   5.117  14.876  0.00  0.00    +0.000 C 
ATOM     27  C   UNL     1       5.842   5.894  16.181  0.00  0.00    +0.000 C 
ENDBRANCH  16  27
ENDBRANCH   1  18
TORSDOF 3
ENDMDL
MODEL 6
REMARK VINA RESULT:      -8.5      1.185      3.666
REMARK  Name = 
REMARK  4 active torsions:
REMARK  status: ('A' for Active; 'I' for Inactive)
REMARK    1  A    between atoms: C_1  and  C_2
REMARK    2  A    between atoms: C_2  and  C_3
REMARK    3  A    between atoms: C_5  and  N_6
REMARK    4  A    between atoms: C_7  and  C_9
REMARK                            x       y       z     vdW  Elec       q    Type
REMARK                         _______ _______ _______ _____ _____    ______ ____
ROOT
ATOM      1  N   UNL     1       2.689   7.033  18.898  0.00  0.00    +0.000 N 
ATOM      2  C   UNL     1       1.947   7.162  20.059  0.00  0.00    +0.000 C 
ATOM      3  O   UNL     1       1.622   6.243  20.807  0.00  0.00    +0.000 OA
ATOM      4  H   UNL     1       2.846   7.886  18.365  0.00  0.00    +0.000 HD
ENDROOT
BRANCH   2   5
ATOM      5  C   UNL     1       1.468   8.545  20.351  0.00  0.00    +0.000 A 
ATOM      6  C   UNL     1       1.383   8.936  21.630  0.00  0.00    +0.000 A 
ATOM      7  N   UNL     1       0.875  10.126  22.070  0.00  0.00    +0.000 NA
ATOM      8  C   UNL     1       0.405  10.935  21.171  0.00  0.00    +0.000 A 
ATOM      9  C   UNL     1      -0.236  12.204  21.609  0.00  0.00    +0.000 A 
ATOM     10  C   UNL     1      -0.756  13.037  20.700  0.00  0.00    +0.000 A 
ATOM     11  C   UNL     1      -0.673  12.728  19.297  0.00  0.00    +0.000 A 
ATOM     12  C   UNL     1      -0.085  11.595  18.897  0.00  0.00    +0.000 A 
ATOM     13  N   UNL     1       0.445  10.684  19.804  0.00  0.00    +0.000 N 
ATOM     14  C   UNL     1       1.017   9.512  19.328  0.00  0.00    +0.000 A 
ATOM     15  O   UNL     1       1.142   9.233  18.131  0.00  0.00    +0.000 OA
ENDBRANCH   2   5
BRANCH   1  18
ATOM     16  C   UNL     1       3.055   3.502  17.840  0.00  0.00    +0.000 A 
ATOM     17  C   UNL     1       2.507   4.651  18.381  0.00  0.00    +0.000 A 
ATOM     18  C   UNL     1       3.232   5.838  18.352  0.00  0.00    +0.000 A 
ATOM     19  C   UNL     1       4.532   5.836  17.769  0.00  0.00    +0.000 A 
ATOM     20  C   UNL     1       5.369   6.977  17.598  0.00  0.00    +0.000 A 
ATOM     21  C   UNL     1       6.636   6.875  17.020  0.00  0.00    +0.000 A 
ATOM     22  C   UNL     1       7.103   5.638  16.603  0.00  0.00    +0.000 A 
ATOM     23  C   UNL     1       6.285   4.517  16.738  0.00  0.00    +0.000 A 
ATOM     24  C   UNL     1       5.015   4.595  17.291  0.00  0.00    +0.000 A 
ATOM     25  N   UNL     1       4.296   3.465  17.320  0.00  0.00    +0.000 NA
BRANCH  16  27
ATOM     26  C   UNL     1       1.083   2.292  18.745  0.00  0.00    +0.000 C 
ATOM     27  C   UNL     1       2.217   2.256  17.732  0.00  0.00    +0.000 C 
ENDBRANCH  16  27
ENDBRANCH   1  18
TORSDOF 3
ENDMDL
MODEL 7
REMARK VINA RESULT:      -8.2      2.282      7.858
REMARK  Name = 
REMARK  4 active torsions:
REMARK  status: ('A' for Active; 'I' for Inactive)
REMARK    1  A    between atoms: C_1  and  C_2
REMARK    2  A    between atoms: C_2  and  C_3
REMARK    3  A    between atoms: C_5  and  N_6
REMARK    4  A    between atoms: C_7  and  C_9
REMARK                            x       y       z     vdW  Elec       q    Type
REMARK                         _______ _______ _______ _____ _____    ______ ____
ROOT
ATOM      1  N   UNL     1       0.385   9.297  19.193  0.00  0.00    +0.000 N 
ATOM      2  C   UNL     1       1.615   9.410  18.569  0.00  0.00    +0.000 C 
ATOM      3  O   UNL     1       2.049  10.419  18.019  0.00  0.00    +0.000 OA
ATOM      4  H   UNL     1       0.152   8.381  19.573  0.00  0.00    +0.000 HD
ENDROOT
BRANCH   2   5
ATOM      5  C   UNL     1       2.420   8.153  18.530  0.00  0.00    +0.000 A 
ATOM      6  C   UNL     1       3.228   7.944  17.483  0.00  0.00    +0.000 A 
ATOM      7  N   UNL     1       3.953   6.810  17.247  0.00  0.00    +0.000 NA
ATOM      8  C   UNL     1       3.822   5.838  18.097  0.00  0.00    +0.000 A 
ATOM      9  C   UNL     1       4.525   4.553  17.836  0.00  0.00    +0.000 A 
ATOM     10  C   UNL     1       4.377   3.528  18.683  0.00  0.00    +0.000 A 
ATOM     11  C   UNL     1       3.565   3.670  19.863  0.00  0.00    +0.000 A 
ATOM     12  C   UNL     1       2.943   4.828  20.111  0.00  0.00    +0.000 A 
ATOM     13  N   UNL     1       3.043   5.912  19.246  0.00  0.00    +0.000 N 
ATOM     14  C   UNL     1       2.349   7.079  19.543  0.00  0.00    +0.000 A 
ATOM     15  O   UNL     1       1.678   7.249  20.565  0.00  0.00    +0.000 OA
ENDBRANCH   2   5
BRANCH   1  18
ATOM     16  C   UNL     1      -1.570  12.128  20.565  0.00  0.00    +0.000 A 
ATOM     17  C   UNL     1      -0.601  11.149  20.448  0.00  0.00    +0.000 A 
ATOM     18  C   UNL     1      -0.603  10.310  19.338  0.00  0.00    +0.000 A 
ATOM     19  C   UNL     1      -1.615  10.478  18.350  0.00  0.00    +0.000 A 
ATOM     20  C   UNL     1      -1.713   9.752  17.127  0.00  0.00    +0.000 A 
ATOM     21  C   UNL     1      -2.749   9.983  16.220  0.00  0.00    +0.000 A 
ATOM     22  C   UNL     1      -3.714  10.937  16.508  0.00  0.00    +0.000 A 
ATOM     23  C   UNL     1      -3.616  11.674  17.686  0.00  0.00    +0.000 A 
ATOM     24  C   UNL     1      -2.586  11.478  18.595  0.00  0.00    +0.000 A 
ATOM     25  N   UNL     1      -2.561  12.281  19.666  0.00  0.00    +0.000 NA
BRANCH  16  27
ATOM     26  C   UNL     1      -1.700  12.451  23.025  0.00  0.00    +0.000 C 
ATOM     27  C   UNL     1      -1.483  13.133  21.682  0.00  0.00    +0.000 C 
ENDBRANCH  16  27
ENDBRANCH   1  18
TORSDOF 3
ENDMDL
MODEL 8
REMARK VINA RESULT:      -8.2      1.579      3.728
REMARK  Name = 
REMARK  4 active torsions:
REMARK  status: ('A' for Active; 'I' for Inactive)
REMARK    1  A    between atoms: C_1  and  C_2
REMARK    2  A    between atoms: C_2  and  C_3
REMARK    3  A    between atoms: C_5  and  N_6
REMARK    4  A    between atoms: C_7  and  C_9
REMARK                            x       y       z     vdW  Elec       q    Type
REMARK                         _______ _______ _______ _____ _____    ______ ____
ROOT
ATOM      1  N   UNL     1       2.226   7.375  19.323  0.00  0.00    +0.000 N 
ATOM      2  C   UNL     1       1.479   7.755  20.425  0.00  0.00    +0.000 C 
ATOM      3  O   UNL     1       1.040   6.999  21.287  0.00  0.00    +0.000 OA
ATOM      4  H   UNL     1       2.488   8.117  18.676  0.00  0.00    +0.000 HD
ENDROOT
BRANCH   2   5
ATOM      5  C   UNL     1       1.151   9.210  20.492  0.00  0.00    +0.000 A 
ATOM      6  C   UNL     1       1.085   9.795  21.696  0.00  0.00    +0.000 A 
ATOM      7  N   UNL     1       0.703  11.085  21.937  0.00  0.00    +0.000 NA
ATOM      8  C   UNL     1       0.343  11.796  20.913  0.00  0.00    +0.000 A 
ATOM      9  C   UNL     1      -0.162  13.177  21.137  0.00  0.00    +0.000 A 
ATOM     10  C   UNL     1      -0.567  13.915  20.097  0.00  0.00    +0.000 A 
ATOM     11  C   UNL     1      -0.491  13.391  18.759  0.00  0.00    +0.000 A 
ATOM     12  C   UNL     1      -0.024  12.155  18.550  0.00  0.00    +0.000 A 
ATOM     13  N   UNL     1       0.383  11.340  19.600  0.00  0.00    +0.000 N 
ATOM     14  C   UNL     1       0.831  10.055  19.322  0.00  0.00    +0.000 A 
ATOM     15  O   UNL     1       0.947   9.588  18.185  0.00  0.00    +0.000 OA
ENDBRANCH   2   5
BRANCH   1  18
ATOM     16  C   UNL     1       2.542   3.685  19.285  0.00  0.00    +0.000 A 
ATOM     17  C   UNL     1       2.122   4.954  19.640  0.00  0.00    +0.000 A 
ATOM     18  C   UNL     1       2.644   6.061  18.978  0.00  0.00    +0.000 A 
ATOM     19  C   UNL     1       3.609   5.856  17.951  0.00  0.00    +0.000 A 
ATOM     20  C   UNL     1       4.183   6.874  17.134  0.00  0.00    +0.000 A 
ATOM     21  C   UNL     1       5.132   6.576  16.153  0.00  0.00    +0.000 A 
ATOM     22  C   UNL     1       5.534   5.263  15.963  0.00  0.00    +0.000 A 
ATOM     23  C   UNL     1       4.962   4.254  16.735  0.00  0.00    +0.000 A 
ATOM     24  C   UNL     1       4.004   4.520  17.702  0.00  0.00    +0.000 A 
ATOM     25  N   UNL     1       3.482   3.468  18.345  0.00  0.00    +0.000 NA
BRANCH  16  27
ATOM     26  C   UNL     1       1.407   2.790  21.306  0.00  0.00    +0.000 C 
ATOM     27  C   UNL     1       1.871   2.481  19.890  0.00  0.00    +0.000 C 
ENDBRANCH  16  27
ENDBRANCH   1  18
TORSDOF 3
ENDMDL
MODEL 9
REMARK VINA RESULT:      -8.2      3.130      8.208
REMARK  Name = 
REMARK  4 active torsions:
REMARK  status: ('A' for Active; 'I' for Inactive)
REMARK    1  A    between atoms: C_1  and  C_2
REMARK    2  A    between atoms: C_2  and  C_3
REMARK    3  A    between atoms: C_5  and  N_6
REMARK    4  A    between atoms: C_7  and  C_9
REMARK                            x       y       z     vdW  Elec       q    Type
REMARK                         _______ _______ _______ _____ _____    ______ ____
ROOT
ATOM      1  N   UNL     1       3.974   5.385  17.730  0.00  0.00    +0.000 N 
ATOM      2  C   UNL     1       5.346   5.211  17.782  0.00  0.00    +0.000 C 
ATOM      3  O   UNL     1       6.035   5.256  18.798  0.00  0.00    +0.000 OA
ATOM      4  H   UNL     1       3.549   5.355  16.805  0.00  0.00    +0.000 HD
ENDROOT
BRANCH   2   5
ATOM      5  C   UNL     1       6.008   5.021  16.458  0.00  0.00    +0.000 A 
ATOM      6  C   UNL     1       7.093   5.755  16.174  0.00  0.00    +0.000 A 
ATOM      7  N   UNL     1       7.754   5.774  14.978  0.00  0.00    +0.000 NA
ATOM      8  C   UNL     1       7.271   5.040  14.024  0.00  0.00    +0.000 A 
ATOM      9  C   UNL     1       7.906   5.094  12.680  0.00  0.00    +0.000 A 
ATOM     10  C   UNL     1       7.403   4.369  11.675  0.00  0.00    +0.000 A 
ATOM     11  C   UNL     1       6.266   3.513  11.892  0.00  0.00    +0.000 A 
ATOM     12  C   UNL     1       5.699   3.449  13.102  0.00  0.00    +0.000 A 
ATOM     13  N   UNL     1       6.169   4.204  14.171  0.00  0.00    +0.000 N 
ATOM     14  C   UNL     1       5.519   4.117  15.395  0.00  0.00    +0.000 A 
ATOM     15  O   UNL     1       4.568   3.363  15.628  0.00  0.00    +0.000 OA
ENDBRANCH   2   5
BRANCH   1  18
ATOM     16  C   UNL     1       1.883   7.140  20.233  0.00  0.00    +0.000 A 
ATOM     17  C   UNL     1       2.742   6.928  19.170  0.00  0.00    +0.000 A 
ATOM     18  C   UNL     1       3.095   5.629  18.820  0.00  0.00    +0.000 A 
ATOM     19  C   UNL     1       2.565   4.544  19.577  0.00  0.00    +0.000 A 
ATOM     20  C   UNL     1       2.770   3.160  19.304  0.00  0.00    +0.000 A 
ATOM     21  C   UNL     1       2.214   2.165  20.110  0.00  0.00    +0.000 A 
ATOM     22  C   UNL     1       1.443   2.521  21.206  0.00  0.00    +0.000 A 
ATOM     23  C   UNL     1       1.210   3.869  21.470  0.00  0.00    +0.000 A 
ATOM     24  C   UNL     1       1.735   4.877  20.674  0.00  0.00    +0.000 A 
ATOM     25  N   UNL     1       1.400   6.135  20.988  0.00  0.00    +0.000 NA
BRANCH  16  27
ATOM     26  C   UNL     1       0.210   8.477  21.493  0.00  0.00    +0.000 C 
ATOM     27  C   UNL     1       1.378   8.529  20.519  0.00  0.00    +0.000 C 
ENDBRANCH  16  27
ENDBRANCH   1  18
TORSDOF 3
ENDMDL
