MODEL 1
REMARK VINA RESULT:      -8.4      0.000      0.000
REMARK  Name = 
REMARK  6 active torsions:
REMARK  status: ('A' for Active; 'I' for Inactive)
REMARK    1  A    between atoms: C_1  and  C_2
REMARK    2  A    between atoms: C_2  and  N_3
REMARK    3  A    between atoms: C_2  and  C_19
REMARK    4  A    between atoms: N_3  and  S_4
REMARK    5  A    between atoms: S_4  and  C_7
REMARK    6  A    between atoms: N_27  and  C_28
REMARK                            x       y       z     vdW  Elec       q    Type
REMARK                         _______ _______ _______ _____ _____    ______ ____
ROOT
ATOM      1  S   UNL     1       0.880  10.714  20.087  0.00  0.00    +0.000 S 
ATOM      2  O   UNL     1       0.945  10.923  21.515  0.00  0.00    +0.000 OA
ATOM      3  O   UNL     1       1.842  11.321  19.191  0.00  0.00    +0.000 OA
ENDROOT
BRANCH   1   4
ATOM      4  C   UNL     1      -0.754  11.215  19.571  0.00  0.00    +0.000 A 
ATOM      5  C   UNL     1      -1.505  12.073  20.392  0.00  0.00    +0.000 A 
ATOM      6  C   UNL     1      -2.797  12.451  20.018  0.00  0.00    +0.000 A 
ATOM      7  C   UNL     1      -3.346  11.955  18.838  0.00  0.00    +0.000 A 
ATOM      8  N   UNL     1      -4.642  12.319  18.467  0.00  0.00    +0.000 N 
ATOM      9  C   UNL     1      -5.252  11.866  17.333  0.00  0.00    +0.000 A 
ATOM     10  O   UNL     1      -6.392  12.204  17.041  0.00  0.00    +0.000 OA
ATOM     11  N   UNL     1      -4.522  11.017  16.551  0.00  0.00    +0.000 N 
ATOM     12  C   UNL     1      -3.245  10.577  16.799  0.00  0.00    +0.000 A 
ATOM     13  O   UNL     1      -2.662   9.806  16.048  0.00  0.00    +0.000 OA
ATOM     14  C   UNL     1      -2.603  11.086  18.030  0.00  0.00    +0.000 A 
ATOM     15  C   UNL     1      -1.303  10.708  18.390  0.00  0.00    +0.000 A 
ATOM     16  H   UNL     1      -5.194  12.943  19.043  0.00  0.00    +0.000 HD
ATOM     17  H   UNL     1      -4.972  10.677  15.713  0.00  0.00    +0.000 HD
ENDBRANCH   1   4
BRANCH   1  18
ATOM     18  N   UNL     1       0.910   9.058  19.828  0.00  0.00    +0.000 NA
ATOM     19  H   UNL     1       0.584   8.513  20.629  0.00  0.00    +0.000 HD
BRANCH  18  21
ATOM     20  C   UNL     1       1.617   8.355  17.580  0.00  0.00    +0.000 C 
ATOM     21  C   UNL     1       2.014   8.469  19.049  0.00  0.00    +0.000 C 
BRANCH  21  22
ATOM     22  C   UNL     1       2.336   7.082  19.574  0.00  0.00    +0.000 A 
ATOM     23  N   UNL     1       1.716   6.431  20.545  0.00  0.00    +0.000 NA
ATOM     24  C   UNL     1       2.191   5.139  20.503  0.00  0.00    +0.000 A 
ATOM     25  C   UNL     1       1.818   4.018  21.263  0.00  0.00    +0.000 A 
ATOM     26  C   UNL     1       2.420   2.781  20.991  0.00  0.00    +0.000 A 
ATOM     27  C   UNL     1       3.382   2.661  19.988  0.00  0.00    +0.000 A 
ATOM     28  C   UNL     1       3.780   3.770  19.234  0.00  0.00    +0.000 A 
ATOM     29  C   UNL     1       3.162   4.997  19.518  0.00  0.00    +0.000 A 
ATOM     30  N   UNL     1       3.284   6.262  18.988  0.00  0.00    +0.000 N 
BRANCH  30  31
ATOM     31  C   UNL     1       4.216   6.656  17.953  0.00  0.00    +0.000 C 
ATOM     32  F   UNL     1       5.494   6.370  18.313  0.00  0.00    +0.000 F 
ATOM     33  F   UNL     1       3.973   5.975  16.804  0.00  0.00    +0.000 F 
ENDBRANCH  30  31
ENDBRANCH  21  22
ENDBRANCH  18  21
ENDBRANCH   1  18
TORSDOF 5
ENDMDL
MODEL 2
REMARK VINA RESULT:      -8.1      1.052      1.755
REMARK  Name = 
REMARK  6 active torsions:
REMARK  status: ('A' for Active; 'I' for Inactive)
REMARK    1  A    between atoms: C_1  and  C_2
REMARK    2  A    between atoms: C_2  and  N_3
REMARK    3  A    between atoms: C_2  and  C_19
REMARK    4  A    between atoms: N_3  and  S_4
REMARK    5  A    between atoms: S_4  and  C_7
REMARK    6  A    between atoms: N_27  and  C_28
REMARK                            x       y       z     vdW  Elec       q    Type
REMARK                         _______ _______ _______ _____ _____    ______ ____
ROOT
ATOM      1  S   UNL     1       0.908  10.605  19.523  0.00  0.00    +0.000 S 
ATOM      2  O   UNL     1       0.904  11.167  20.855  0.00  0.00    +0.000 OA
ATOM      3  O   UNL     1       1.833  11.070  18.511  0.00  0.00    +0.000 OA
ENDROOT
BRANCH   1   4
ATOM      4  C   UNL     1      -0.749  10.786  18.887  0.00  0.00    +0.000 A 
ATOM      5  C   UNL     1      -1.107  10.135  17.694  0.00  0.00    +0.000 A 
ATOM      6  C   UNL     1      -2.390  10.290  17.166  0.00  0.00    +0.000 A 
ATOM      7  C   UNL     1      -3.309  11.112  17.816  0.00  0.00    +0.000 A 
ATOM      8  N   UNL     1      -4.589  11.281  17.284  0.00  0.00    +0.000 N 
ATOM      9  C   UNL     1      -5.538  12.078  17.856  0.00  0.00    +0.000 A 
ATOM     10  O   UNL     1      -6.650  12.205  17.359  0.00  0.00    +0.000 OA
ATOM     11  N   UNL     1      -5.176  12.722  19.004  0.00  0.00    +0.000 N 
ATOM     12  C   UNL     1      -3.956  12.647  19.629  0.00  0.00    +0.000 A 
ATOM     13  O   UNL     1      -3.708  13.266  20.656  0.00  0.00    +0.000 OA
ATOM     14  C   UNL     1      -2.945  11.774  18.995  0.00  0.00    +0.000 A 
ATOM     15  C   UNL     1      -1.664  11.618  19.538  0.00  0.00    +0.000 A 
ATOM     16  H   UNL     1      -4.865  10.813  16.429  0.00  0.00    +0.000 HD
ATOM     17  H   UNL     1      -5.875  13.315  19.428  0.00  0.00    +0.000 HD
ENDBRANCH   1   4
BRANCH   1  18
ATOM     18  N   UNL     1       1.114   8.950  19.687  0.00  0.00    +0.000 NA
ATOM     19  H   UNL     1       0.985   8.614  20.644  0.00  0.00    +0.000 HD
BRANCH  18  21
ATOM     20  C   UNL     1       1.670   8.045  17.469  0.00  0.00    +0.000 C 
ATOM     21  C   UNL     1       2.157   8.270  18.897  0.00  0.00    +0.000 C 
BRANCH  21  22
ATOM     22  C   UNL     1       2.482   6.924  19.518  0.00  0.00    +0.000 A 
ATOM     23  N   UNL     1       1.837   6.322  20.504  0.00  0.00    +0.000 NA
ATOM     24  C   UNL     1       2.335   5.039  20.559  0.00  0.00    +0.000 A 
ATOM     25  C   UNL     1       1.953   3.959  21.371  0.00  0.00    +0.000 A 
ATOM     26  C   UNL     1       2.585   2.720  21.198  0.00  0.00    +0.000 A 
ATOM     27  C   UNL     1       3.587   2.558  20.241  0.00  0.00    +0.000 A 
ATOM     28  C   UNL     1       3.995   3.626  19.436  0.00  0.00    +0.000 A 
ATOM     29  C   UNL     1       3.346   4.856  19.620  0.00  0.00    +0.000 A 
ATOM     30  N   UNL     1       3.466   6.088  19.019  0.00  0.00    +0.000 N 
BRANCH  30  31
ATOM     31  C   UNL     1       4.430   6.437  17.997  0.00  0.00    +0.000 C 
ATOM     32  F   UNL     1       5.686   6.086  18.372  0.00  0.00    +0.000 F 
ATOM     33  F   UNL     1       4.167   5.771  16.843  0.00  0.00    +0.000 F 
ENDBRANCH  30  31
ENDBRANCH  21  22
ENDBRANCH  18  21
ENDBRANCH   1  18
TORSDOF 5
ENDMDL
MODEL 3
REMARK VINA RESULT:      -7.9      4.435      8.895
REMARK  Name = 
REMARK  6 active torsions:
REMARK  status: ('A' for Active; 'I' for Inactive)
REMARK    1  A    between atoms: C_1  and  C_2
REMARK    2  A    between atoms: C_2  and  N_3
REMARK    3  A    between atoms: C_2  and  C_19
REMARK    4  A    between atoms: N_3  and  S_4
REMARK    5  A    between atoms: S_4  and  C_7
REMARK    6  A    between atoms: N_27  and  C_28
REMARK                            x       y       z     vdW  Elec       q    Type
REMARK                         _______ _______ _______ _____ _____    ______ ____
ROOT
ATOM      1  S   UNL     1       1.870   4.768  20.680  0.00  0.00    +0.000 S 
ATOM      2  O   UNL     1       2.514   4.133  21.807  0.00  0.00    +0.000 OA
ATOM      3  O   UNL     1       0.588   4.310  20.187  0.00  0.00    +0.000 OA
ENDROOT
BRANCH   1   4
ATOM      4  C   UNL     1       3.035   4.717  19.329  0.00  0.00    +0.000 A 
ATOM      5  C   UNL     1       2.588   4.370  18.043  0.00  0.00    +0.000 A 
ATOM      6  C   UNL     1       3.491   4.295  16.981  0.00  0.00    +0.000 A 
ATOM      7  C   UNL     1       4.843   4.545  17.206  0.00  0.00    +0.000 A 
ATOM      8  N   UNL     1       5.753   4.457  16.150  0.00  0.00    +0.000 N 
ATOM      9  C   UNL     1       7.092   4.676  16.295  0.00  0.00    +0.000 A 
ATOM     10  O   UNL     1       7.861   4.588  15.346  0.00  0.00    +0.000 OA
ATOM     11  N   UNL     1       7.521   4.995  17.552  0.00  0.00    +0.000 N 
ATOM     12  C   UNL     1       6.738   5.109  18.675  0.00  0.00    +0.000 A 
ATOM     13  O   UNL     1       7.205   5.391  19.771  0.00  0.00    +0.000 OA
ATOM     14  C   UNL     1       5.290   4.874  18.492  0.00  0.00    +0.000 A 
ATOM     15  C   UNL     1       4.391   4.961  19.563  0.00  0.00    +0.000 A 
ATOM     16  H   UNL     1       5.445   4.216  15.216  0.00  0.00    +0.000 HD
ATOM     17  H   UNL     1       8.512   5.154  17.663  0.00  0.00    +0.000 HD
ENDBRANCH   1   4
BRANCH   1  18
ATOM     18  N   UNL     1       1.728   6.398  21.047  0.00  0.00    +0.000 NA
ATOM     19  H   UNL     1       1.350   6.575  21.979  0.00  0.00    +0.000 HD
BRANCH  18  21
ATOM     20  C   UNL     1       2.553   7.923  19.302  0.00  0.00    +0.000 C 
ATOM     21  C   UNL     1       1.321   7.342  19.991  0.00  0.00    +0.000 C 
BRANCH  21  22
ATOM     22  C   UNL     1       0.520   8.481  20.595  0.00  0.00    +0.000 A 
ATOM     23  N   UNL     1       0.026   8.548  21.821  0.00  0.00    +0.000 NA
ATOM     24  C   UNL     1      -0.403   9.845  21.990  0.00  0.00    +0.000 A 
ATOM     25  C   UNL     1      -0.941  10.475  23.124  0.00  0.00    +0.000 A 
ATOM     26  C   UNL     1      -1.254  11.840  23.060  0.00  0.00    +0.000 A 
ATOM     27  C   UNL     1      -1.046  12.566  21.886  0.00  0.00    +0.000 A 
ATOM     28  C   UNL     1      -0.529  11.952  20.741  0.00  0.00    +0.000 A 
ATOM     29  C   UNL     1      -0.217  10.588  20.828  0.00  0.00    +0.000 A 
ATOM     30  N   UNL     1       0.308   9.679  19.936  0.00  0.00    +0.000 N 
BRANCH  30  31
ATOM     31  C   UNL     1       0.632   9.948  18.551  0.00  0.00    +0.000 C 
ATOM     32  F   UNL     1      -0.420   9.663  17.741  0.00  0.00    +0.000 F 
ATOM     33  F   UNL     1       0.917  11.263  18.372  0.00  0.00    +0.000 F 
ENDBRANCH  30  31
ENDBRANCH  21  22
ENDBRANCH  18  21
ENDBRANCH   1  18
TORSDOF 5
ENDMDL
MODEL 4
REMARK VINA RESULT:      -7.9      2.880      4.400
REMARK  Name = 
REMARK  6 active torsions:
REMARK  status: ('A' for Active; 'I' for Inactive)
REMARK    1  A    between atoms: C_1  and  C_2
REMARK    2  A    between atoms: C_2  and  N_3
REMARK    3  A    between atoms: C_2  and  C_19
REMARK    4  A    between atoms: N_3  and  S_4
REMARK    5  A    between atoms: S_4  and  C_7
REMARK    6  A    between atoms: N_27  and  C_28
REMARK                            x       y       z     vdW  Elec       q    Type
REMARK                         _______ _______ _______ _____ _____    ______ ____
ROOT
ATOM      1  S   UNL     1       1.438   9.330  18.281  0.00  0.00    +0.000 S 
ATOM      2  O   UNL     1       2.471  10.264  17.896  0.00  0.00    +0.000 OA
ATOM      3  O   UNL     1       0.725   8.545  17.294  0.00  0.00    +0.000 OA
ENDROOT
BRANCH   1   4
ATOM      4  C   UNL     1       0.239  10.256  19.226  0.00  0.00    +0.000 A 
ATOM      5  C   UNL     1      -0.627  11.144  18.564  0.00  0.00    +0.000 A 
ATOM      6  C   UNL     1      -1.550  11.898  19.291  0.00  0.00    +0.000 A 
ATOM      7  C   UNL     1      -1.594  11.782  20.679  0.00  0.00    +0.000 A 
ATOM      8  N   UNL     1      -2.506  12.545  21.412  0.00  0.00    +0.000 N 
ATOM      9  C   UNL     1      -2.601  12.495  22.773  0.00  0.00    +0.000 A 
ATOM     10  O   UNL     1      -3.412  13.181  23.382  0.00  0.00    +0.000 OA
ATOM     11  N   UNL     1      -1.744  11.644  23.409  0.00  0.00    +0.000 N 
ATOM     12  C   UNL     1      -0.800  10.844  22.813  0.00  0.00    +0.000 A 
ATOM     13  O   UNL     1      -0.062  10.112  23.460  0.00  0.00    +0.000 OA
ATOM     14  C   UNL     1      -0.719  10.910  21.338  0.00  0.00    +0.000 A 
ATOM     15  C   UNL     1       0.204  10.142  20.618  0.00  0.00    +0.000 A 
ATOM     16  H   UNL     1      -3.142  13.184  20.950  0.00  0.00    +0.000 HD
ATOM     17  H   UNL     1      -1.809  11.608  24.416  0.00  0.00    +0.000 HD
ENDBRANCH   1   4
BRANCH   1  18
ATOM     18  N   UNL     1       2.116   8.272  19.389  0.00  0.00    +0.000 NA
ATOM     19  H   UNL     1       3.001   8.601  19.780  0.00  0.00    +0.000 HD
BRANCH  18  21
ATOM     20  C   UNL     1       2.200   6.065  20.472  0.00  0.00    +0.000 C 
ATOM     21  C   UNL     1       2.009   6.820  19.159  0.00  0.00    +0.000 C 
BRANCH  21  22
ATOM     22  C   UNL     1       3.078   6.370  18.180  0.00  0.00    +0.000 A 
ATOM     23  N   UNL     1       4.159   7.039  17.815  0.00  0.00    +0.000 NA
ATOM     24  C   UNL     1       4.940   6.149  17.113  0.00  0.00    +0.000 A 
ATOM     25  C   UNL     1       6.222   6.315  16.563  0.00  0.00    +0.000 A 
ATOM     26  C   UNL     1       6.838   5.225  15.931  0.00  0.00    +0.000 A 
ATOM     27  C   UNL     1       6.189   3.994  15.839  0.00  0.00    +0.000 A 
ATOM     28  C   UNL     1       4.905   3.814  16.364  0.00  0.00    +0.000 A 
ATOM     29  C   UNL     1       4.308   4.915  16.996  0.00  0.00    +0.000 A 
ATOM     30  N   UNL     1       3.097   5.103  17.624  0.00  0.00    +0.000 N 
BRANCH  30  31
ATOM     31  C   UNL     1       2.041   4.119  17.730  0.00  0.00    +0.000 C 
ATOM     32  F   UNL     1       0.912   4.549  17.109  0.00  0.00    +0.000 F 
ATOM     33  F   UNL     1       2.402   2.960  17.122  0.00  0.00    +0.000 F 
ENDBRANCH  30  31
ENDBRANCH  21  22
ENDBRANCH  18  21
ENDBRANCH   1  18
TORSDOF 5
ENDMDL
MODEL 5
REMARK VINA RESULT:      -7.9      4.270      9.022
REMARK  Name = 
REMARK  6 active torsions:
REMARK  status: ('A' for Active; 'I' for Inactive)
REMARK    1  A    between atoms: C_1  and  C_2
REMARK    2  A    between atoms: C_2  and  N_3
REMARK    3  A    between atoms: C_2  and  C_19
REMARK    4  A    between atoms: N_3  and  S_4
REMARK    5  A    between atoms: S_4  and  C_7
REMARK    6  A    between atoms: N_27  and  C_28
REMARK                            x       y       z     vdW  Elec       q    Type
REMARK                         _______ _______ _______ _____ _____    ______ ____
ROOT
ATOM      1  S   UNL     1       0.890   8.540  21.226  0.00  0.00    +0.000 S 
ATOM      2  O   UNL     1       1.812   8.919  22.271  0.00  0.00    +0.000 OA
ATOM      3  O   UNL     1      -0.477   8.167  21.524  0.00  0.00    +0.000 OA
ENDROOT
BRANCH   1   4
ATOM      4  C   UNL     1       1.651   7.192  20.336  0.00  0.00    +0.000 A 
ATOM      5  C   UNL     1       2.348   7.457  19.144  0.00  0.00    +0.000 A 
ATOM      6  C   UNL     1       2.923   6.411  18.419  0.00  0.00    +0.000 A 
ATOM      7  C   UNL     1       2.786   5.101  18.873  0.00  0.00    +0.000 A 
ATOM      8  N   UNL     1       3.348   4.050  18.144  0.00  0.00    +0.000 N 
ATOM      9  C   UNL     1       3.246   2.741  18.517  0.00  0.00    +0.000 A 
ATOM     10  O   UNL     1       3.750   1.846  17.851  0.00  0.00    +0.000 OA
ATOM     11  N   UNL     1       2.552   2.492  19.666  0.00  0.00    +0.000 N 
ATOM     12  C   UNL     1       1.948   3.426  20.472  0.00  0.00    +0.000 A 
ATOM     13  O   UNL     1       1.335   3.116  21.485  0.00  0.00    +0.000 OA
ATOM     14  C   UNL     1       2.077   4.837  20.051  0.00  0.00    +0.000 A 
ATOM     15  C   UNL     1       1.504   5.880  20.791  0.00  0.00    +0.000 A 
ATOM     16  H   UNL     1       3.859   4.225  17.287  0.00  0.00    +0.000 HD
ATOM     17  H   UNL     1       2.472   1.524  19.943  0.00  0.00    +0.000 HD
ENDBRANCH   1   4
BRANCH   1  18
ATOM     18  N   UNL     1       0.851   9.800  20.121  0.00  0.00    +0.000 NA
ATOM     19  H   UNL     1       1.749  10.273  20.010  0.00  0.00    +0.000 HD
BRANCH  18  21
ATOM     20  C   UNL     1      -0.601  11.075  18.600  0.00  0.00    +0.000 C 
ATOM     21  C   UNL     1      -0.347  10.655  20.045  0.00  0.00    +0.000 C 
BRANCH  21  22
ATOM     22  C   UNL     1      -0.147  11.904  20.885  0.00  0.00    +0.000 A 
ATOM     23  N   UNL     1       0.533  12.989  20.552  0.00  0.00    +0.000 NA
ATOM     24  C   UNL     1       0.237  13.933  21.510  0.00  0.00    +0.000 A 
ATOM     25  C   UNL     1       0.630  15.278  21.600  0.00  0.00    +0.000 A 
ATOM     26  C   UNL     1       0.145  16.060  22.657  0.00  0.00    +0.000 A 
ATOM     27  C   UNL     1      -0.710  15.514  23.615  0.00  0.00    +0.000 A 
ATOM     28  C   UNL     1      -1.099  14.172  23.553  0.00  0.00    +0.000 A 
ATOM     29  C   UNL     1      -0.606  13.408  22.484  0.00  0.00    +0.000 A 
ATOM     30  N   UNL     1      -0.780  12.097  22.100  0.00  0.00    +0.000 N 
BRANCH  30  31
ATOM     31  C   UNL     1      -1.541  11.100  22.822  0.00  0.00    +0.000 C 
ATOM     32  F   UNL     1      -0.748  10.413  23.685  0.00  0.00    +0.000 F 
ATOM     33  F   UNL     1      -2.513  11.687  23.568  0.00  0.00    +0.000 F 
ENDBRANCH  30  31
ENDBRANCH  21  22
ENDBRANCH  18  21
ENDBRANCH   1  18
TORSDOF 5
ENDMDL
MODEL 6
REMARK VINA RESULT:      -7.9      5.120      8.985
REMARK  Name = 
REMARK  6 active torsions:
REMARK  status: ('A' for Active; 'I' for Inactive)
REMARK    1  A    between atoms: C_1  and  C_2
REMARK    2  A    between atoms: C_2  and  N_3
REMARK    3  A    between atoms: C_2  and  C_19
REMARK    4  A    between atoms: N_3  and  S_4
REMARK    5  A    between atoms: S_4  and  C_7
REMARK    6  A    between atoms: N_27  and  C_28
REMARK                            x       y       z     vdW  Elec       q    Type
REMARK                         _______ _______ _______ _____ _____    ______ ____
ROOT
ATOM      1  S   UNL     1       3.201   3.159  18.297  0.00  0.00    +0.000 S 
ATOM      2  O   UNL     1       3.771   2.571  19.488  0.00  0.00    +0.000 OA
ATOM      3  O   UNL     1       2.360   2.390  17.404  0.00  0.00    +0.000 OA
ENDROOT
BRANCH   1   4
ATOM      4  C   UNL     1       4.564   3.816  17.349  0.00  0.00    +0.000 A 
ATOM      5  C   UNL     1       5.581   4.531  18.004  0.00  0.00    +0.000 A 
ATOM      6  C   UNL     1       6.638   5.077  17.274  0.00  0.00    +0.000 A 
ATOM      7  C   UNL     1       6.669   4.929  15.889  0.00  0.00    +0.000 A 
ATOM      8  N   UNL     1       7.717   5.486  15.153  0.00  0.00    +0.000 N 
ATOM      9  C   UNL     1       7.810   5.393  13.794  0.00  0.00    +0.000 A 
ATOM     10  O   UNL     1       8.744   5.896  13.182  0.00  0.00    +0.000 OA
ATOM     11  N   UNL     1       6.808   4.713  13.164  0.00  0.00    +0.000 N 
ATOM     12  C   UNL     1       5.722   4.123  13.763  0.00  0.00    +0.000 A 
ATOM     13  O   UNL     1       4.860   3.537  13.122  0.00  0.00    +0.000 OA
ATOM     14  C   UNL     1       5.646   4.232  15.236  0.00  0.00    +0.000 A 
ATOM     15  C   UNL     1       4.585   3.671  15.960  0.00  0.00    +0.000 A 
ATOM     16  H   UNL     1       8.462   5.997  15.611  0.00  0.00    +0.000 HD
ATOM     17  H   UNL     1       6.872   4.646  12.158  0.00  0.00    +0.000 HD
ENDBRANCH   1   4
BRANCH   1  18
ATOM     18  N   UNL     1       2.338   4.513  18.780  0.00  0.00    +0.000 NA
ATOM     19  H   UNL     1       2.040   5.105  18.003  0.00  0.00    +0.000 HD
BRANCH  18  21
ATOM     20  C   UNL     1       2.361   4.369  21.235  0.00  0.00    +0.000 C 
ATOM     21  C   UNL     1       2.727   5.213  20.018  0.00  0.00    +0.000 C 
BRANCH  21  22
ATOM     22  C   UNL     1       1.999   6.542  20.111  0.00  0.00    +0.000 A 
ATOM     23  N   UNL     1       1.264   6.981  21.121  0.00  0.00    +0.000 NA
ATOM     24  C   UNL     1       1.016   8.310  20.862  0.00  0.00    +0.000 A 
ATOM     25  C   UNL     1       0.346   9.268  21.640  0.00  0.00    +0.000 A 
ATOM     26  C   UNL     1       0.270  10.589  21.176  0.00  0.00    +0.000 A 
ATOM     27  C   UNL     1       0.841  10.950  19.955  0.00  0.00    +0.000 A 
ATOM     28  C   UNL     1       1.495  10.007  19.158  0.00  0.00    +0.000 A 
ATOM     29  C   UNL     1       1.565   8.692  19.642  0.00  0.00    +0.000 A 
ATOM     30  N   UNL     1       2.126   7.533  19.154  0.00  0.00    +0.000 N 
BRANCH  30  31
ATOM     31  C   UNL     1       2.784   7.389  17.873  0.00  0.00    +0.000 C 
ATOM     32  F   UNL     1       2.483   8.427  17.052  0.00  0.00    +0.000 F 
ATOM     33  F   UNL     1       4.134   7.391  18.025  0.00  0.00    +0.000 F 
ENDBRANCH  30  31
ENDBRANCH  21  22
ENDBRANCH  18  21
ENDBRANCH   1  18
TORSDOF 5
ENDMDL
MODEL 7
REMARK VINA RESULT:      -7.8      4.200      9.135
REMARK  Name = 
REMARK  6 active torsions:
REMARK  status: ('A' for Active; 'I' for Inactive)
REMARK    1  A    between atoms: C_1  and  C_2
REMARK    2  A    between atoms: C_2  and  N_3
REMARK    3  A    between atoms: C_2  and  C_19
REMARK    4  A    between atoms: N_3  and  S_4
REMARK    5  A    between atoms: S_4  and  C_7
REMARK    6  A    between atoms: N_27  and  C_28
REMARK                            x       y       z     vdW  Elec       q    Type
REMARK                         _______ _______ _______ _____ _____    ______ ____
ROOT
ATOM      1  S   UNL     1       0.906   8.662  21.223  0.00  0.00    +0.000 S 
ATOM      2  O   UNL     1       1.827   9.018  22.278  0.00  0.00    +0.000 OA
ATOM      3  O   UNL     1      -0.468   8.305  21.508  0.00  0.00    +0.000 OA
ENDROOT
BRANCH   1   4
ATOM      4  C   UNL     1       1.655   7.313  20.325  0.00  0.00    +0.000 A 
ATOM      5  C   UNL     1       2.307   7.570  19.107  0.00  0.00    +0.000 A 
ATOM      6  C   UNL     1       2.872   6.523  18.376  0.00  0.00    +0.000 A 
ATOM      7  C   UNL     1       2.767   5.217  18.850  0.00  0.00    +0.000 A 
ATOM      8  N   UNL     1       3.318   4.164  18.117  0.00  0.00    +0.000 N 
ATOM      9  C   UNL     1       3.245   2.859  18.509  0.00  0.00    +0.000 A 
ATOM     10  O   UNL     1       3.739   1.961  17.838  0.00  0.00    +0.000 OA
ATOM     11  N   UNL     1       2.594   2.615  19.684  0.00  0.00    +0.000 N 
ATOM     12  C   UNL     1       2.005   3.552  20.498  0.00  0.00    +0.000 A 
ATOM     13  O   UNL     1       1.431   3.248  21.535  0.00  0.00    +0.000 OA
ATOM     14  C   UNL     1       2.102   4.960  20.055  0.00  0.00    +0.000 A 
ATOM     15  C   UNL     1       1.540   6.004  20.801  0.00  0.00    +0.000 A 
ATOM     16  H   UNL     1       3.798   4.334  17.241  0.00  0.00    +0.000 HD
ATOM     17  H   UNL     1       2.535   1.650  19.975  0.00  0.00    +0.000 HD
ENDBRANCH   1   4
BRANCH   1  18
ATOM     18  N   UNL     1       0.893   9.933  20.131  0.00  0.00    +0.000 NA
ATOM     19  H   UNL     1       1.637  10.615  20.288  0.00  0.00    +0.000 HD
BRANCH  18  21
ATOM     20  C   UNL     1      -0.627  10.122  18.206  0.00  0.00    +0.000 C 
ATOM     21  C   UNL     1      -0.399  10.476  19.672  0.00  0.00    +0.000 C 
BRANCH  21  22
ATOM     22  C   UNL     1      -0.404  11.988  19.813  0.00  0.00    +0.000 A 
ATOM     23  N   UNL     1       0.044  12.873  18.937  0.00  0.00    +0.000 NA
ATOM     24  C   UNL     1      -0.386  14.102  19.383  0.00  0.00    +0.000 A 
ATOM     25  C   UNL     1      -0.251  15.371  18.795  0.00  0.00    +0.000 A 
ATOM     26  C   UNL     1      -0.832  16.479  19.427  0.00  0.00    +0.000 A 
ATOM     27  C   UNL     1      -1.528  16.333  20.627  0.00  0.00    +0.000 A 
ATOM     28  C   UNL     1      -1.658  15.081  21.237  0.00  0.00    +0.000 A 
ATOM     29  C   UNL     1      -1.074  13.984  20.586  0.00  0.00    +0.000 A 
ATOM     30  N   UNL     1      -1.012  12.639  20.872  0.00  0.00    +0.000 N 
BRANCH  30  31
ATOM     31  C   UNL     1      -1.541  12.003  22.060  0.00  0.00    +0.000 C 
ATOM     32  F   UNL     1      -0.983  12.527  23.182  0.00  0.00    +0.000 F 
ATOM     33  F   UNL     1      -2.880  12.209  22.158  0.00  0.00    +0.000 F 
ENDBRANCH  30  31
ENDBRANCH  21  22
ENDBRANCH  18  21
ENDBRANCH   1  18
TORSDOF 5
ENDMDL
MODEL 8
REMARK VINA RESULT:      -7.8      4.452      6.023
REMARK  Name = 
REMARK  6 active torsions:
REMARK  status: ('A' for Active; 'I' for Inactive)
REMARK    1  A    between atoms: C_1  and  C_2
REMARK    2  A    between atoms: C_2  and  N_3
REMARK    3  A    between atoms: C_2  and  C_19
REMARK    4  A    between atoms: N_3  and  S_4
REMARK    5  A    between atoms: S_4  and  C_7
REMARK    6  A    between atoms: N_27  and  C_28
REMARK                            x       y       z     vdW  Elec       q    Type
REMARK                         _______ _______ _______ _____ _____    ______ ____
ROOT
ATOM      1  S   UNL     1      -4.551  13.364  21.812  0.00  0.00    +0.000 S 
ATOM      2  O   UNL     1      -4.801  12.237  22.682  0.00  0.00    +0.000 OA
ATOM      3  O   UNL     1      -5.401  14.535  21.832  0.00  0.00    +0.000 OA
ENDROOT
BRANCH   1   4
ATOM      4  C   UNL     1      -4.521  12.727  20.145  0.00  0.00    +0.000 A 
ATOM      5  C   UNL     1      -5.728  12.575  19.441  0.00  0.00    +0.000 A 
ATOM      6  C   UNL     1      -5.726  12.049  18.147  0.00  0.00    +0.000 A 
ATOM      7  C   UNL     1      -4.523  11.656  17.565  0.00  0.00    +0.000 A 
ATOM      8  N   UNL     1      -4.517  11.117  16.277  0.00  0.00    +0.000 N 
ATOM      9  C   UNL     1      -3.381  10.699  15.645  0.00  0.00    +0.000 A 
ATOM     10  O   UNL     1      -3.415  10.229  14.514  0.00  0.00    +0.000 OA
ATOM     11  N   UNL     1      -2.216  10.833  16.343  0.00  0.00    +0.000 N 
ATOM     12  C   UNL     1      -2.081  11.340  17.612  0.00  0.00    +0.000 A 
ATOM     13  O   UNL     1      -0.995  11.418  18.173  0.00  0.00    +0.000 OA
ATOM     14  C   UNL     1      -3.323  11.792  18.274  0.00  0.00    +0.000 A 
ATOM     15  C   UNL     1      -3.313  12.327  19.569  0.00  0.00    +0.000 A 
ATOM     16  H   UNL     1      -5.377  11.008  15.753  0.00  0.00    +0.000 HD
ATOM     17  H   UNL     1      -1.374  10.521  15.880  0.00  0.00    +0.000 HD
ENDBRANCH   1   4
BRANCH   1  18
ATOM     18  N   UNL     1      -2.977  13.865  22.096  0.00  0.00    +0.000 NA
ATOM     19  H   UNL     1      -2.425  13.981  21.244  0.00  0.00    +0.000 HD
BRANCH  18  21
ATOM     20  C   UNL     1      -1.381  14.440  23.877  0.00  0.00    +0.000 C 
ATOM     21  C   UNL     1      -2.255  13.345  23.271  0.00  0.00    +0.000 C 
BRANCH  21  22
ATOM     22  C   UNL     1      -1.365  12.186  22.861  0.00  0.00    +0.000 A 
ATOM     23  N   UNL     1      -1.473  10.923  23.240  0.00  0.00    +0.000 NA
ATOM     24  C   UNL     1      -0.614  10.208  22.436  0.00  0.00    +0.000 A 
ATOM     25  C   UNL     1      -0.389   8.823  22.366  0.00  0.00    +0.000 A 
ATOM     26  C   UNL     1       0.511   8.327  21.412  0.00  0.00    +0.000 A 
ATOM     27  C   UNL     1       1.184   9.192  20.549  0.00  0.00    +0.000 A 
ATOM     28  C   UNL     1       0.989  10.575  20.616  0.00  0.00    +0.000 A 
ATOM     29  C   UNL     1       0.080  11.051  21.573  0.00  0.00    +0.000 A 
ATOM     30  N   UNL     1      -0.366  12.309  21.911  0.00  0.00    +0.000 N 
BRANCH  30  31
ATOM     31  C   UNL     1       0.097  13.552  21.331  0.00  0.00    +0.000 C 
ATOM     32  F   UNL     1       1.446  13.665  21.436  0.00  0.00    +0.000 F 
ATOM     33  F   UNL     1      -0.196  13.601  20.006  0.00  0.00    +0.000 F 
ENDBRANCH  30  31
ENDBRANCH  21  22
ENDBRANCH  18  21
ENDBRANCH   1  18
TORSDOF 5
ENDMDL
MODEL 9
REMARK VINA RESULT:      -7.7      4.248      9.103
REMARK  Name = 
REMARK  6 active torsions:
REMARK  status: ('A' for Active; 'I' for Inactive)
REMARK    1  A    between atoms: C_1  and  C_2
REMARK    2  A    between atoms: C_2  and  N_3
REMARK    3  A    between atoms: C_2  and  C_19
REMARK    4  A    between atoms: N_3  and  S_4
REMARK    5  A    between atoms: S_4  and  C_7
REMARK    6  A    between atoms: N_27  and  C_28
REMARK                            x       y       z     vdW  Elec       q    Type
REMARK                         _______ _______ _______ _____ _____    ______ ____
ROOT
ATOM      1  S   UNL     1       0.941   8.782  21.197  0.00  0.00    +0.000 S 
ATOM      2  O   UNL     1       1.805   9.028  22.328  0.00  0.00    +0.000 OA
ATOM      3  O   UNL     1      -0.469   8.502  21.372  0.00  0.00    +0.000 OA
ENDROOT
BRANCH   1   4
ATOM      4  C   UNL     1       1.666   7.430  20.284  0.00  0.00    +0.000 A 
ATOM      5  C   UNL     1       2.210   7.669  19.011  0.00  0.00    +0.000 A 
ATOM      6  C   UNL     1       2.754   6.618  18.270  0.00  0.00    +0.000 A 
ATOM      7  C   UNL     1       2.736   5.326  18.791  0.00  0.00    +0.000 A 
ATOM      8  N   UNL     1       3.266   4.269  18.048  0.00  0.00    +0.000 N 
ATOM      9  C   UNL     1       3.273   2.976  18.485  0.00  0.00    +0.000 A 
ATOM     10  O   UNL     1       3.745   2.073  17.804  0.00  0.00    +0.000 OA
ATOM     11  N   UNL     1       2.726   2.749  19.715  0.00  0.00    +0.000 N 
ATOM     12  C   UNL     1       2.169   3.692  20.544  0.00  0.00    +0.000 A 
ATOM     13  O   UNL     1       1.689   3.403  21.633  0.00  0.00    +0.000 OA
ATOM     14  C   UNL     1       2.177   5.086  20.052  0.00  0.00    +0.000 A 
ATOM     15  C   UNL     1       1.638   6.135  20.808  0.00  0.00    +0.000 A 
ATOM     16  H   UNL     1       3.669   4.425  17.132  0.00  0.00    +0.000 HD
ATOM     17  H   UNL     1       2.726   1.793  20.040  0.00  0.00    +0.000 HD
ENDBRANCH   1   4
BRANCH   1  18
ATOM     18  N   UNL     1       1.081  10.100  20.172  0.00  0.00    +0.000 NA
ATOM     19  H   UNL     1       1.905  10.676  20.357  0.00  0.00    +0.000 HD
BRANCH  18  21
ATOM     20  C   UNL     1      -0.590  10.336  18.383  0.00  0.00    +0.000 C 
ATOM     21  C   UNL     1      -0.135  10.823  19.756  0.00  0.00    +0.000 C 
BRANCH  21  22
ATOM     22  C   UNL     1       0.150  12.311  19.673  0.00  0.00    +0.000 A 
ATOM     23  N   UNL     1       1.270  12.889  19.270  0.00  0.00    +0.000 NA
ATOM     24  C   UNL     1       0.982  14.229  19.136  0.00  0.00    +0.000 A 
ATOM     25  C   UNL     1       1.788  15.281  18.670  0.00  0.00    +0.000 A 
ATOM     26  C   UNL     1       1.240  16.567  18.574  0.00  0.00    +0.000 A 
ATOM     27  C   UNL     1      -0.084  16.808  18.943  0.00  0.00    +0.000 A 
ATOM     28  C   UNL     1      -0.897  15.777  19.427  0.00  0.00    +0.000 A 
ATOM     29  C   UNL     1      -0.331  14.497  19.510  0.00  0.00    +0.000 A 
ATOM     30  N   UNL     1      -0.817  13.272  19.912  0.00  0.00    +0.000 N 
BRANCH  30  31
ATOM     31  C   UNL     1      -2.138  13.024  20.447  0.00  0.00    +0.000 C 
ATOM     32  F   UNL     1      -2.925  12.400  19.533  0.00  0.00    +0.000 F 
ATOM     33  F   UNL     1      -2.071  12.205  21.528  0.00  0.00    +0.000 F 
ENDBRANCH  30  31
ENDBRANCH  21  22
ENDBRANCH  18  21
ENDBRANCH   1  18
TORSDOF 5
ENDMDL
