MODEL 1
REMARK VINA RESULT:      -9.0      0.000      0.000
REMARK  Name = 
REMARK  7 active torsions:
REMARK  status: ('A' for Active; 'I' for Inactive)
REMARK    1  A    between atoms: C_1  and  N_2
REMARK    2  A    between atoms: C_3  and  C_5
REMARK    3  A    between atoms: C_8  and  N_9
REMARK    4  A    between atoms: C_10  and  C_12
REMARK    5  A    between atoms: C_16  and  O_17
REMARK    6  A    between atoms: O_17  and  C_18
REMARK    7  A    between atoms: C_18  and  C_19
REMARK                            x       y       z     vdW  Elec       q    Type
REMARK                         _______ _______ _______ _____ _____    ______ ____
ROOT
ATOM      1  C   UNL     1       3.138   5.615  19.685  0.00  0.00    +0.000 A 
ATOM      2  C   UNL     1       2.540   4.443  20.163  0.00  0.00    +0.000 A 
ATOM      3  C   UNL     1       3.225   3.227  20.088  0.00  0.00    +0.000 A 
ATOM      4  C   UNL     1       4.508   3.184  19.539  0.00  0.00    +0.000 A 
ATOM      5  C   UNL     1       5.109   4.358  19.081  0.00  0.00    +0.000 A 
ATOM      6  C   UNL     1       4.410   5.561  19.128  0.00  0.00    +0.000 A 
ENDROOT
BRANCH   1   8
ATOM      7  N   UNL     1       1.779   7.293  20.845  0.00  0.00    +0.000 N 
ATOM      8  C   UNL     1       2.375   6.883  19.651  0.00  0.00    +0.000 C 
ATOM      9  O   UNL     1       2.339   7.466  18.570  0.00  0.00    +0.000 OA
ATOM     10  H   UNL     1       1.819   6.672  21.638  0.00  0.00    +0.000 HD
BRANCH   7  14
ATOM     11  C   UNL     1      -0.383  10.876  21.490  0.00  0.00    +0.000 A 
ATOM     12  C   UNL     1       0.363  10.716  20.323  0.00  0.00    +0.000 A 
ATOM     13  C   UNL     1       1.083   9.540  20.106  0.00  0.00    +0.000 A 
ATOM     14  C   UNL     1       1.077   8.504  21.042  0.00  0.00    +0.000 A 
ATOM     15  C   UNL     1       0.347   8.678  22.228  0.00  0.00    +0.000 A 
ATOM     16  C   UNL     1      -0.378   9.859  22.453  0.00  0.00    +0.000 A 
BRANCH  11  19
ATOM     17  C   UNL     1      -1.159  14.346  22.793  0.00  0.00    +0.000 C 
ATOM     18  N   UNL     1      -0.507  13.105  22.468  0.00  0.00    +0.000 N 
ATOM     19  C   UNL     1      -1.154  12.127  21.741  0.00  0.00    +0.000 C 
ATOM     20  O   UNL     1      -2.293  12.245  21.306  0.00  0.00    +0.000 OA
ATOM     21  H   UNL     1       0.476  13.012  22.685  0.00  0.00    +0.000 HD
ENDBRANCH  11  19
ENDBRANCH   7  14
ENDBRANCH   1   8
BRANCH   5  22
ATOM     22  O   UNL     1       6.378   4.261  18.576  0.00  0.00    +0.000 OA
BRANCH  22  23
ATOM     23  C   UNL     1       6.748   5.368  17.733  0.00  0.00    +0.000 C 
BRANCH  23  24
ATOM     24  C   UNL     1       6.702   5.011  16.298  0.00  0.00    +0.000 A 
ATOM     25  C   UNL     1       5.862   4.127  15.660  0.00  0.00    +0.000 A 
ATOM     26  N   UNL     1       6.249   4.139  14.353  0.00  0.00    +0.000 N 
ATOM     27  C   UNL     1       5.745   3.406  13.282  0.00  0.00    +0.000 A 
ATOM     28  C   UNL     1       6.290   3.572  12.063  0.00  0.00    +0.000 A 
ATOM     29  C   UNL     1       7.390   4.518  11.911  0.00  0.00    +0.000 A 
ATOM     30  C   UNL     1       7.870   5.225  12.953  0.00  0.00    +0.000 A 
ATOM     31  C   UNL     1       7.297   5.046  14.244  0.00  0.00    +0.000 A 
ATOM     32  N   UNL     1       7.579   5.594  15.407  0.00  0.00    +0.000 NA
ENDBRANCH  23  24
ENDBRANCH  22  23
ENDBRANCH   5  22
TORSDOF 6
ENDMDL
MODEL 2
REMARK VINA RESULT:      -9.0      5.934      8.197
REMARK  Name = 
REMARK  7 active torsions:
REMARK  status: ('A' for Active; 'I' for Inactive)
REMARK    1  A    between atoms: C_1  and  N_2
REMARK    2  A    between atoms: C_3  and  C_5
REMARK    3  A    between atoms: C_8  and  N_9
REMARK    4  A    between atoms: C_10  and  C_12
REMARK    5  A    between atoms: C_16  and  O_17
REMARK    6  A    between atoms: O_17  and  C_18
REMARK    7  A    between atoms: C_18  and  C_19
REMARK                            x       y       z     vdW  Elec       q    Type
REMARK                         _______ _______ _______ _____ _____    ______ ____
ROOT
ATOM      1  C   UNL     1       7.967   7.477  18.182  0.00  0.00    +0.000 A 
ATOM      2  C   UNL     1       8.366   6.696  19.273  0.00  0.00    +0.000 A 
ATOM      3  C   UNL     1       8.031   5.340  19.323  0.00  0.00    +0.000 A 
ATOM      4  C   UNL     1       7.301   4.765  18.281  0.00  0.00    +0.000 A 
ATOM      5  C   UNL     1       6.921   5.542  17.186  0.00  0.00    +0.000 A 
ATOM      6  C   UNL     1       7.229   6.900  17.156  0.00  0.00    +0.000 A 
ENDROOT
BRANCH   1   8
ATOM      7  N   UNL     1       9.200   9.413  19.043  0.00  0.00    +0.000 N 
ATOM      8  C   UNL     1       8.214   8.937  18.177  0.00  0.00    +0.000 C 
ATOM      9  O   UNL     1       7.527   9.601  17.405  0.00  0.00    +0.000 OA
ATOM     10  H   UNL     1       9.629   8.763  19.685  0.00  0.00    +0.000 HD
BRANCH   7  14
ATOM     11  C   UNL     1      10.457  13.441  19.387  0.00  0.00    +0.000 A 
ATOM     12  C   UNL     1      10.585  12.775  18.168  0.00  0.00    +0.000 A 
ATOM     13  C   UNL     1      10.178  11.445  18.049  0.00  0.00    +0.000 A 
ATOM     14  C   UNL     1       9.639  10.753  19.135  0.00  0.00    +0.000 A 
ATOM     15  C   UNL     1       9.537  11.416  20.367  0.00  0.00    +0.000 A 
ATOM     16  C   UNL     1       9.945  12.754  20.494  0.00  0.00    +0.000 A 
BRANCH  11  19
ATOM     17  C   UNL     1      10.522  17.190  18.849  0.00  0.00    +0.000 C 
ATOM     18  N   UNL     1      10.180  15.792  18.807  0.00  0.00    +0.000 N 
ATOM     19  C   UNL     1      10.891  14.860  19.534  0.00  0.00    +0.000 C 
ATOM     20  O   UNL     1      11.827  15.143  20.272  0.00  0.00    +0.000 OA
ATOM     21  H   UNL     1       9.335  15.523  18.321  0.00  0.00    +0.000 HD
ENDBRANCH  11  19
ENDBRANCH   7  14
ENDBRANCH   1   8
BRANCH   5  22
ATOM     22  O   UNL     1       6.228   4.920  16.182  0.00  0.00    +0.000 OA
BRANCH  22  23
ATOM     23  C   UNL     1       4.861   5.359  16.068  0.00  0.00    +0.000 C 
BRANCH  23  24
ATOM     24  C   UNL     1       4.009   4.795  17.138  0.00  0.00    +0.000 A 
ATOM     25  C   UNL     1       3.677   3.480  17.367  0.00  0.00    +0.000 A 
ATOM     26  N   UNL     1       2.849   3.498  18.450  0.00  0.00    +0.000 N 
ATOM     27  C   UNL     1       2.207   2.437  19.083  0.00  0.00    +0.000 A 
ATOM     28  C   UNL     1       1.419   2.689  20.144  0.00  0.00    +0.000 A 
ATOM     29  C   UNL     1       1.270   4.068  20.593  0.00  0.00    +0.000 A 
ATOM     30  C   UNL     1       1.898   5.090  19.976  0.00  0.00    +0.000 A 
ATOM     31  C   UNL     1       2.726   4.824  18.850  0.00  0.00    +0.000 A 
ATOM     32  N   UNL     1       3.430   5.624  18.077  0.00  0.00    +0.000 NA
ENDBRANCH  23  24
ENDBRANCH  22  23
ENDBRANCH   5  22
TORSDOF 6
ENDMDL
MODEL 3
REMARK VINA RESULT:      -8.6      5.882      8.339
REMARK  Name = 
REMARK  7 active torsions:
REMARK  status: ('A' for Active; 'I' for Inactive)
REMARK    1  A    between atoms: C_1  and  N_2
REMARK    2  A    between atoms: C_3  and  C_5
REMARK    3  A    between atoms: C_8  and  N_9
REMARK    4  A    between atoms: C_10  and  C_12
REMARK    5  A    between atoms: C_16  and  O_17
REMARK    6  A    between atoms: O_17  and  C_18
REMARK    7  A    between atoms: C_18  and  C_19
REMARK                            x       y       z     vdW  Elec       q    Type
REMARK                         _______ _______ _______ _____ _____    ______ ____
ROOT
ATOM      1  C   UNL     1       7.876   7.473  18.000  0.00  0.00    +0.000 A 
ATOM      2  C   UNL     1       8.308   6.857  19.181  0.00  0.00    +0.000 A 
ATOM      3  C   UNL     1       8.055   5.499  19.395  0.00  0.00    +0.000 A 
ATOM      4  C   UNL     1       7.375   4.757  18.428  0.00  0.00    +0.000 A 
ATOM      5  C   UNL     1       6.962   5.370  17.244  0.00  0.00    +0.000 A 
ATOM      6  C   UNL     1       7.187   6.730  17.049  0.00  0.00    +0.000 A 
ENDROOT
BRANCH   1   8
ATOM      7  N   UNL     1       9.121   9.535  18.453  0.00  0.00    +0.000 N 
ATOM      8  C   UNL     1       8.032   8.934  17.817  0.00  0.00    +0.000 C 
ATOM      9  O   UNL     1       7.188   9.487  17.117  0.00  0.00    +0.000 OA
ATOM     10  H   UNL     1       9.688   8.972  19.068  0.00  0.00    +0.000 HD
BRANCH   7  14
ATOM     11  C   UNL     1      10.316  13.584  18.125  0.00  0.00    +0.000 A 
ATOM     12  C   UNL     1       9.087  13.267  18.704  0.00  0.00    +0.000 A 
ATOM     13  C   UNL     1       8.684  11.935  18.811  0.00  0.00    +0.000 A 
ATOM     14  C   UNL     1       9.491  10.895  18.343  0.00  0.00    +0.000 A 
ATOM     15  C   UNL     1      10.713  11.217  17.735  0.00  0.00    +0.000 A 
ATOM     16  C   UNL     1      11.124  12.556  17.624  0.00  0.00    +0.000 A 
BRANCH  11  19
ATOM     17  C   UNL     1      10.206  17.250  17.180  0.00  0.00    +0.000 C 
ATOM     18  N   UNL     1       9.877  15.863  17.380  0.00  0.00    +0.000 N 
ATOM     19  C   UNL     1      10.760  15.001  17.998  0.00  0.00    +0.000 C 
ATOM     20  O   UNL     1      11.853  15.345  18.435  0.00  0.00    +0.000 OA
ATOM     21  H   UNL     1       8.938  15.559  17.162  0.00  0.00    +0.000 HD
ENDBRANCH  11  19
ENDBRANCH   7  14
ENDBRANCH   1   8
BRANCH   5  22
ATOM     22  O   UNL     1       6.321   4.588  16.320  0.00  0.00    +0.000 OA
BRANCH  22  23
ATOM     23  C   UNL     1       4.957   4.982  16.080  0.00  0.00    +0.000 C 
BRANCH  23  24
ATOM     24  C   UNL     1       4.055   4.543  17.167  0.00  0.00    +0.000 A 
ATOM     25  C   UNL     1       3.692   3.263  17.517  0.00  0.00    +0.000 A 
ATOM     26  N   UNL     1       2.823   3.405  18.558  0.00  0.00    +0.000 N 
ATOM     27  C   UNL     1       2.140   2.423  19.271  0.00  0.00    +0.000 A 
ATOM     28  C   UNL     1       1.317   2.793  20.268  0.00  0.00    +0.000 A 
ATOM     29  C   UNL     1       1.174   4.214  20.567  0.00  0.00    +0.000 A 
ATOM     30  C   UNL     1       1.842   5.158  19.874  0.00  0.00    +0.000 A 
ATOM     31  C   UNL     1       2.708   4.766  18.814  0.00  0.00    +0.000 A 
ATOM     32  N   UNL     1       3.455   5.472  17.992  0.00  0.00    +0.000 NA
ENDBRANCH  23  24
ENDBRANCH  22  23
ENDBRANCH   5  22
TORSDOF 6
ENDMDL
MODEL 4
REMARK VINA RESULT:      -8.6      2.462      3.155
REMARK  Name = 
REMARK  7 active torsions:
REMARK  status: ('A' for Active; 'I' for Inactive)
REMARK    1  A    between atoms: C_1  and  N_2
REMARK    2  A    between atoms: C_3  and  C_5
REMARK    3  A    between atoms: C_8  and  N_9
REMARK    4  A    between atoms: C_10  and  C_12
REMARK    5  A    between atoms: C_16  and  O_17
REMARK    6  A    between atoms: O_17  and  C_18
REMARK    7  A    between atoms: C_18  and  C_19
REMARK                            x       y       z     vdW  Elec       q    Type
REMARK                         _______ _______ _______ _____ _____    ______ ____
ROOT
ATOM      1  C   UNL     1       1.977   5.679  20.182  0.00  0.00    +0.000 A 
ATOM      2  C   UNL     1       1.965   4.833  21.298  0.00  0.00    +0.000 A 
ATOM      3  C   UNL     1       2.177   3.461  21.138  0.00  0.00    +0.000 A 
ATOM      4  C   UNL     1       2.404   2.935  19.865  0.00  0.00    +0.000 A 
ATOM      5  C   UNL     1       2.434   3.784  18.757  0.00  0.00    +0.000 A 
ATOM      6  C   UNL     1       2.190   5.145  18.917  0.00  0.00    +0.000 A 
ENDROOT
BRANCH   1   8
ATOM      7  N   UNL     1       0.581   7.426  21.185  0.00  0.00    +0.000 N 
ATOM      8  C   UNL     1       1.636   7.112  20.326  0.00  0.00    +0.000 C 
ATOM      9  O   UNL     1       2.318   7.901  19.676  0.00  0.00    +0.000 OA
ATOM     10  H   UNL     1       0.052   6.669  21.590  0.00  0.00    +0.000 HD
BRANCH   7  14
ATOM     11  C   UNL     1      -0.754  11.298  22.256  0.00  0.00    +0.000 A 
ATOM     12  C   UNL     1      -0.457  11.010  20.924  0.00  0.00    +0.000 A 
ATOM     13  C   UNL     1      -0.011   9.737  20.565  0.00  0.00    +0.000 A 
ATOM     14  C   UNL     1       0.150   8.730  21.518  0.00  0.00    +0.000 A 
ATOM     15  C   UNL     1      -0.124   9.030  22.861  0.00  0.00    +0.000 A 
ATOM     16  C   UNL     1      -0.572  10.309  23.230  0.00  0.00    +0.000 A 
BRANCH  11  19
ATOM     17  C   UNL     1      -3.035  13.966  23.679  0.00  0.00    +0.000 C 
ATOM     18  N   UNL     1      -2.464  12.711  23.267  0.00  0.00    +0.000 N 
ATOM     19  C   UNL     1      -1.227  12.654  22.660  0.00  0.00    +0.000 C 
ATOM     20  O   UNL     1      -0.525  13.637  22.451  0.00  0.00    +0.000 OA
ATOM     21  H   UNL     1      -2.939  11.860  23.537  0.00  0.00    +0.000 HD
ENDBRANCH  11  19
ENDBRANCH   7  14
ENDBRANCH   1   8
BRANCH   5  22
ATOM     22  O   UNL     1       2.685   3.217  17.536  0.00  0.00    +0.000 OA
BRANCH  22  23
ATOM     23  C   UNL     1       4.063   2.844  17.346  0.00  0.00    +0.000 C 
BRANCH  23  24
ATOM     24  C   UNL     1       4.975   3.998  17.505  0.00  0.00    +0.000 A 
ATOM     25  C   UNL     1       5.070   5.130  16.729  0.00  0.00    +0.000 A 
ATOM     26  N   UNL     1       6.081   5.862  17.278  0.00  0.00    +0.000 N 
ATOM     27  C   UNL     1       6.604   7.084  16.866  0.00  0.00    +0.000 A 
ATOM     28  C   UNL     1       7.619   7.629  17.561  0.00  0.00    +0.000 A 
ATOM     29  C   UNL     1       8.132   6.916  18.725  0.00  0.00    +0.000 A 
ATOM     30  C   UNL     1       7.617   5.734  19.120  0.00  0.00    +0.000 A 
ATOM     31  C   UNL     1       6.547   5.155  18.381  0.00  0.00    +0.000 A 
ATOM     32  N   UNL     1       5.884   4.030  18.543  0.00  0.00    +0.000 NA
ENDBRANCH  23  24
ENDBRANCH  22  23
ENDBRANCH   5  22
TORSDOF 6
ENDMDL
MODEL 5
REMARK VINA RESULT:      -8.5      1.171      1.562
REMARK  Name = 
REMARK  7 active torsions:
REMARK  status: ('A' for Active; 'I' for Inactive)
REMARK    1  A    between atoms: C_1  and  N_2
REMARK    2  A    between atoms: C_3  and  C_5
REMARK    3  A    between atoms: C_8  and  N_9
REMARK    4  A    between atoms: C_10  and  C_12
REMARK    5  A    between atoms: C_16  and  O_17
REMARK    6  A    between atoms: O_17  and  C_18
REMARK    7  A    between atoms: C_18  and  C_19
REMARK                            x       y       z     vdW  Elec       q    Type
REMARK                         _______ _______ _______ _____ _____    ______ ____
ROOT
ATOM      1  C   UNL     1       2.981   5.075  19.762  0.00  0.00    +0.000 A 
ATOM      2  C   UNL     1       2.438   3.785  19.726  0.00  0.00    +0.000 A 
ATOM      3  C   UNL     1       3.216   2.710  19.288  0.00  0.00    +0.000 A 
ATOM      4  C   UNL     1       4.538   2.924  18.891  0.00  0.00    +0.000 A 
ATOM      5  C   UNL     1       5.082   4.207  18.947  0.00  0.00    +0.000 A 
ATOM      6  C   UNL     1       4.293   5.281  19.352  0.00  0.00    +0.000 A 
ENDROOT
BRANCH   1   8
ATOM      7  N   UNL     1       2.334   7.408  19.376  0.00  0.00    +0.000 N 
ATOM      8  C   UNL     1       2.130   6.236  20.108  0.00  0.00    +0.000 C 
ATOM      9  O   UNL     1       1.315   6.062  21.011  0.00  0.00    +0.000 OA
ATOM     10  H   UNL     1       3.098   7.436  18.719  0.00  0.00    +0.000 HD
BRANCH   7  14
ATOM     11  C   UNL     1       0.115  11.002  19.666  0.00  0.00    +0.000 A 
ATOM     12  C   UNL     1       0.343  10.233  20.807  0.00  0.00    +0.000 A 
ATOM     13  C   UNL     1       1.069   9.044  20.718  0.00  0.00    +0.000 A 
ATOM     14  C   UNL     1       1.579   8.597  19.497  0.00  0.00    +0.000 A 
ATOM     15  C   UNL     1       1.325   9.357  18.346  0.00  0.00    +0.000 A 
ATOM     16  C   UNL     1       0.594  10.554  18.429  0.00  0.00    +0.000 A 
BRANCH  11  19
ATOM     17  C   UNL     1      -1.025  14.376  20.956  0.00  0.00    +0.000 C 
ATOM     18  N   UNL     1      -0.327  13.131  20.768  0.00  0.00    +0.000 N 
ATOM     19  C   UNL     1      -0.662  12.272  19.741  0.00  0.00    +0.000 C 
ATOM     20  O   UNL     1      -1.538  12.507  18.917  0.00  0.00    +0.000 OA
ATOM     21  H   UNL     1       0.490  12.952  21.336  0.00  0.00    +0.000 HD
ENDBRANCH  11  19
ENDBRANCH   7  14
ENDBRANCH   1   8
BRANCH   5  22
ATOM     22  O   UNL     1       6.390   4.354  18.568  0.00  0.00    +0.000 OA
BRANCH  22  23
ATOM     23  C   UNL     1       6.611   5.464  17.678  0.00  0.00    +0.000 C 
BRANCH  23  24
ATOM     24  C   UNL     1       6.588   5.048  16.259  0.00  0.00    +0.000 A 
ATOM     25  C   UNL     1       5.807   4.086  15.660  0.00  0.00    +0.000 A 
ATOM     26  N   UNL     1       6.192   4.070  14.352  0.00  0.00    +0.000 N 
ATOM     27  C   UNL     1       5.737   3.264  13.312  0.00  0.00    +0.000 A 
ATOM     28  C   UNL     1       6.269   3.416  12.086  0.00  0.00    +0.000 A 
ATOM     29  C   UNL     1       7.303   4.426  11.892  0.00  0.00    +0.000 A 
ATOM     30  C   UNL     1       7.736   5.205  12.904  0.00  0.00    +0.000 A 
ATOM     31  C   UNL     1       7.178   5.039  14.203  0.00  0.00    +0.000 A 
ATOM     32  N   UNL     1       7.423   5.651  15.342  0.00  0.00    +0.000 NA
ENDBRANCH  23  24
ENDBRANCH  22  23
ENDBRANCH   5  22
TORSDOF 6
ENDMDL
MODEL 6
REMARK VINA RESULT:      -8.5      1.178      1.588
REMARK  Name = 
REMARK  7 active torsions:
REMARK  status: ('A' for Active; 'I' for Inactive)
REMARK    1  A    between atoms: C_1  and  N_2
REMARK    2  A    between atoms: C_3  and  C_5
REMARK    3  A    between atoms: C_8  and  N_9
REMARK    4  A    between atoms: C_10  and  C_12
REMARK    5  A    between atoms: C_16  and  O_17
REMARK    6  A    between atoms: O_17  and  C_18
REMARK    7  A    between atoms: C_18  and  C_19
REMARK                            x       y       z     vdW  Elec       q    Type
REMARK                         _______ _______ _______ _____ _____    ______ ____
ROOT
ATOM      1  C   UNL     1       2.241   5.745  20.079  0.00  0.00    +0.000 A 
ATOM      2  C   UNL     1       1.449   4.691  20.551  0.00  0.00    +0.000 A 
ATOM      3  C   UNL     1       1.847   3.367  20.338  0.00  0.00    +0.000 A 
ATOM      4  C   UNL     1       3.036   3.099  19.659  0.00  0.00    +0.000 A 
ATOM      5  C   UNL     1       3.832   4.153  19.207  0.00  0.00    +0.000 A 
ATOM      6  C   UNL     1       3.416   5.469  19.392  0.00  0.00    +0.000 A 
ENDROOT
BRANCH   1   8
ATOM      7  N   UNL     1       0.785   7.401  21.150  0.00  0.00    +0.000 N 
ATOM      8  C   UNL     1       1.769   7.143  20.193  0.00  0.00    +0.000 C 
ATOM      9  O   UNL     1       2.291   7.957  19.435  0.00  0.00    +0.000 OA
ATOM     10  H   UNL     1       0.384   6.620  21.647  0.00  0.00    +0.000 HD
BRANCH   7  14
ATOM     11  C   UNL     1      -0.828  11.177  22.182  0.00  0.00    +0.000 A 
ATOM     12  C   UNL     1      -0.595  10.864  20.843  0.00  0.00    +0.000 A 
ATOM     13  C   UNL     1      -0.058   9.623  20.496  0.00  0.00    +0.000 A 
ATOM     14  C   UNL     1       0.258   8.673  21.469  0.00  0.00    +0.000 A 
ATOM     15  C   UNL     1       0.049   9.001  22.817  0.00  0.00    +0.000 A 
ATOM     16  C   UNL     1      -0.490  10.248  23.173  0.00  0.00    +0.000 A 
BRANCH  11  19
ATOM     17  C   UNL     1      -3.421  13.760  23.154  0.00  0.00    +0.000 C 
ATOM     18  N   UNL     1      -2.757  12.535  22.796  0.00  0.00    +0.000 N 
ATOM     19  C   UNL     1      -1.396  12.499  22.571  0.00  0.00    +0.000 C 
ATOM     20  O   UNL     1      -0.663  13.475  22.681  0.00  0.00    +0.000 OA
ATOM     21  H   UNL     1      -3.291  11.677  22.825  0.00  0.00    +0.000 HD
ENDBRANCH  11  19
ENDBRANCH   7  14
ENDBRANCH   1   8
BRANCH   5  22
ATOM     22  O   UNL     1       5.001   3.831  18.568  0.00  0.00    +0.000 OA
BRANCH  22  23
ATOM     23  C   UNL     1       5.706   4.974  18.047  0.00  0.00    +0.000 C 
BRANCH  23  24
ATOM     24  C   UNL     1       6.059   4.803  16.621  0.00  0.00    +0.000 A 
ATOM     25  C   UNL     1       7.078   5.397  15.912  0.00  0.00    +0.000 A 
ATOM     26  N   UNL     1       6.952   4.930  14.637  0.00  0.00    +0.000 N 
ATOM     27  C   UNL     1       7.714   5.234  13.513  0.00  0.00    +0.000 A 
ATOM     28  C   UNL     1       7.404   4.656  12.337  0.00  0.00    +0.000 A 
ATOM     29  C   UNL     1       6.279   3.729  12.289  0.00  0.00    +0.000 A 
ATOM     30  C   UNL     1       5.548   3.439  13.384  0.00  0.00    +0.000 A 
ATOM     31  C   UNL     1       5.873   4.055  14.626  0.00  0.00    +0.000 A 
ATOM     32  N   UNL     1       5.326   3.953  15.818  0.00  0.00    +0.000 NA
ENDBRANCH  23  24
ENDBRANCH  22  23
ENDBRANCH   5  22
TORSDOF 6
ENDMDL
MODEL 7
REMARK VINA RESULT:      -8.5      5.799      8.630
REMARK  Name = 
REMARK  7 active torsions:
REMARK  status: ('A' for Active; 'I' for Inactive)
REMARK    1  A    between atoms: C_1  and  N_2
REMARK    2  A    between atoms: C_3  and  C_5
REMARK    3  A    between atoms: C_8  and  N_9
REMARK    4  A    between atoms: C_10  and  C_12
REMARK    5  A    between atoms: C_16  and  O_17
REMARK    6  A    between atoms: O_17  and  C_18
REMARK    7  A    between atoms: C_18  and  C_19
REMARK                            x       y       z     vdW  Elec       q    Type
REMARK                         _______ _______ _______ _____ _____    ______ ____
ROOT
ATOM      1  C   UNL     1       7.594   7.468  18.025  0.00  0.00    +0.000 A 
ATOM      2  C   UNL     1       8.244   6.486  18.783  0.00  0.00    +0.000 A 
ATOM      3  C   UNL     1       7.738   5.184  18.821  0.00  0.00    +0.000 A 
ATOM      4  C   UNL     1       6.588   4.863  18.099  0.00  0.00    +0.000 A 
ATOM      5  C   UNL     1       5.954   5.839  17.329  0.00  0.00    +0.000 A 
ATOM      6  C   UNL     1       6.442   7.144  17.321  0.00  0.00    +0.000 A 
ENDROOT
BRANCH   1   8
ATOM      7  N   UNL     1       8.910   9.223  19.120  0.00  0.00    +0.000 N 
ATOM      8  C   UNL     1       8.052   8.876  18.075  0.00  0.00    +0.000 C 
ATOM      9  O   UNL     1       7.636   9.613  17.185  0.00  0.00    +0.000 OA
ATOM     10  H   UNL     1       9.103   8.534  19.831  0.00  0.00    +0.000 HD
BRANCH   7  14
ATOM     11  C   UNL     1      10.785  12.989  19.595  0.00  0.00    +0.000 A 
ATOM     12  C   UNL     1      10.183  12.371  20.690  0.00  0.00    +0.000 A 
ATOM     13  C   UNL     1       9.558  11.132  20.540  0.00  0.00    +0.000 A 
ATOM     14  C   UNL     1       9.518  10.486  19.302  0.00  0.00    +0.000 A 
ATOM     15  C   UNL     1      10.101  11.123  18.196  0.00  0.00    +0.000 A 
ATOM     16  C   UNL     1      10.730  12.370  18.340  0.00  0.00    +0.000 A 
BRANCH  11  19
ATOM     17  C   UNL     1      11.580  16.413  21.006  0.00  0.00    +0.000 C 
ATOM     18  N   UNL     1      11.026  15.103  20.784  0.00  0.00    +0.000 N 
ATOM     19  C   UNL     1      11.453  14.315  19.736  0.00  0.00    +0.000 C 
ATOM     20  O   UNL     1      12.331  14.648  18.948  0.00  0.00    +0.000 OA
ATOM     21  H   UNL     1      10.398  14.727  21.482  0.00  0.00    +0.000 HD
ENDBRANCH  11  19
ENDBRANCH   7  14
ENDBRANCH   1   8
BRANCH   5  22
ATOM     22  O   UNL     1       4.843   5.462  16.622  0.00  0.00    +0.000 OA
BRANCH  22  23
ATOM     23  C   UNL     1       3.755   5.017  17.453  0.00  0.00    +0.000 C 
BRANCH  23  24
ATOM     24  C   UNL     1       3.088   6.144  18.141  0.00  0.00    +0.000 A 
ATOM     25  C   UNL     1       2.699   6.237  19.458  0.00  0.00    +0.000 A 
ATOM     26  N   UNL     1       2.106   7.459  19.575  0.00  0.00    +0.000 N 
ATOM     27  C   UNL     1       1.516   8.044  20.693  0.00  0.00    +0.000 A 
ATOM     28  C   UNL     1       0.978   9.273  20.579  0.00  0.00    +0.000 A 
ATOM     29  C   UNL     1       1.037   9.945  19.287  0.00  0.00    +0.000 A 
ATOM     30  C   UNL     1       1.613   9.372  18.211  0.00  0.00    +0.000 A 
ATOM     31  C   UNL     1       2.176   8.070  18.329  0.00  0.00    +0.000 A 
ATOM     32  N   UNL     1       2.778   7.297  17.450  0.00  0.00    +0.000 NA
ENDBRANCH  23  24
ENDBRANCH  22  23
ENDBRANCH   5  22
TORSDOF 6
ENDMDL
MODEL 8
REMARK VINA RESULT:      -8.5      1.010      1.325
REMARK  Name = 
REMARK  7 active torsions:
REMARK  status: ('A' for Active; 'I' for Inactive)
REMARK    1  A    between atoms: C_1  and  N_2
REMARK    2  A    between atoms: C_3  and  C_5
REMARK    3  A    between atoms: C_8  and  N_9
REMARK    4  A    between atoms: C_10  and  C_12
REMARK    5  A    between atoms: C_16  and  O_17
REMARK    6  A    between atoms: O_17  and  C_18
REMARK    7  A    between atoms: C_18  and  C_19
REMARK                            x       y       z     vdW  Elec       q    Type
REMARK                         _______ _______ _______ _____ _____    ______ ____
ROOT
ATOM      1  C   UNL     1       2.891   5.805  18.710  0.00  0.00    +0.000 A 
ATOM      2  C   UNL     1       2.067   4.750  18.300  0.00  0.00    +0.000 A 
ATOM      3  C   UNL     1       2.631   3.532  17.910  0.00  0.00    +0.000 A 
ATOM      4  C   UNL     1       4.018   3.368  17.934  0.00  0.00    +0.000 A 
ATOM      5  C   UNL     1       4.835   4.416  18.361  0.00  0.00    +0.000 A 
ATOM      6  C   UNL     1       4.270   5.638  18.718  0.00  0.00    +0.000 A 
ENDROOT
BRANCH   1   8
ATOM      7  N   UNL     1       1.721   7.296  20.265  0.00  0.00    +0.000 N 
ATOM      8  C   UNL     1       2.311   7.134  19.010  0.00  0.00    +0.000 C 
ATOM      9  O   UNL     1       2.405   7.979  18.124  0.00  0.00    +0.000 OA
ATOM     10  H   UNL     1       1.639   6.488  20.864  0.00  0.00    +0.000 HD
BRANCH   7  14
ATOM     11  C   UNL     1       0.146  10.947  21.719  0.00  0.00    +0.000 A 
ATOM     12  C   UNL     1       0.393   9.896  22.602  0.00  0.00    +0.000 A 
ATOM     13  C   UNL     1       0.907   8.688  22.130  0.00  0.00    +0.000 A 
ATOM     14  C   UNL     1       1.182   8.499  20.774  0.00  0.00    +0.000 A 
ATOM     15  C   UNL     1       0.907   9.547  19.882  0.00  0.00    +0.000 A 
ATOM     16  C   UNL     1       0.389  10.765  20.352  0.00  0.00    +0.000 A 
BRANCH  11  19
ATOM     17  C   UNL     1      -2.261  13.366  23.361  0.00  0.00    +0.000 C 
ATOM     18  N   UNL     1      -1.617  12.178  22.867  0.00  0.00    +0.000 N 
ATOM     19  C   UNL     1      -0.408  12.243  22.205  0.00  0.00    +0.000 C 
ATOM     20  O   UNL     1       0.207  13.285  22.013  0.00  0.00    +0.000 OA
ATOM     21  H   UNL     1      -2.013  11.282  23.118  0.00  0.00    +0.000 HD
ENDBRANCH  11  19
ENDBRANCH   7  14
ENDBRANCH   1   8
BRANCH   5  22
ATOM     22  O   UNL     1       6.186   4.191  18.388  0.00  0.00    +0.000 OA
BRANCH  22  23
ATOM     23  C   UNL     1       6.941   5.131  17.601  0.00  0.00    +0.000 C 
BRANCH  23  24
ATOM     24  C   UNL     1       6.871   4.825  16.155  0.00  0.00    +0.000 A 
ATOM     25  C   UNL     1       6.126   3.859  15.518  0.00  0.00    +0.000 A 
ATOM     26  N   UNL     1       6.442   3.973  14.196  0.00  0.00    +0.000 N 
ATOM     27  C   UNL     1       5.988   3.218  13.118  0.00  0.00    +0.000 A 
ATOM     28  C   UNL     1       6.443   3.503  11.884  0.00  0.00    +0.000 A 
ATOM     29  C   UNL     1       7.395   4.595  11.724  0.00  0.00    +0.000 A 
ATOM     30  C   UNL     1       7.827   5.323  12.774  0.00  0.00    +0.000 A 
ATOM     31  C   UNL     1       7.351   5.018  14.080  0.00  0.00    +0.000 A 
ATOM     32  N   UNL     1       7.614   5.556  15.252  0.00  0.00    +0.000 NA
ENDBRANCH  23  24
ENDBRANCH  22  23
ENDBRANCH   5  22
TORSDOF 6
ENDMDL
MODEL 9
REMARK VINA RESULT:      -8.5      3.267     11.117
REMARK  Name = 
REMARK  7 active torsions:
REMARK  status: ('A' for Active; 'I' for Inactive)
REMARK    1  A    between atoms: C_1  and  N_2
REMARK    2  A    between atoms: C_3  and  C_5
REMARK    3  A    between atoms: C_8  and  N_9
REMARK    4  A    between atoms: C_10  and  C_12
REMARK    5  A    between atoms: C_16  and  O_17
REMARK    6  A    between atoms: O_17  and  C_18
REMARK    7  A    between atoms: C_18  and  C_19
REMARK                            x       y       z     vdW  Elec       q    Type
REMARK                         _______ _______ _______ _____ _____    ______ ____
ROOT
ATOM      1  C   UNL     1       1.374   8.709  19.647  0.00  0.00    +0.000 A 
ATOM      2  C   UNL     1       1.404   8.037  20.875  0.00  0.00    +0.000 A 
ATOM      3  C   UNL     1       0.712   8.556  21.973  0.00  0.00    +0.000 A 
ATOM      4  C   UNL     1      -0.011   9.743  21.842  0.00  0.00    +0.000 A 
ATOM      5  C   UNL     1      -0.054  10.400  20.612  0.00  0.00    +0.000 A 
ATOM      6  C   UNL     1       0.663   9.897  19.529  0.00  0.00    +0.000 A 
ENDROOT
BRANCH   1   8
ATOM      7  N   UNL     1       2.973   7.092  18.733  0.00  0.00    +0.000 N 
ATOM      8  C   UNL     1       2.199   8.233  18.513  0.00  0.00    +0.000 C 
ATOM      9  O   UNL     1       2.126   8.886  17.476  0.00  0.00    +0.000 OA
ATOM     10  H   UNL     1       3.003   6.704  19.663  0.00  0.00    +0.000 HD
BRANCH   7  14
ATOM     11  C   UNL     1       5.361   5.203  15.790  0.00  0.00    +0.000 A 
ATOM     12  C   UNL     1       4.381   4.473  16.463  0.00  0.00    +0.000 A 
ATOM     13  C   UNL     1       3.594   5.088  17.438  0.00  0.00    +0.000 A 
ATOM     14  C   UNL     1       3.766   6.435  17.764  0.00  0.00    +0.000 A 
ATOM     15  C   UNL     1       4.770   7.160  17.106  0.00  0.00    +0.000 A 
ATOM     16  C   UNL     1       5.566   6.547  16.124  0.00  0.00    +0.000 A 
BRANCH  11  19
ATOM     17  C   UNL     1       6.266   3.330  12.625  0.00  0.00    +0.000 C 
ATOM     18  N   UNL     1       5.549   3.998  13.680  0.00  0.00    +0.000 N 
ATOM     19  C   UNL     1       6.214   4.562  14.749  0.00  0.00    +0.000 C 
ATOM     20  O   UNL     1       7.434   4.561  14.868  0.00  0.00    +0.000 OA
ATOM     21  H   UNL     1       4.556   4.145  13.562  0.00  0.00    +0.000 HD
ENDBRANCH  11  19
ENDBRANCH   7  14
ENDBRANCH   1   8
BRANCH   5  22
ATOM     22  O   UNL     1      -0.798  11.547  20.535  0.00  0.00    +0.000 OA
BRANCH  22  23
ATOM     23  C   UNL     1      -1.264  11.844  19.205  0.00  0.00    +0.000 C 
BRANCH  23  24
ATOM     24  C   UNL     1      -2.736  11.981  19.152  0.00  0.00    +0.000 A 
ATOM     25  C   UNL     1      -3.574  12.593  20.056  0.00  0.00    +0.000 A 
ATOM     26  N   UNL     1      -4.831  12.417  19.561  0.00  0.00    +0.000 N 
ATOM     27  C   UNL     1      -6.051  12.820  20.098  0.00  0.00    +0.000 A 
ATOM     28  C   UNL     1      -7.185  12.530  19.435  0.00  0.00    +0.000 A 
ATOM     29  C   UNL     1      -7.092  11.804  18.173  0.00  0.00    +0.000 A 
ATOM     30  C   UNL     1      -5.906  11.420  17.658  0.00  0.00    +0.000 A 
ATOM     31  C   UNL     1      -4.707  11.722  18.363  0.00  0.00    +0.000 A 
ATOM     32  N   UNL     1      -3.446  11.459  18.091  0.00  0.00    +0.000 NA
ENDBRANCH  23  24
ENDBRANCH  22  23
ENDBRANCH   5  22
TORSDOF 6
ENDMDL
