MODEL 1
REMARK VINA RESULT:      -8.7      0.000      0.000
REMARK  Name = 
REMARK  6 active torsions:
REMARK  status: ('A' for Active; 'I' for Inactive)
REMARK    1  A    between atoms: C_1  and  C_2
REMARK    2  A    between atoms: C_2  and  C_3
REMARK    3  A    between atoms: C_10  and  C_11
REMARK    4  A    between atoms: N_13  and  C_14
REMARK    5  A    between atoms: C_14  and  C_15
REMARK    6  A    between atoms: C_18  and  C_19
REMARK                            x       y       z     vdW  Elec       q    Type
REMARK                         _______ _______ _______ _____ _____    ______ ____
ROOT
ATOM      1  C   UNL     1       1.973   6.043  20.157  0.00  0.00    +0.000 C 
ATOM      2  O   UNL     1       1.170   5.407  20.836  0.00  0.00    +0.000 OA
ATOM      3  N   UNL     1       2.058   7.405  20.238  0.00  0.00    +0.000 N 
ATOM      4  H   UNL     1       2.716   7.962  19.711  0.00  0.00    +0.000 HD
ENDROOT
BRANCH   1  14
ATOM      5  C   UNL     1       7.353   5.609  19.206  0.00  0.00    +0.000 C 
ATOM      6  C   UNL     1       6.498   5.660  17.943  0.00  0.00    +0.000 C 
ATOM      7  C   UNL     1       6.527   7.028  17.265  0.00  0.00    +0.000 C 
ATOM      8  C   UNL     1       6.912   4.550  16.945  0.00  0.00    +0.000 C 
ATOM      9  O   UNL     1       7.996   4.410  16.407  0.00  0.00    +0.000 OA
ATOM     10  N   UNL     1       5.805   3.723  16.754  0.00  0.00    +0.000 N 
ATOM     11  C   UNL     1       4.725   4.136  17.519  0.00  0.00    +0.000 A 
ATOM     12  C   UNL     1       3.469   3.575  17.602  0.00  0.00    +0.000 A 
ATOM     13  C   UNL     1       2.538   4.186  18.464  0.00  0.00    +0.000 A 
ATOM     14  C   UNL     1       2.886   5.333  19.215  0.00  0.00    +0.000 A 
ATOM     15  C   UNL     1       4.173   5.872  19.099  0.00  0.00    +0.000 A 
ATOM     16  C   UNL     1       5.074   5.265  18.248  0.00  0.00    +0.000 A 
ATOM     17  H   UNL     1       5.825   2.924  16.139  0.00  0.00    +0.000 HD
ENDBRANCH   1  14
BRANCH   3  18
ATOM     18  C   UNL     1       1.196   8.138  21.145  0.00  0.00    +0.000 C 
BRANCH  18  19
ATOM     19  C   UNL     1       0.983   9.569  20.712  0.00  0.00    +0.000 A 
ATOM     20  N   UNL     1       1.073   9.855  19.393  0.00  0.00    +0.000 NA
ATOM     21  C   UNL     1       0.938  11.157  19.054  0.00  0.00    +0.000 A 
ATOM     22  C   UNL     1       0.718  12.193  19.946  0.00  0.00    +0.000 A 
ATOM     23  C   UNL     1       0.612  11.759  21.259  0.00  0.00    +0.000 A 
ATOM     24  N   UNL     1       0.744  10.479  21.670  0.00  0.00    +0.000 NA
BRANCH  22  25
ATOM     25  C   UNL     1       0.638  13.613  19.555  0.00  0.00    +0.000 A 
ATOM     26  C   UNL     1       1.737  14.300  19.009  0.00  0.00    +0.000 A 
ATOM     27  C   UNL     1       1.654  15.657  18.672  0.00  0.00    +0.000 A 
ATOM     28  C   UNL     1       0.464  16.352  18.858  0.00  0.00    +0.000 A 
ATOM     29  C   UNL     1      -0.641  15.696  19.385  0.00  0.00    +0.000 A 
ATOM     30  C   UNL     1      -0.552  14.348  19.736  0.00  0.00    +0.000 A 
ENDBRANCH  22  25
ENDBRANCH  18  19
ENDBRANCH   3  18
TORSDOF 4
ENDMDL
MODEL 2
REMARK VINA RESULT:      -8.6      0.771      1.249
REMARK  Name = 
REMARK  6 active torsions:
REMARK  status: ('A' for Active; 'I' for Inactive)
REMARK    1  A    between atoms: C_1  and  C_2
REMARK    2  A    between atoms: C_2  and  C_3
REMARK    3  A    between atoms: C_10  and  C_11
REMARK    4  A    between atoms: N_13  and  C_14
REMARK    5  A    between atoms: C_14  and  C_15
REMARK    6  A    between atoms: C_18  and  C_19
REMARK                            x       y       z     vdW  Elec       q    Type
REMARK                         _______ _______ _______ _____ _____    ______ ____
ROOT
ATOM      1  C   UNL     1       2.139   5.878  20.079  0.00  0.00    +0.000 C 
ATOM      2  O   UNL     1       1.298   5.242  20.710  0.00  0.00    +0.000 OA
ATOM      3  N   UNL     1       2.208   7.241  20.150  0.00  0.00    +0.000 N 
ATOM      4  H   UNL     1       2.895   7.798  19.662  0.00  0.00    +0.000 HD
ENDROOT
BRANCH   1  14
ATOM      5  C   UNL     1       6.803   6.961  17.412  0.00  0.00    +0.000 C 
ATOM      6  C   UNL     1       5.843   6.054  16.648  0.00  0.00    +0.000 C 
ATOM      7  C   UNL     1       5.085   6.789  15.545  0.00  0.00    +0.000 C 
ATOM      8  C   UNL     1       6.582   4.821  16.069  0.00  0.00    +0.000 C 
ATOM      9  O   UNL     1       7.492   4.823  15.259  0.00  0.00    +0.000 OA
ATOM     10  N   UNL     1       6.012   3.684  16.639  0.00  0.00    +0.000 N 
ATOM     11  C   UNL     1       5.008   4.014  17.536  0.00  0.00    +0.000 A 
ATOM     12  C   UNL     1       4.223   3.172  18.293  0.00  0.00    +0.000 A 
ATOM     13  C   UNL     1       3.265   3.760  19.140  0.00  0.00    +0.000 A 
ATOM     14  C   UNL     1       3.119   5.165  19.209  0.00  0.00    +0.000 A 
ATOM     15  C   UNL     1       3.935   5.985  18.421  0.00  0.00    +0.000 A 
ATOM     16  C   UNL     1       4.868   5.394  17.592  0.00  0.00    +0.000 A 
ATOM     17  H   UNL     1       6.324   2.752  16.415  0.00  0.00    +0.000 HD
ENDBRANCH   1  14
BRANCH   3  18
ATOM     18  C   UNL     1       1.281   7.977  20.989  0.00  0.00    +0.000 C 
BRANCH  18  19
ATOM     19  C   UNL     1       1.128   9.416  20.559  0.00  0.00    +0.000 A 
ATOM     20  N   UNL     1       1.179   9.694  19.236  0.00  0.00    +0.000 NA
ATOM     21  C   UNL     1       1.100  11.001  18.896  0.00  0.00    +0.000 A 
ATOM     22  C   UNL     1       0.973  12.049  19.792  0.00  0.00    +0.000 A 
ATOM     23  C   UNL     1       0.899  11.624  21.111  0.00  0.00    +0.000 A 
ATOM     24  N   UNL     1       0.979  10.340  21.521  0.00  0.00    +0.000 NA
BRANCH  22  25
ATOM     25  C   UNL     1       0.953  13.470  19.398  0.00  0.00    +0.000 A 
ATOM     26  C   UNL     1      -0.248  14.163  19.161  0.00  0.00    +0.000 A 
ATOM     27  C   UNL     1      -0.249  15.504  18.758  0.00  0.00    +0.000 A 
ATOM     28  C   UNL     1       0.952  16.187  18.599  0.00  0.00    +0.000 A 
ATOM     29  C   UNL     1       2.154  15.531  18.837  0.00  0.00    +0.000 A 
ATOM     30  C   UNL     1       2.153  14.190  19.224  0.00  0.00    +0.000 A 
ENDBRANCH  22  25
ENDBRANCH  18  19
ENDBRANCH   3  18
TORSDOF 4
ENDMDL
MODEL 3
REMARK VINA RESULT:      -8.5      0.156      1.277
REMARK  Name = 
REMARK  6 active torsions:
REMARK  status: ('A' for Active; 'I' for Inactive)
REMARK    1  A    between atoms: C_1  and  C_2
REMARK    2  A    between atoms: C_2  and  C_3
REMARK    3  A    between atoms: C_10  and  C_11
REMARK    4  A    between atoms: N_13  and  C_14
REMARK    5  A    between atoms: C_14  and  C_15
REMARK    6  A    between atoms: C_18  and  C_19
REMARK                            x       y       z     vdW  Elec       q    Type
REMARK                         _______ _______ _______ _____ _____    ______ ____
ROOT
ATOM      1  C   UNL     1       1.989   6.055  20.142  0.00  0.00    +0.000 C 
ATOM      2  O   UNL     1       1.214   5.419  20.852  0.00  0.00    +0.000 OA
ATOM      3  N   UNL     1       2.046   7.420  20.188  0.00  0.00    +0.000 N 
ATOM      4  H   UNL     1       2.681   7.978  19.635  0.00  0.00    +0.000 HD
ENDROOT
BRANCH   1  14
ATOM      5  C   UNL     1       7.365   5.634  19.164  0.00  0.00    +0.000 C 
ATOM      6  C   UNL     1       6.503   5.673  17.905  0.00  0.00    +0.000 C 
ATOM      7  C   UNL     1       6.523   7.036  17.217  0.00  0.00    +0.000 C 
ATOM      8  C   UNL     1       6.915   4.558  16.912  0.00  0.00    +0.000 C 
ATOM      9  O   UNL     1       7.997   4.418  16.370  0.00  0.00    +0.000 OA
ATOM     10  N   UNL     1       5.810   3.725  16.734  0.00  0.00    +0.000 N 
ATOM     11  C   UNL     1       4.733   4.140  17.502  0.00  0.00    +0.000 A 
ATOM     12  C   UNL     1       3.480   3.575  17.597  0.00  0.00    +0.000 A 
ATOM     13  C   UNL     1       2.552   4.188  18.459  0.00  0.00    +0.000 A 
ATOM     14  C   UNL     1       2.900   5.341  19.200  0.00  0.00    +0.000 A 
ATOM     15  C   UNL     1       4.184   5.885  19.073  0.00  0.00    +0.000 A 
ATOM     16  C   UNL     1       5.082   5.275  18.221  0.00  0.00    +0.000 A 
ATOM     17  H   UNL     1       5.830   2.922  16.125  0.00  0.00    +0.000 HD
ENDBRANCH   1  14
BRANCH   3  18
ATOM     18  C   UNL     1       1.185   8.157  21.093  0.00  0.00    +0.000 C 
BRANCH  18  19
ATOM     19  C   UNL     1       1.077   9.618  20.729  0.00  0.00    +0.000 A 
ATOM     20  N   UNL     1       0.941  10.516  21.732  0.00  0.00    +0.000 NA
ATOM     21  C   UNL     1       0.784  11.807  21.361  0.00  0.00    +0.000 A 
ATOM     22  C   UNL     1       0.757  12.261  20.054  0.00  0.00    +0.000 A 
ATOM     23  C   UNL     1       0.941  11.245  19.127  0.00  0.00    +0.000 A 
ATOM     24  N   UNL     1       1.094   9.937  19.425  0.00  0.00    +0.000 NA
BRANCH  22  25
ATOM     25  C   UNL     1       0.521  13.667  19.675  0.00  0.00    +0.000 A 
ATOM     26  C   UNL     1      -0.709  14.308  19.910  0.00  0.00    +0.000 A 
ATOM     27  C   UNL     1      -0.927  15.634  19.517  0.00  0.00    +0.000 A 
ATOM     28  C   UNL     1       0.086  16.354  18.894  0.00  0.00    +0.000 A 
ATOM     29  C   UNL     1       1.316  15.751  18.660  0.00  0.00    +0.000 A 
ATOM     30  C   UNL     1       1.526  14.424  19.039  0.00  0.00    +0.000 A 
ENDBRANCH  22  25
ENDBRANCH  18  19
ENDBRANCH   3  18
TORSDOF 4
ENDMDL
MODEL 4
REMARK VINA RESULT:      -8.4      0.829      1.270
REMARK  Name = 
REMARK  6 active torsions:
REMARK  status: ('A' for Active; 'I' for Inactive)
REMARK    1  A    between atoms: C_1  and  C_2
REMARK    2  A    between atoms: C_2  and  C_3
REMARK    3  A    between atoms: C_10  and  C_11
REMARK    4  A    between atoms: N_13  and  C_14
REMARK    5  A    between atoms: C_14  and  C_15
REMARK    6  A    between atoms: C_18  and  C_19
REMARK                            x       y       z     vdW  Elec       q    Type
REMARK                         _______ _______ _______ _____ _____    ______ ____
ROOT
ATOM      1  C   UNL     1       1.958   5.472  20.158  0.00  0.00    +0.000 C 
ATOM      2  O   UNL     1       1.213   4.741  20.807  0.00  0.00    +0.000 OA
ATOM      3  N   UNL     1       1.979   6.824  20.350  0.00  0.00    +0.000 N 
ATOM      4  H   UNL     1       2.588   7.457  19.850  0.00  0.00    +0.000 HD
ENDROOT
BRANCH   1  14
ATOM      5  C   UNL     1       7.297   5.506  18.923  0.00  0.00    +0.000 C 
ATOM      6  C   UNL     1       6.376   5.564  17.708  0.00  0.00    +0.000 C 
ATOM      7  C   UNL     1       6.268   6.968  17.115  0.00  0.00    +0.000 C 
ATOM      8  C   UNL     1       6.816   4.550  16.624  0.00  0.00    +0.000 C 
ATOM      9  O   UNL     1       7.878   4.525  16.027  0.00  0.00    +0.000 OA
ATOM     10  N   UNL     1       5.765   3.653  16.437  0.00  0.00    +0.000 N 
ATOM     11  C   UNL     1       4.699   3.937  17.276  0.00  0.00    +0.000 A 
ATOM     12  C   UNL     1       3.494   3.278  17.386  0.00  0.00    +0.000 A 
ATOM     13  C   UNL     1       2.568   3.764  18.327  0.00  0.00    +0.000 A 
ATOM     14  C   UNL     1       2.870   4.889  19.131  0.00  0.00    +0.000 A 
ATOM     15  C   UNL     1       4.105   5.531  18.986  0.00  0.00    +0.000 A 
ATOM     16  C   UNL     1       5.002   5.045  18.056  0.00  0.00    +0.000 A 
ATOM     17  H   UNL     1       5.811   2.895  15.773  0.00  0.00    +0.000 HD
ENDBRANCH   1  14
BRANCH   3  18
ATOM     18  C   UNL     1       1.115   7.435  21.342  0.00  0.00    +0.000 C 
BRANCH  18  19
ATOM     19  C   UNL     1       0.864   8.899  21.069  0.00  0.00    +0.000 A 
ATOM     20  N   UNL     1       0.306   9.643  22.052  0.00  0.00    +0.000 NA
ATOM     21  C   UNL     1       0.040  10.934  21.746  0.00  0.00    +0.000 A 
ATOM     22  C   UNL     1       0.297  11.530  20.523  0.00  0.00    +0.000 A 
ATOM     23  C   UNL     1       0.900  10.668  19.619  0.00  0.00    +0.000 A 
ATOM     24  N   UNL     1       1.185   9.369  19.853  0.00  0.00    +0.000 NA
BRANCH  22  25
ATOM     25  C   UNL     1      -0.061  12.923  20.195  0.00  0.00    +0.000 A 
ATOM     26  C   UNL     1       0.188  13.480  18.928  0.00  0.00    +0.000 A 
ATOM     27  C   UNL     1      -0.130  14.813  18.642  0.00  0.00    +0.000 A 
ATOM     28  C   UNL     1      -0.720  15.615  19.614  0.00  0.00    +0.000 A 
ATOM     29  C   UNL     1      -0.988  15.089  20.871  0.00  0.00    +0.000 A 
ATOM     30  C   UNL     1      -0.656  13.763  21.158  0.00  0.00    +0.000 A 
ENDBRANCH  22  25
ENDBRANCH  18  19
ENDBRANCH   3  18
TORSDOF 4
ENDMDL
MODEL 5
REMARK VINA RESULT:      -8.4      3.630      4.639
REMARK  Name = 
REMARK  6 active torsions:
REMARK  status: ('A' for Active; 'I' for Inactive)
REMARK    1  A    between atoms: C_1  and  C_2
REMARK    2  A    between atoms: C_2  and  C_3
REMARK    3  A    between atoms: C_10  and  C_11
REMARK    4  A    between atoms: N_13  and  C_14
REMARK    5  A    between atoms: C_14  and  C_15
REMARK    6  A    between atoms: C_18  and  C_19
REMARK                            x       y       z     vdW  Elec       q    Type
REMARK                         _______ _______ _______ _____ _____    ______ ____
ROOT
ATOM      1  C   UNL     1       2.071   8.385  18.507  0.00  0.00    +0.000 C 
ATOM      2  O   UNL     1       2.572   8.626  17.411  0.00  0.00    +0.000 OA
ATOM      3  N   UNL     1       1.303   9.307  19.161  0.00  0.00    +0.000 N 
ATOM      4  H   UNL     1       0.859   9.142  20.054  0.00  0.00    +0.000 HD
ENDROOT
BRANCH   1  14
ATOM      5  C   UNL     1       5.930   4.498  18.682  0.00  0.00    +0.000 C 
ATOM      6  C   UNL     1       4.503   3.959  18.642  0.00  0.00    +0.000 C 
ATOM      7  C   UNL     1       4.103   3.447  17.260  0.00  0.00    +0.000 C 
ATOM      8  C   UNL     1       4.292   2.858  19.711  0.00  0.00    +0.000 C 
ATOM      9  O   UNL     1       4.872   1.789  19.791  0.00  0.00    +0.000 OA
ATOM     10  N   UNL     1       3.298   3.302  20.582  0.00  0.00    +0.000 N 
ATOM     11  C   UNL     1       2.846   4.565  20.233  0.00  0.00    +0.000 A 
ATOM     12  C   UNL     1       1.881   5.332  20.851  0.00  0.00    +0.000 A 
ATOM     13  C   UNL     1       1.602   6.596  20.301  0.00  0.00    +0.000 A 
ATOM     14  C   UNL     1       2.292   7.060  19.156  0.00  0.00    +0.000 A 
ATOM     15  C   UNL     1       3.263   6.249  18.558  0.00  0.00    +0.000 A 
ATOM     16  C   UNL     1       3.524   5.009  19.106  0.00  0.00    +0.000 A 
ATOM     17  H   UNL     1       2.980   2.754  21.365  0.00  0.00    +0.000 HD
ENDBRANCH   1  14
BRANCH   3  18
ATOM     18  C   UNL     1       1.055  10.606  18.566  0.00  0.00    +0.000 C 
BRANCH  18  19
ATOM     19  C   UNL     1      -0.407  10.983  18.588  0.00  0.00    +0.000 A 
ATOM     20  N   UNL     1      -0.786  12.016  19.375  0.00  0.00    +0.000 NA
ATOM     21  C   UNL     1      -2.112  12.282  19.414  0.00  0.00    +0.000 A 
ATOM     22  C   UNL     1      -3.084  11.584  18.717  0.00  0.00    +0.000 A 
ATOM     23  C   UNL     1      -2.558  10.574  17.924  0.00  0.00    +0.000 A 
ATOM     24  N   UNL     1      -1.250  10.250  17.843  0.00  0.00    +0.000 NA
BRANCH  22  25
ATOM     25  C   UNL     1      -4.530  11.854  18.828  0.00  0.00    +0.000 A 
ATOM     26  C   UNL     1      -5.079  12.544  19.925  0.00  0.00    +0.000 A 
ATOM     27  C   UNL     1      -6.457  12.765  20.030  0.00  0.00    +0.000 A 
ATOM     28  C   UNL     1      -7.316  12.316  19.033  0.00  0.00    +0.000 A 
ATOM     29  C   UNL     1      -6.801  11.642  17.932  0.00  0.00    +0.000 A 
ATOM     30  C   UNL     1      -5.428  11.409  17.837  0.00  0.00    +0.000 A 
ENDBRANCH  22  25
ENDBRANCH  18  19
ENDBRANCH   3  18
TORSDOF 4
ENDMDL
MODEL 6
REMARK VINA RESULT:      -8.3      5.497      9.160
REMARK  Name = 
REMARK  6 active torsions:
REMARK  status: ('A' for Active; 'I' for Inactive)
REMARK    1  A    between atoms: C_1  and  C_2
REMARK    2  A    between atoms: C_2  and  C_3
REMARK    3  A    between atoms: C_10  and  C_11
REMARK    4  A    between atoms: N_13  and  C_14
REMARK    5  A    between atoms: C_14  and  C_15
REMARK    6  A    between atoms: C_18  and  C_19
REMARK                            x       y       z     vdW  Elec       q    Type
REMARK                         _______ _______ _______ _____ _____    ______ ____
ROOT
ATOM      1  C   UNL     1       8.311   8.478  18.045  0.00  0.00    +0.000 C 
ATOM      2  O   UNL     1       8.758   7.754  18.933  0.00  0.00    +0.000 OA
ATOM      3  N   UNL     1       7.691   7.959  16.943  0.00  0.00    +0.000 N 
ATOM      4  H   UNL     1       7.296   8.519  16.202  0.00  0.00    +0.000 HD
ENDROOT
BRANCH   1  14
ATOM      5  C   UNL     1      11.754  12.153  20.208  0.00  0.00    +0.000 C 
ATOM      6  C   UNL     1      10.279  12.519  20.351  0.00  0.00    +0.000 C 
ATOM      7  C   UNL     1       9.738  12.255  21.755  0.00  0.00    +0.000 C 
ATOM      8  C   UNL     1      10.028  13.991  19.941  0.00  0.00    +0.000 C 
ATOM      9  O   UNL     1      10.499  14.990  20.456  0.00  0.00    +0.000 OA
ATOM     10  N   UNL     1       9.144  13.981  18.862  0.00  0.00    +0.000 N 
ATOM     11  C   UNL     1       8.802  12.688  18.499  0.00  0.00    +0.000 A 
ATOM     12  C   UNL     1       7.963  12.275  17.485  0.00  0.00    +0.000 A 
ATOM     13  C   UNL     1       7.780  10.890  17.314  0.00  0.00    +0.000 A 
ATOM     14  C   UNL     1       8.437   9.960  18.154  0.00  0.00    +0.000 A 
ATOM     15  C   UNL     1       9.279  10.422  19.173  0.00  0.00    +0.000 A 
ATOM     16  C   UNL     1       9.446  11.783  19.331  0.00  0.00    +0.000 A 
ATOM     17  H   UNL     1       8.823  14.827  18.416  0.00  0.00    +0.000 HD
ENDBRANCH   1  14
BRANCH   3  18
ATOM     18  C   UNL     1       7.539   6.524  16.798  0.00  0.00    +0.000 C 
BRANCH  18  19
ATOM     19  C   UNL     1       6.282   6.005  17.455  0.00  0.00    +0.000 A 
ATOM     20  N   UNL     1       6.381   5.492  18.703  0.00  0.00    +0.000 NA
ATOM     21  C   UNL     1       5.245   4.982  19.230  0.00  0.00    +0.000 A 
ATOM     22  C   UNL     1       4.016   4.951  18.594  0.00  0.00    +0.000 A 
ATOM     23  C   UNL     1       4.046   5.539  17.337  0.00  0.00    +0.000 A 
ATOM     24  N   UNL     1       5.143   6.059  16.747  0.00  0.00    +0.000 NA
BRANCH  22  25
ATOM     25  C   UNL     1       2.807   4.331  19.167  0.00  0.00    +0.000 A 
ATOM     26  C   UNL     1       2.511   4.402  20.541  0.00  0.00    +0.000 A 
ATOM     27  C   UNL     1       1.375   3.781  21.075  0.00  0.00    +0.000 A 
ATOM     28  C   UNL     1       0.501   3.089  20.244  0.00  0.00    +0.000 A 
ATOM     29  C   UNL     1       0.762   3.011  18.881  0.00  0.00    +0.000 A 
ATOM     30  C   UNL     1       1.904   3.618  18.354  0.00  0.00    +0.000 A 
ENDBRANCH  22  25
ENDBRANCH  18  19
ENDBRANCH   3  18
TORSDOF 4
ENDMDL
MODEL 7
REMARK VINA RESULT:      -8.3      3.714      4.732
REMARK  Name = 
REMARK  6 active torsions:
REMARK  status: ('A' for Active; 'I' for Inactive)
REMARK    1  A    between atoms: C_1  and  C_2
REMARK    2  A    between atoms: C_2  and  C_3
REMARK    3  A    between atoms: C_10  and  C_11
REMARK    4  A    between atoms: N_13  and  C_14
REMARK    5  A    between atoms: C_14  and  C_15
REMARK    6  A    between atoms: C_18  and  C_19
REMARK                            x       y       z     vdW  Elec       q    Type
REMARK                         _______ _______ _______ _____ _____    ______ ____
ROOT
ATOM      1  C   UNL     1       1.898   8.448  18.470  0.00  0.00    +0.000 C 
ATOM      2  O   UNL     1       2.359   8.736  17.367  0.00  0.00    +0.000 OA
ATOM      3  N   UNL     1       1.120   9.326  19.171  0.00  0.00    +0.000 N 
ATOM      4  H   UNL     1       0.708   9.121  20.070  0.00  0.00    +0.000 HD
ENDROOT
BRANCH   1  14
ATOM      5  C   UNL     1       5.017   4.060  17.445  0.00  0.00    +0.000 C 
ATOM      6  C   UNL     1       3.626   3.726  17.979  0.00  0.00    +0.000 C 
ATOM      7  C   UNL     1       2.671   3.256  16.884  0.00  0.00    +0.000 C 
ATOM      8  C   UNL     1       3.702   2.681  19.119  0.00  0.00    +0.000 C 
ATOM      9  O   UNL     1       4.131   1.543  19.047  0.00  0.00    +0.000 OA
ATOM     10  N   UNL     1       3.177   3.273  20.267  0.00  0.00    +0.000 N 
ATOM     11  C   UNL     1       2.788   4.583  20.030  0.00  0.00    +0.000 A 
ATOM     12  C   UNL     1       2.234   5.486  20.912  0.00  0.00    +0.000 A 
ATOM     13  C   UNL     1       1.927   6.769  20.423  0.00  0.00    +0.000 A 
ATOM     14  C   UNL     1       2.182   7.115  19.075  0.00  0.00    +0.000 A 
ATOM     15  C   UNL     1       2.744   6.166  18.212  0.00  0.00    +0.000 A 
ATOM     16  C   UNL     1       3.037   4.911  18.704  0.00  0.00    +0.000 A 
ATOM     17  H   UNL     1       3.115   2.786  21.148  0.00  0.00    +0.000 HD
ENDBRANCH   1  14
BRANCH   3  18
ATOM     18  C   UNL     1       0.811  10.631  18.619  0.00  0.00    +0.000 C 
BRANCH  18  19
ATOM     19  C   UNL     1      -0.671  10.923  18.617  0.00  0.00    +0.000 A 
ATOM     20  N   UNL     1      -1.460  10.207  17.784  0.00  0.00    +0.000 NA
ATOM     21  C   UNL     1      -2.770  10.542  17.767  0.00  0.00    +0.000 A 
ATOM     22  C   UNL     1      -3.344  11.545  18.529  0.00  0.00    +0.000 A 
ATOM     23  C   UNL     1      -2.433  12.177  19.362  0.00  0.00    +0.000 A 
ATOM     24  N   UNL     1      -1.113  11.900  19.425  0.00  0.00    +0.000 NA
BRANCH  22  25
ATOM     25  C   UNL     1      -4.765  11.933  18.444  0.00  0.00    +0.000 A 
ATOM     26  C   UNL     1      -5.391  12.211  17.215  0.00  0.00    +0.000 A 
ATOM     27  C   UNL     1      -6.733  12.607  17.154  0.00  0.00    +0.000 A 
ATOM     28  C   UNL     1      -7.483  12.719  18.320  0.00  0.00    +0.000 A 
ATOM     29  C   UNL     1      -6.894  12.439  19.547  0.00  0.00    +0.000 A 
ATOM     30  C   UNL     1      -5.552  12.059  19.607  0.00  0.00    +0.000 A 
ENDBRANCH  22  25
ENDBRANCH  18  19
ENDBRANCH   3  18
TORSDOF 4
ENDMDL
MODEL 8
REMARK VINA RESULT:      -8.2      1.054      1.208
REMARK  Name = 
REMARK  6 active torsions:
REMARK  status: ('A' for Active; 'I' for Inactive)
REMARK    1  A    between atoms: C_1  and  C_2
REMARK    2  A    between atoms: C_2  and  C_3
REMARK    3  A    between atoms: C_10  and  C_11
REMARK    4  A    between atoms: N_13  and  C_14
REMARK    5  A    between atoms: C_14  and  C_15
REMARK    6  A    between atoms: C_18  and  C_19
REMARK                            x       y       z     vdW  Elec       q    Type
REMARK                         _______ _______ _______ _____ _____    ______ ____
ROOT
ATOM      1  C   UNL     1       2.004   5.322  19.952  0.00  0.00    +0.000 C 
ATOM      2  O   UNL     1       1.128   4.635  20.474  0.00  0.00    +0.000 OA
ATOM      3  N   UNL     1       2.141   6.650  20.243  0.00  0.00    +0.000 N 
ATOM      4  H   UNL     1       2.858   7.243  19.850  0.00  0.00    +0.000 HD
ENDROOT
BRANCH   1  14
ATOM      5  C   UNL     1       6.820   6.506  17.619  0.00  0.00    +0.000 C 
ATOM      6  C   UNL     1       5.816   5.846  16.678  0.00  0.00    +0.000 C 
ATOM      7  C   UNL     1       5.154   6.842  15.728  0.00  0.00    +0.000 C 
ATOM      8  C   UNL     1       6.474   4.692  15.882  0.00  0.00    +0.000 C 
ATOM      9  O   UNL     1       7.406   4.773  15.102  0.00  0.00    +0.000 OA
ATOM     10  N   UNL     1       5.798   3.517  16.210  0.00  0.00    +0.000 N 
ATOM     11  C   UNL     1       4.795   3.751  17.138  0.00  0.00    +0.000 A 
ATOM     12  C   UNL     1       3.922   2.847  17.705  0.00  0.00    +0.000 A 
ATOM     13  C   UNL     1       2.988   3.338  18.635  0.00  0.00    +0.000 A 
ATOM     14  C   UNL     1       2.951   4.711  18.974  0.00  0.00    +0.000 A 
ATOM     15  C   UNL     1       3.854   5.596  18.374  0.00  0.00    +0.000 A 
ATOM     16  C   UNL     1       4.763   5.101  17.461  0.00  0.00    +0.000 A 
ATOM     17  H   UNL     1       6.042   2.623  15.814  0.00  0.00    +0.000 HD
ENDBRANCH   1  14
BRANCH   3  18
ATOM     18  C   UNL     1       1.248   7.286  21.193  0.00  0.00    +0.000 C 
BRANCH  18  19
ATOM     19  C   UNL     1       1.000   8.740  20.870  0.00  0.00    +0.000 A 
ATOM     20  N   UNL     1       1.197   9.152  19.597  0.00  0.00    +0.000 NA
ATOM     21  C   UNL     1       1.024  10.473  19.363  0.00  0.00    +0.000 A 
ATOM     22  C   UNL     1       0.665  11.409  20.319  0.00  0.00    +0.000 A 
ATOM     23  C   UNL     1       0.462  10.850  21.572  0.00  0.00    +0.000 A 
ATOM     24  N   UNL     1       0.624   9.544  21.877  0.00  0.00    +0.000 NA
BRANCH  22  25
ATOM     25  C   UNL     1       0.545  12.855  20.050  0.00  0.00    +0.000 A 
ATOM     26  C   UNL     1       0.933  13.824  20.993  0.00  0.00    +0.000 A 
ATOM     27  C   UNL     1       0.784  15.192  20.735  0.00  0.00    +0.000 A 
ATOM     28  C   UNL     1       0.259  15.622  19.521  0.00  0.00    +0.000 A 
ATOM     29  C   UNL     1      -0.122  14.687  18.566  0.00  0.00    +0.000 A 
ATOM     30  C   UNL     1       0.013  13.323  18.832  0.00  0.00    +0.000 A 
ENDBRANCH  22  25
ENDBRANCH  18  19
ENDBRANCH   3  18
TORSDOF 4
ENDMDL
MODEL 9
REMARK VINA RESULT:      -8.2      0.999      1.526
REMARK  Name = 
REMARK  6 active torsions:
REMARK  status: ('A' for Active; 'I' for Inactive)
REMARK    1  A    between atoms: C_1  and  C_2
REMARK    2  A    between atoms: C_2  and  C_3
REMARK    3  A    between atoms: C_10  and  C_11
REMARK    4  A    between atoms: N_13  and  C_14
REMARK    5  A    between atoms: C_14  and  C_15
REMARK    6  A    between atoms: C_18  and  C_19
REMARK                            x       y       z     vdW  Elec       q    Type
REMARK                         _______ _______ _______ _____ _____    ______ ____
ROOT
ATOM      1  C   UNL     1       2.094   6.901  19.731  0.00  0.00    +0.000 C 
ATOM      2  O   UNL     1       1.569   6.474  20.757  0.00  0.00    +0.000 OA
ATOM      3  N   UNL     1       1.883   8.179  19.296  0.00  0.00    +0.000 N 
ATOM      4  H   UNL     1       2.309   8.572  18.469  0.00  0.00    +0.000 HD
ENDROOT
BRANCH   1  14
ATOM      5  C   UNL     1       7.414   5.613  19.444  0.00  0.00    +0.000 C 
ATOM      6  C   UNL     1       6.728   5.737  18.087  0.00  0.00    +0.000 C 
ATOM      7  C   UNL     1       7.047   7.053  17.381  0.00  0.00    +0.000 C 
ATOM      8  C   UNL     1       7.075   4.534  17.175  0.00  0.00    +0.000 C 
ATOM      9  O   UNL     1       8.179   4.208  16.775  0.00  0.00    +0.000 OA
ATOM     10  N   UNL     1       5.882   3.877  16.875  0.00  0.00    +0.000 N 
ATOM     11  C   UNL     1       4.799   4.483  17.493  0.00  0.00    +0.000 A 
ATOM     12  C   UNL     1       3.470   4.123  17.440  0.00  0.00    +0.000 A 
ATOM     13  C   UNL     1       2.554   4.905  18.167  0.00  0.00    +0.000 A 
ATOM     14  C   UNL     1       2.988   6.018  18.924  0.00  0.00    +0.000 A 
ATOM     15  C   UNL     1       4.347   6.351  18.949  0.00  0.00    +0.000 A 
ATOM     16  C   UNL     1       5.234   5.577  18.229  0.00  0.00    +0.000 A 
ATOM     17  H   UNL     1       5.848   3.058  16.288  0.00  0.00    +0.000 HD
ENDBRANCH   1  14
BRANCH   3  18
ATOM     18  C   UNL     1       1.028   9.075  20.051  0.00  0.00    +0.000 C 
BRANCH  18  19
ATOM     19  C   UNL     1       1.280  10.528  19.724  0.00  0.00    +0.000 A 
ATOM     20  N   UNL     1       0.845  11.462  20.601  0.00  0.00    +0.000 NA
ATOM     21  C   UNL     1       1.035  12.752  20.241  0.00  0.00    +0.000 A 
ATOM     22  C   UNL     1       1.632  13.171  19.064  0.00  0.00    +0.000 A 
ATOM     23  C   UNL     1       2.062  12.115  18.274  0.00  0.00    +0.000 A 
ATOM     24  N   UNL     1       1.898  10.807  18.566  0.00  0.00    +0.000 NA
BRANCH  22  25
ATOM     25  C   UNL     1       1.769  14.585  18.668  0.00  0.00    +0.000 A 
ATOM     26  C   UNL     1       2.892  15.058  17.967  0.00  0.00    +0.000 A 
ATOM     27  C   UNL     1       3.022  16.410  17.625  0.00  0.00    +0.000 A 
ATOM     28  C   UNL     1       2.022  17.316  17.964  0.00  0.00    +0.000 A 
ATOM     29  C   UNL     1       0.896  16.875  18.647  0.00  0.00    +0.000 A 
ATOM     30  C   UNL     1       0.776  15.529  19.000  0.00  0.00    +0.000 A 
ENDBRANCH  22  25
ENDBRANCH  18  19
ENDBRANCH   3  18
TORSDOF 4
ENDMDL
