MODEL 1
REMARK VINA RESULT:      -8.5      0.000      0.000
REMARK  Name = 
REMARK  8 active torsions:
REMARK  status: ('A' for Active; 'I' for Inactive)
REMARK    1  A    between atoms: C_1  and  C_2
REMARK    2  A    between atoms: C_2  and  C_3
REMARK    3  A    between atoms: N_5  and  C_6
REMARK    4  A    between atoms: C_6  and  C_7
REMARK    5  A    between atoms: N_9  and  C_10
REMARK    6  A    between atoms: C_10  and  C_11
REMARK    7  A    between atoms: C_15  and  C_16
REMARK    8  A    between atoms: N_18  and  C_19
REMARK                            x       y       z     vdW  Elec       q    Type
REMARK                         _______ _______ _______ _____ _____    ______ ____
ROOT
ATOM      1  C   UNL     1       2.042   6.626  20.002  0.00  0.00    +0.000 C 
ATOM      2  O   UNL     1       1.822   5.664  20.737  0.00  0.00    +0.000 OA
ATOM      3  N   UNL     1       1.825   7.933  20.392  0.00  0.00    +0.000 N 
ATOM      4  H   UNL     1       1.923   8.675  19.714  0.00  0.00    +0.000 HD
ENDROOT
BRANCH   1   5
ATOM      5  C   UNL     1       2.583   6.456  18.575  0.00  0.00    +0.000 C 
BRANCH   5   8
ATOM      6  C   UNL     1       3.334   3.044  18.689  0.00  0.00    +0.000 C 
ATOM      7  C   UNL     1       3.614   4.342  19.458  0.00  0.00    +0.000 C 
ATOM      8  N   UNL     1       3.686   5.489  18.543  0.00  0.00    +0.000 N 
ATOM      9  C   UNL     1       4.371   5.215  17.356  0.00  0.00    +0.000 A 
ATOM     10  C   UNL     1       4.753   6.236  16.475  0.00  0.00    +0.000 A 
ATOM     11  C   UNL     1       5.538   5.972  15.348  0.00  0.00    +0.000 A 
ATOM     12  C   UNL     1       5.968   4.676  15.080  0.00  0.00    +0.000 A 
ATOM     13  C   UNL     1       5.576   3.636  15.917  0.00  0.00    +0.000 A 
ATOM     14  C   UNL     1       4.767   3.899  17.026  0.00  0.00    +0.000 A 
ATOM     15  O   UNL     1       4.383   2.785  17.741  0.00  0.00    +0.000 OA
BRANCH   6  17
ATOM     16  C   UNL     1       0.832   2.600  18.967  0.00  0.00    +0.000 C 
ATOM     17  C   UNL     1       1.945   3.024  18.020  0.00  0.00    +0.000 C 
ENDBRANCH   6  17
ENDBRANCH   5   8
ENDBRANCH   1   5
BRANCH   3  18
ATOM     18  C   UNL     1       1.213   8.246  21.659  0.00  0.00    +0.000 C 
BRANCH  18  19
ATOM     19  C   UNL     1       0.302   9.444  21.554  0.00  0.00    +0.000 A 
ATOM     20  C   UNL     1      -0.107  10.142  22.698  0.00  0.00    +0.000 A 
ATOM     21  C   UNL     1      -0.894  11.291  22.585  0.00  0.00    +0.000 A 
ATOM     22  C   UNL     1      -1.286  11.746  21.326  0.00  0.00    +0.000 A 
ATOM     23  C   UNL     1      -0.914  11.042  20.174  0.00  0.00    +0.000 A 
ATOM     24  C   UNL     1      -0.125   9.890  20.290  0.00  0.00    +0.000 A 
BRANCH  23  25
ATOM     25  C   UNL     1      -1.309  11.596  18.852  0.00  0.00    +0.000 C 
ATOM     26  O   UNL     1      -0.951  12.729  18.540  0.00  0.00    +0.000 OA
ATOM     27  N   UNL     1      -2.096  10.788  18.052  0.00  0.00    +0.000 N 
ATOM     28  H   UNL     1      -2.481   9.932  18.433  0.00  0.00    +0.000 HD
BRANCH  27  29
ATOM     29  C   UNL     1      -2.524  11.211  16.755  0.00  0.00    +0.000 C 
ATOM     30  C   UNL     1      -3.905  10.907  16.244  0.00  0.00    +0.000 C 
ATOM     31  C   UNL     1      -2.718  10.199  15.660  0.00  0.00    +0.000 C 
ENDBRANCH  27  29
ENDBRANCH  23  25
ENDBRANCH  18  19
ENDBRANCH   3  18
TORSDOF 7
ENDMDL
MODEL 2
REMARK VINA RESULT:      -8.4      2.439      4.603
REMARK  Name = 
REMARK  8 active torsions:
REMARK  status: ('A' for Active; 'I' for Inactive)
REMARK    1  A    between atoms: C_1  and  C_2
REMARK    2  A    between atoms: C_2  and  C_3
REMARK    3  A    between atoms: N_5  and  C_6
REMARK    4  A    between atoms: C_6  and  C_7
REMARK    5  A    between atoms: N_9  and  C_10
REMARK    6  A    between atoms: C_10  and  C_11
REMARK    7  A    between atoms: C_15  and  C_16
REMARK    8  A    between atoms: N_18  and  C_19
REMARK                            x       y       z     vdW  Elec       q    Type
REMARK                         _______ _______ _______ _____ _____    ______ ____
ROOT
ATOM      1  C   UNL     1       2.454   8.054  18.428  0.00  0.00    +0.000 C 
ATOM      2  O   UNL     1       2.403   8.534  17.296  0.00  0.00    +0.000 OA
ATOM      3  N   UNL     1       1.654   8.492  19.465  0.00  0.00    +0.000 N 
ATOM      4  H   UNL     1       1.812   8.134  20.396  0.00  0.00    +0.000 HD
ENDROOT
BRANCH   1   5
ATOM      5  C   UNL     1       3.416   6.913  18.787  0.00  0.00    +0.000 C 
BRANCH   5   8
ATOM      6  C   UNL     1       5.370   4.635  16.996  0.00  0.00    +0.000 C 
ATOM      7  C   UNL     1       4.413   5.810  16.762  0.00  0.00    +0.000 C 
ATOM      8  N   UNL     1       3.360   5.842  17.786  0.00  0.00    +0.000 N 
ATOM      9  C   UNL     1       2.855   4.580  18.109  0.00  0.00    +0.000 A 
ATOM     10  C   UNL     1       1.692   4.427  18.875  0.00  0.00    +0.000 A 
ATOM     11  C   UNL     1       1.125   3.167  19.097  0.00  0.00    +0.000 A 
ATOM     12  C   UNL     1       1.707   2.029  18.549  0.00  0.00    +0.000 A 
ATOM     13  C   UNL     1       2.881   2.145  17.813  0.00  0.00    +0.000 A 
ATOM     14  C   UNL     1       3.462   3.401  17.616  0.00  0.00    +0.000 A 
ATOM     15  O   UNL     1       4.659   3.387  16.934  0.00  0.00    +0.000 OA
BRANCH   6  17
ATOM     16  C   UNL     1       7.684   4.806  18.070  0.00  0.00    +0.000 C 
ATOM     17  C   UNL     1       6.180   4.764  18.302  0.00  0.00    +0.000 C 
ENDBRANCH   6  17
ENDBRANCH   5   8
ENDBRANCH   1   5
BRANCH   3  18
ATOM     18  C   UNL     1       0.782   9.631  19.312  0.00  0.00    +0.000 C 
BRANCH  18  19
ATOM     19  C   UNL     1       0.134  10.012  20.619  0.00  0.00    +0.000 A 
ATOM     20  C   UNL     1       0.039   9.092  21.673  0.00  0.00    +0.000 A 
ATOM     21  C   UNL     1      -0.501   9.475  22.902  0.00  0.00    +0.000 A 
ATOM     22  C   UNL     1      -0.959  10.780  23.087  0.00  0.00    +0.000 A 
ATOM     23  C   UNL     1      -0.903  11.702  22.035  0.00  0.00    +0.000 A 
ATOM     24  C   UNL     1      -0.362  11.315  20.801  0.00  0.00    +0.000 A 
BRANCH  23  25
ATOM     25  C   UNL     1      -1.353  13.095  22.295  0.00  0.00    +0.000 C 
ATOM     26  O   UNL     1      -1.584  13.843  21.350  0.00  0.00    +0.000 OA
ATOM     27  N   UNL     1      -1.459  13.473  23.621  0.00  0.00    +0.000 N 
ATOM     28  H   UNL     1      -1.107  12.859  24.345  0.00  0.00    +0.000 HD
BRANCH  27  29
ATOM     29  C   UNL     1      -1.894  14.784  23.992  0.00  0.00    +0.000 C 
ATOM     30  C   UNL     1      -1.149  15.603  25.007  0.00  0.00    +0.000 C 
ATOM     31  C   UNL     1      -2.488  15.022  25.352  0.00  0.00    +0.000 C 
ENDBRANCH  27  29
ENDBRANCH  23  25
ENDBRANCH  18  19
ENDBRANCH   3  18
TORSDOF 7
ENDMDL
MODEL 3
REMARK VINA RESULT:      -8.4      1.824      9.031
REMARK  Name = 
REMARK  8 active torsions:
REMARK  status: ('A' for Active; 'I' for Inactive)
REMARK    1  A    between atoms: C_1  and  C_2
REMARK    2  A    between atoms: C_2  and  C_3
REMARK    3  A    between atoms: N_5  and  C_6
REMARK    4  A    between atoms: C_6  and  C_7
REMARK    5  A    between atoms: N_9  and  C_10
REMARK    6  A    between atoms: C_10  and  C_11
REMARK    7  A    between atoms: C_15  and  C_16
REMARK    8  A    between atoms: N_18  and  C_19
REMARK                            x       y       z     vdW  Elec       q    Type
REMARK                         _______ _______ _______ _____ _____    ______ ____
ROOT
ATOM      1  C   UNL     1       2.035   9.734  17.837  0.00  0.00    +0.000 C 
ATOM      2  O   UNL     1       2.641  10.750  17.498  0.00  0.00    +0.000 OA
ATOM      3  N   UNL     1       2.615   8.481  17.842  0.00  0.00    +0.000 N 
ATOM      4  H   UNL     1       2.041   7.671  18.029  0.00  0.00    +0.000 HD
ENDROOT
BRANCH   1   5
ATOM      5  C   UNL     1       0.569   9.772  18.292  0.00  0.00    +0.000 C 
BRANCH   5   8
ATOM      6  C   UNL     1      -1.626  12.351  19.156  0.00  0.00    +0.000 C 
ATOM      7  C   UNL     1      -0.168  12.133  18.734  0.00  0.00    +0.000 C 
ATOM      8  N   UNL     1       0.345  10.857  19.253  0.00  0.00    +0.000 N 
ATOM      9  C   UNL     1      -0.053  10.588  20.565  0.00  0.00    +0.000 A 
ATOM     10  C   UNL     1       0.525   9.552  21.311  0.00  0.00    +0.000 A 
ATOM     11  C   UNL     1       0.209   9.360  22.660  0.00  0.00    +0.000 A 
ATOM     12  C   UNL     1      -0.691  10.207  23.298  0.00  0.00    +0.000 A 
ATOM     13  C   UNL     1      -1.307  11.223  22.575  0.00  0.00    +0.000 A 
ATOM     14  C   UNL     1      -1.012  11.395  21.220  0.00  0.00    +0.000 A 
ATOM     15  O   UNL     1      -1.734  12.385  20.590  0.00  0.00    +0.000 OA
BRANCH   6  17
ATOM     16  C   UNL     1      -2.556  11.309  17.015  0.00  0.00    +0.000 C 
ATOM     17  C   UNL     1      -2.596  11.325  18.536  0.00  0.00    +0.000 C 
ENDBRANCH   6  17
ENDBRANCH   5   8
ENDBRANCH   1   5
BRANCH   3  18
ATOM     18  C   UNL     1       3.948   8.268  17.333  0.00  0.00    +0.000 C 
BRANCH  18  19
ATOM     19  C   UNL     1       4.191   6.817  17.004  0.00  0.00    +0.000 A 
ATOM     20  C   UNL     1       5.100   6.446  16.004  0.00  0.00    +0.000 A 
ATOM     21  C   UNL     1       5.369   5.098  15.754  0.00  0.00    +0.000 A 
ATOM     22  C   UNL     1       4.725   4.109  16.497  0.00  0.00    +0.000 A 
ATOM     23  C   UNL     1       3.789   4.461  17.477  0.00  0.00    +0.000 A 
ATOM     24  C   UNL     1       3.520   5.813  17.726  0.00  0.00    +0.000 A 
BRANCH  23  25
ATOM     25  C   UNL     1       3.169   3.374  18.281  0.00  0.00    +0.000 C 
ATOM     26  O   UNL     1       2.722   2.381  17.713  0.00  0.00    +0.000 OA
ATOM     27  N   UNL     1       3.113   3.570  19.649  0.00  0.00    +0.000 N 
ATOM     28  H   UNL     1       3.359   4.474  20.034  0.00  0.00    +0.000 HD
BRANCH  27  29
ATOM     29  C   UNL     1       2.551   2.587  20.522  0.00  0.00    +0.000 C 
ATOM     30  C   UNL     1       1.099   2.615  20.908  0.00  0.00    +0.000 C 
ATOM     31  C   UNL     1       2.149   2.966  21.920  0.00  0.00    +0.000 C 
ENDBRANCH  27  29
ENDBRANCH  23  25
ENDBRANCH  18  19
ENDBRANCH   3  18
TORSDOF 7
ENDMDL
MODEL 4
REMARK VINA RESULT:      -8.3      2.492      4.093
REMARK  Name = 
REMARK  8 active torsions:
REMARK  status: ('A' for Active; 'I' for Inactive)
REMARK    1  A    between atoms: C_1  and  C_2
REMARK    2  A    between atoms: C_2  and  C_3
REMARK    3  A    between atoms: N_5  and  C_6
REMARK    4  A    between atoms: C_6  and  C_7
REMARK    5  A    between atoms: N_9  and  C_10
REMARK    6  A    between atoms: C_10  and  C_11
REMARK    7  A    between atoms: C_15  and  C_16
REMARK    8  A    between atoms: N_18  and  C_19
REMARK                            x       y       z     vdW  Elec       q    Type
REMARK                         _______ _______ _______ _____ _____    ______ ____
ROOT
ATOM      1  C   UNL     1       2.230   8.230  18.533  0.00  0.00    +0.000 C 
ATOM      2  O   UNL     1       2.059   8.599  17.371  0.00  0.00    +0.000 OA
ATOM      3  N   UNL     1       1.517   8.747  19.596  0.00  0.00    +0.000 N 
ATOM      4  H   UNL     1       1.772   8.483  20.537  0.00  0.00    +0.000 HD
ENDROOT
BRANCH   1   5
ATOM      5  C   UNL     1       3.259   7.153  18.903  0.00  0.00    +0.000 C 
BRANCH   5   8
ATOM      6  C   UNL     1       5.573   5.169  17.192  0.00  0.00    +0.000 C 
ATOM      7  C   UNL     1       4.560   6.291  16.934  0.00  0.00    +0.000 C 
ATOM      8  N   UNL     1       3.399   6.167  17.825  0.00  0.00    +0.000 N 
ATOM      9  C   UNL     1       2.959   4.851  17.990  0.00  0.00    +0.000 A 
ATOM     10  C   UNL     1       1.732   4.556  18.599  0.00  0.00    +0.000 A 
ATOM     11  C   UNL     1       1.242   3.247  18.657  0.00  0.00    +0.000 A 
ATOM     12  C   UNL     1       1.969   2.200  18.099  0.00  0.00    +0.000 A 
ATOM     13  C   UNL     1       3.207   2.457  17.519  0.00  0.00    +0.000 A 
ATOM     14  C   UNL     1       3.707   3.761  17.487  0.00  0.00    +0.000 A 
ATOM     15  O   UNL     1       4.971   3.885  16.953  0.00  0.00    +0.000 OA
BRANCH   6  17
ATOM     16  C   UNL     1       7.625   5.822  18.570  0.00  0.00    +0.000 C 
ATOM     17  C   UNL     1       6.217   5.244  18.591  0.00  0.00    +0.000 C 
ENDBRANCH   6  17
ENDBRANCH   5   8
ENDBRANCH   1   5
BRANCH   3  18
ATOM     18  C   UNL     1       0.598   9.844  19.422  0.00  0.00    +0.000 C 
BRANCH  18  19
ATOM     19  C   UNL     1      -0.093  10.199  20.715  0.00  0.00    +0.000 A 
ATOM     20  C   UNL     1       0.271   9.584  21.921  0.00  0.00    +0.000 A 
ATOM     21  C   UNL     1      -0.327   9.969  23.122  0.00  0.00    +0.000 A 
ATOM     22  C   UNL     1      -1.300  10.967  23.129  0.00  0.00    +0.000 A 
ATOM     23  C   UNL     1      -1.701  11.569  21.930  0.00  0.00    +0.000 A 
ATOM     24  C   UNL     1      -1.101  11.180  20.724  0.00  0.00    +0.000 A 
BRANCH  23  25
ATOM     25  C   UNL     1      -2.703  12.665  21.993  0.00  0.00    +0.000 C 
ATOM     26  O   UNL     1      -2.444  13.751  21.482  0.00  0.00    +0.000 OA
ATOM     27  N   UNL     1      -3.881  12.390  22.663  0.00  0.00    +0.000 N 
ATOM     28  H   UNL     1      -3.965  11.530  23.191  0.00  0.00    +0.000 HD
BRANCH  27  29
ATOM     29  C   UNL     1      -4.922  13.364  22.776  0.00  0.00    +0.000 C 
ATOM     30  C   UNL     1      -6.020  13.229  23.793  0.00  0.00    +0.000 C 
ATOM     31  C   UNL     1      -6.319  13.025  22.338  0.00  0.00    +0.000 C 
ENDBRANCH  27  29
ENDBRANCH  23  25
ENDBRANCH  18  19
ENDBRANCH   3  18
TORSDOF 7
ENDMDL
MODEL 5
REMARK VINA RESULT:      -8.3      2.083      9.403
REMARK  Name = 
REMARK  8 active torsions:
REMARK  status: ('A' for Active; 'I' for Inactive)
REMARK    1  A    between atoms: C_1  and  C_2
REMARK    2  A    between atoms: C_2  and  C_3
REMARK    3  A    between atoms: N_5  and  C_6
REMARK    4  A    between atoms: C_6  and  C_7
REMARK    5  A    between atoms: N_9  and  C_10
REMARK    6  A    between atoms: C_10  and  C_11
REMARK    7  A    between atoms: C_15  and  C_16
REMARK    8  A    between atoms: N_18  and  C_19
REMARK                            x       y       z     vdW  Elec       q    Type
REMARK                         _______ _______ _______ _____ _____    ______ ____
ROOT
ATOM      1  C   UNL     1       1.628   9.864  17.934  0.00  0.00    +0.000 C 
ATOM      2  O   UNL     1       2.362  10.817  17.674  0.00  0.00    +0.000 OA
ATOM      3  N   UNL     1       2.080   8.561  17.983  0.00  0.00    +0.000 N 
ATOM      4  H   UNL     1       1.414   7.810  18.098  0.00  0.00    +0.000 HD
ENDROOT
BRANCH   1   5
ATOM      5  C   UNL     1       0.133  10.044  18.233  0.00  0.00    +0.000 C 
BRANCH   5   8
ATOM      6  C   UNL     1      -2.132  12.520  19.214  0.00  0.00    +0.000 C 
ATOM      7  C   UNL     1      -0.695  12.370  18.699  0.00  0.00    +0.000 C 
ATOM      8  N   UNL     1      -0.085  11.130  19.196  0.00  0.00    +0.000 N 
ATOM      9  C   UNL     1      -0.381  10.858  20.534  0.00  0.00    +0.000 A 
ATOM     10  C   UNL     1       0.297   9.863  21.250  0.00  0.00    +0.000 A 
ATOM     11  C   UNL     1       0.080   9.672  22.619  0.00  0.00    +0.000 A 
ATOM     12  C   UNL     1      -0.819  10.481  23.307  0.00  0.00    +0.000 A 
ATOM     13  C   UNL     1      -1.533  11.455  22.616  0.00  0.00    +0.000 A 
ATOM     14  C   UNL     1      -1.336  11.624  21.243  0.00  0.00    +0.000 A 
ATOM     15  O   UNL     1      -2.148  12.567  20.652  0.00  0.00    +0.000 OA
BRANCH   6  17
ATOM     16  C   UNL     1      -3.088  11.353  17.151  0.00  0.00    +0.000 C 
ATOM     17  C   UNL     1      -3.086  11.438  18.670  0.00  0.00    +0.000 C 
ENDBRANCH   6  17
ENDBRANCH   5   8
ENDBRANCH   1   5
BRANCH   3  18
ATOM     18  C   UNL     1       3.432   8.221  17.614  0.00  0.00    +0.000 C 
BRANCH  18  19
ATOM     19  C   UNL     1       3.619   6.728  17.507  0.00  0.00    +0.000 A 
ATOM     20  C   UNL     1       2.747   5.843  18.157  0.00  0.00    +0.000 A 
ATOM     21  C   UNL     1       2.887   4.463  17.996  0.00  0.00    +0.000 A 
ATOM     22  C   UNL     1       3.905   3.955  17.190  0.00  0.00    +0.000 A 
ATOM     23  C   UNL     1       4.806   4.823  16.561  0.00  0.00    +0.000 A 
ATOM     24  C   UNL     1       4.664   6.207  16.725  0.00  0.00    +0.000 A 
BRANCH  23  25
ATOM     25  C   UNL     1       5.841   4.237  15.668  0.00  0.00    +0.000 C 
ATOM     26  O   UNL     1       6.907   3.858  16.145  0.00  0.00    +0.000 OA
ATOM     27  N   UNL     1       5.536   4.180  14.320  0.00  0.00    +0.000 N 
ATOM     28  H   UNL     1       4.707   4.649  13.976  0.00  0.00    +0.000 HD
BRANCH  27  29
ATOM     29  C   UNL     1       6.450   3.625  13.371  0.00  0.00    +0.000 C 
ATOM     30  C   UNL     1       6.836   4.368  12.123  0.00  0.00    +0.000 C 
ATOM     31  C   UNL     1       5.951   3.161  12.030  0.00  0.00    +0.000 C 
ENDBRANCH  27  29
ENDBRANCH  23  25
ENDBRANCH  18  19
ENDBRANCH   3  18
TORSDOF 7
ENDMDL
MODEL 6
REMARK VINA RESULT:      -8.2      1.955      3.134
REMARK  Name = 
REMARK  8 active torsions:
REMARK  status: ('A' for Active; 'I' for Inactive)
REMARK    1  A    between atoms: C_1  and  C_2
REMARK    2  A    between atoms: C_2  and  C_3
REMARK    3  A    between atoms: N_5  and  C_6
REMARK    4  A    between atoms: C_6  and  C_7
REMARK    5  A    between atoms: N_9  and  C_10
REMARK    6  A    between atoms: C_10  and  C_11
REMARK    7  A    between atoms: C_15  and  C_16
REMARK    8  A    between atoms: N_18  and  C_19
REMARK                            x       y       z     vdW  Elec       q    Type
REMARK                         _______ _______ _______ _____ _____    ______ ____
ROOT
ATOM      1  C   UNL     1       2.603   3.684  20.935  0.00  0.00    +0.000 C 
ATOM      2  O   UNL     1       1.492   3.193  21.132  0.00  0.00    +0.000 OA
ATOM      3  N   UNL     1       2.813   5.044  20.827  0.00  0.00    +0.000 N 
ATOM      4  H   UNL     1       3.727   5.384  20.562  0.00  0.00    +0.000 HD
ENDROOT
BRANCH   1   5
ATOM      5  C   UNL     1       3.863   2.819  20.793  0.00  0.00    +0.000 C 
BRANCH   5   8
ATOM      6  C   UNL     1       2.553   2.369  17.583  0.00  0.00    +0.000 C 
ATOM      7  C   UNL     1       3.471   1.669  18.593  0.00  0.00    +0.000 C 
ATOM      8  N   UNL     1       4.229   2.650  19.382  0.00  0.00    +0.000 N 
ATOM      9  C   UNL     1       4.707   3.725  18.627  0.00  0.00    +0.000 A 
ATOM     10  C   UNL     1       5.647   4.626  19.144  0.00  0.00    +0.000 A 
ATOM     11  C   UNL     1       6.210   5.629  18.349  0.00  0.00    +0.000 A 
ATOM     12  C   UNL     1       5.849   5.750  17.011  0.00  0.00    +0.000 A 
ATOM     13  C   UNL     1       4.893   4.892  16.478  0.00  0.00    +0.000 A 
ATOM     14  C   UNL     1       4.311   3.908  17.282  0.00  0.00    +0.000 A 
ATOM     15  O   UNL     1       3.326   3.165  16.669  0.00  0.00    +0.000 OA
BRANCH   6  17
ATOM     16  C   UNL     1       1.012   4.403  17.428  0.00  0.00    +0.000 C 
ATOM     17  C   UNL     1       1.435   3.195  18.251  0.00  0.00    +0.000 C 
ENDBRANCH   6  17
ENDBRANCH   5   8
ENDBRANCH   1   5
BRANCH   3  18
ATOM     18  C   UNL     1       1.713   5.977  20.825  0.00  0.00    +0.000 C 
BRANCH  18  19
ATOM     19  C   UNL     1       1.929   7.086  19.827  0.00  0.00    +0.000 A 
ATOM     20  C   UNL     1       2.824   6.933  18.759  0.00  0.00    +0.000 A 
ATOM     21  C   UNL     1       2.966   7.940  17.802  0.00  0.00    +0.000 A 
ATOM     22  C   UNL     1       2.220   9.113  17.908  0.00  0.00    +0.000 A 
ATOM     23  C   UNL     1       1.346   9.298  18.986  0.00  0.00    +0.000 A 
ATOM     24  C   UNL     1       1.206   8.287  19.946  0.00  0.00    +0.000 A 
BRANCH  23  25
ATOM     25  C   UNL     1       0.532  10.541  19.027  0.00  0.00    +0.000 C 
ATOM     26  O   UNL     1       0.829  11.433  19.817  0.00  0.00    +0.000 OA
ATOM     27  N   UNL     1      -0.551  10.601  18.168  0.00  0.00    +0.000 N 
ATOM     28  H   UNL     1      -0.828   9.772  17.657  0.00  0.00    +0.000 HD
BRANCH  27  29
ATOM     29  C   UNL     1      -1.397  11.752  18.112  0.00  0.00    +0.000 C 
ATOM     30  C   UNL     1      -2.486  11.979  19.121  0.00  0.00    +0.000 C 
ATOM     31  C   UNL     1      -2.839  11.607  17.712  0.00  0.00    +0.000 C 
ENDBRANCH  27  29
ENDBRANCH  23  25
ENDBRANCH  18  19
ENDBRANCH   3  18
TORSDOF 7
ENDMDL
MODEL 7
REMARK VINA RESULT:      -8.2      2.542      4.097
REMARK  Name = 
REMARK  8 active torsions:
REMARK  status: ('A' for Active; 'I' for Inactive)
REMARK    1  A    between atoms: C_1  and  C_2
REMARK    2  A    between atoms: C_2  and  C_3
REMARK    3  A    between atoms: N_5  and  C_6
REMARK    4  A    between atoms: C_6  and  C_7
REMARK    5  A    between atoms: N_9  and  C_10
REMARK    6  A    between atoms: C_10  and  C_11
REMARK    7  A    between atoms: C_15  and  C_16
REMARK    8  A    between atoms: N_18  and  C_19
REMARK                            x       y       z     vdW  Elec       q    Type
REMARK                         _______ _______ _______ _____ _____    ______ ____
ROOT
ATOM      1  C   UNL     1       2.163   8.361  18.439  0.00  0.00    +0.000 C 
ATOM      2  O   UNL     1       2.543   8.699  17.318  0.00  0.00    +0.000 OA
ATOM      3  N   UNL     1       1.352   9.154  19.226  0.00  0.00    +0.000 N 
ATOM      4  H   UNL     1       1.157   8.873  20.176  0.00  0.00    +0.000 HD
ENDROOT
BRANCH   1   5
ATOM      5  C   UNL     1       2.558   7.016  19.063  0.00  0.00    +0.000 C 
BRANCH   5   8
ATOM      6  C   UNL     1       5.308   5.344  17.698  0.00  0.00    +0.000 C 
ATOM      7  C   UNL     1       4.201   6.326  17.292  0.00  0.00    +0.000 C 
ATOM      8  N   UNL     1       2.961   6.054  18.031  0.00  0.00    +0.000 N 
ATOM      9  C   UNL     1       2.676   4.692  18.163  0.00  0.00    +0.000 A 
ATOM     10  C   UNL     1       1.428   4.243  18.616  0.00  0.00    +0.000 A 
ATOM     11  C   UNL     1       1.107   2.882  18.635  0.00  0.00    +0.000 A 
ATOM     12  C   UNL     1       2.027   1.936  18.194  0.00  0.00    +0.000 A 
ATOM     13  C   UNL     1       3.286   2.350  17.771  0.00  0.00    +0.000 A 
ATOM     14  C   UNL     1       3.615   3.708  17.779  0.00  0.00    +0.000 A 
ATOM     15  O   UNL     1       4.911   3.993  17.408  0.00  0.00    +0.000 OA
BRANCH   6  17
ATOM     16  C   UNL     1       7.259   5.648  19.321  0.00  0.00    +0.000 C 
ATOM     17  C   UNL     1       5.752   5.504  19.166  0.00  0.00    +0.000 C 
ENDBRANCH   6  17
ENDBRANCH   5   8
ENDBRANCH   1   5
BRANCH   3  18
ATOM     18  C   UNL     1       0.991  10.491  18.824  0.00  0.00    +0.000 C 
BRANCH  18  19
ATOM     19  C   UNL     1      -0.474  10.591  18.483  0.00  0.00    +0.000 A 
ATOM     20  C   UNL     1      -1.040   9.784  17.486  0.00  0.00    +0.000 A 
ATOM     21  C   UNL     1      -2.411   9.836  17.225  0.00  0.00    +0.000 A 
ATOM     22  C   UNL     1      -3.228  10.700  17.953  0.00  0.00    +0.000 A 
ATOM     23  C   UNL     1      -2.675  11.538  18.929  0.00  0.00    +0.000 A 
ATOM     24  C   UNL     1      -1.299  11.486  19.189  0.00  0.00    +0.000 A 
BRANCH  23  25
ATOM     25  C   UNL     1      -3.593  12.403  19.717  0.00  0.00    +0.000 C 
ATOM     26  O   UNL     1      -3.126  13.228  20.497  0.00  0.00    +0.000 OA
ATOM     27  N   UNL     1      -4.948  12.197  19.532  0.00  0.00    +0.000 N 
ATOM     28  H   UNL     1      -5.263  11.399  18.992  0.00  0.00    +0.000 HD
BRANCH  27  29
ATOM     29  C   UNL     1      -5.924  12.978  20.226  0.00  0.00    +0.000 C 
ATOM     30  C   UNL     1      -6.398  12.604  21.602  0.00  0.00    +0.000 C 
ATOM     31  C   UNL     1      -7.314  12.440  20.426  0.00  0.00    +0.000 C 
ENDBRANCH  27  29
ENDBRANCH  23  25
ENDBRANCH  18  19
ENDBRANCH   3  18
TORSDOF 7
ENDMDL
MODEL 8
REMARK VINA RESULT:      -8.2      1.675      2.150
REMARK  Name = 
REMARK  8 active torsions:
REMARK  status: ('A' for Active; 'I' for Inactive)
REMARK    1  A    between atoms: C_1  and  C_2
REMARK    2  A    between atoms: C_2  and  C_3
REMARK    3  A    between atoms: N_5  and  C_6
REMARK    4  A    between atoms: C_6  and  C_7
REMARK    5  A    between atoms: N_9  and  C_10
REMARK    6  A    between atoms: C_10  and  C_11
REMARK    7  A    between atoms: C_15  and  C_16
REMARK    8  A    between atoms: N_18  and  C_19
REMARK                            x       y       z     vdW  Elec       q    Type
REMARK                         _______ _______ _______ _____ _____    ______ ____
ROOT
ATOM      1  C   UNL     1       2.188   7.573  18.761  0.00  0.00    +0.000 C 
ATOM      2  O   UNL     1       2.410   7.882  19.932  0.00  0.00    +0.000 OA
ATOM      3  N   UNL     1       2.063   8.505  17.750  0.00  0.00    +0.000 N 
ATOM      4  H   UNL     1       1.778   8.201  16.830  0.00  0.00    +0.000 HD
ENDROOT
BRANCH   1   5
ATOM      5  C   UNL     1       2.034   6.111  18.320  0.00  0.00    +0.000 C 
BRANCH   5   8
ATOM      6  C   UNL     1       3.383   2.915  18.750  0.00  0.00    +0.000 C 
ATOM      7  C   UNL     1       3.310   4.272  19.461  0.00  0.00    +0.000 C 
ATOM      8  N   UNL     1       3.291   5.374  18.489  0.00  0.00    +0.000 N 
ATOM      9  C   UNL     1       4.169   5.190  17.417  0.00  0.00    +0.000 A 
ATOM     10  C   UNL     1       4.470   6.228  16.526  0.00  0.00    +0.000 A 
ATOM     11  C   UNL     1       5.436   6.075  15.526  0.00  0.00    +0.000 A 
ATOM     12  C   UNL     1       6.131   4.876  15.400  0.00  0.00    +0.000 A 
ATOM     13  C   UNL     1       5.830   3.815  16.248  0.00  0.00    +0.000 A 
ATOM     14  C   UNL     1       4.844   3.962  17.227  0.00  0.00    +0.000 A 
ATOM     15  O   UNL     1       4.581   2.825  17.960  0.00  0.00    +0.000 OA
BRANCH   6  17
ATOM     16  C   UNL     1       0.863   2.485  18.758  0.00  0.00    +0.000 C 
ATOM     17  C   UNL     1       2.125   2.601  17.915  0.00  0.00    +0.000 C 
ENDBRANCH   6  17
ENDBRANCH   5   8
ENDBRANCH   1   5
BRANCH   3  18
ATOM     18  C   UNL     1       2.070   9.920  18.028  0.00  0.00    +0.000 C 
BRANCH  18  19
ATOM     19  C   UNL     1       0.756  10.377  18.608  0.00  0.00    +0.000 A 
ATOM     20  C   UNL     1       0.698  11.004  19.861  0.00  0.00    +0.000 A 
ATOM     21  C   UNL     1      -0.515  11.485  20.359  0.00  0.00    +0.000 A 
ATOM     22  C   UNL     1      -1.683  11.337  19.612  0.00  0.00    +0.000 A 
ATOM     23  C   UNL     1      -1.650  10.684  18.374  0.00  0.00    +0.000 A 
ATOM     24  C   UNL     1      -0.433  10.201  17.877  0.00  0.00    +0.000 A 
BRANCH  23  25
ATOM     25  C   UNL     1      -2.911  10.599  17.590  0.00  0.00    +0.000 C 
ATOM     26  O   UNL     1      -3.032   9.729  16.731  0.00  0.00    +0.000 OA
ATOM     27  N   UNL     1      -3.879  11.546  17.870  0.00  0.00    +0.000 N 
ATOM     28  H   UNL     1      -3.655  12.324  18.477  0.00  0.00    +0.000 HD
BRANCH  27  29
ATOM     29  C   UNL     1      -5.136  11.553  17.187  0.00  0.00    +0.000 C 
ATOM     30  C   UNL     1      -6.009  12.776  17.159  0.00  0.00    +0.000 C 
ATOM     31  C   UNL     1      -6.417  11.584  17.973  0.00  0.00    +0.000 C 
ENDBRANCH  27  29
ENDBRANCH  23  25
ENDBRANCH  18  19
ENDBRANCH   3  18
TORSDOF 7
ENDMDL
MODEL 9
REMARK VINA RESULT:      -8.2      2.465      9.191
REMARK  Name = 
REMARK  8 active torsions:
REMARK  status: ('A' for Active; 'I' for Inactive)
REMARK    1  A    between atoms: C_1  and  C_2
REMARK    2  A    between atoms: C_2  and  C_3
REMARK    3  A    between atoms: N_5  and  C_6
REMARK    4  A    between atoms: C_6  and  C_7
REMARK    5  A    between atoms: N_9  and  C_10
REMARK    6  A    between atoms: C_10  and  C_11
REMARK    7  A    between atoms: C_15  and  C_16
REMARK    8  A    between atoms: N_18  and  C_19
REMARK                            x       y       z     vdW  Elec       q    Type
REMARK                         _______ _______ _______ _____ _____    ______ ____
ROOT
ATOM      1  C   UNL     1       2.061   8.040  18.793  0.00  0.00    +0.000 C 
ATOM      2  O   UNL     1       2.179   7.770  19.988  0.00  0.00    +0.000 OA
ATOM      3  N   UNL     1       2.177   7.092  17.796  0.00  0.00    +0.000 N 
ATOM      4  H   UNL     1       2.175   7.388  16.830  0.00  0.00    +0.000 HD
ENDROOT
BRANCH   1   5
ATOM      5  C   UNL     1       1.769   9.465  18.304  0.00  0.00    +0.000 C 
BRANCH   5   8
ATOM      6  C   UNL     1       0.742  12.391  19.917  0.00  0.00    +0.000 C 
ATOM      7  C   UNL     1       1.022  10.913  20.216  0.00  0.00    +0.000 C 
ATOM      8  N   UNL     1       0.670  10.069  19.067  0.00  0.00    +0.000 N 
ATOM      9  C   UNL     1      -0.522  10.444  18.441  0.00  0.00    +0.000 A 
ATOM     10  C   UNL     1      -1.143   9.624  17.490  0.00  0.00    +0.000 A 
ATOM     11  C   UNL     1      -2.393   9.947  16.952  0.00  0.00    +0.000 A 
ATOM     12  C   UNL     1      -3.056  11.100  17.361  0.00  0.00    +0.000 A 
ATOM     13  C   UNL     1      -2.448  11.952  18.278  0.00  0.00    +0.000 A 
ATOM     14  C   UNL     1      -1.187  11.642  18.792  0.00  0.00    +0.000 A 
ATOM     15  O   UNL     1      -0.654  12.592  19.635  0.00  0.00    +0.000 OA
BRANCH   6  17
ATOM     16  C   UNL     1       2.675  13.950  19.311  0.00  0.00    +0.000 C 
ATOM     17  C   UNL     1       1.637  12.963  18.799  0.00  0.00    +0.000 C 
ENDBRANCH   6  17
ENDBRANCH   5   8
ENDBRANCH   1   5
BRANCH   3  18
ATOM     18  C   UNL     1       2.562   5.734  18.091  0.00  0.00    +0.000 C 
BRANCH  18  19
ATOM     19  C   UNL     1       4.056   5.548  17.993  0.00  0.00    +0.000 A 
ATOM     20  C   UNL     1       4.860   5.549  19.142  0.00  0.00    +0.000 A 
ATOM     21  C   UNL     1       6.232   5.307  19.047  0.00  0.00    +0.000 A 
ATOM     22  C   UNL     1       6.814   5.071  17.802  0.00  0.00    +0.000 A 
ATOM     23  C   UNL     1       6.032   5.100  16.641  0.00  0.00    +0.000 A 
ATOM     24  C   UNL     1       4.656   5.344  16.738  0.00  0.00    +0.000 A 
BRANCH  23  25
ATOM     25  C   UNL     1       6.688   4.789  15.343  0.00  0.00    +0.000 C 
ATOM     26  O   UNL     1       7.717   5.379  15.028  0.00  0.00    +0.000 OA
ATOM     27  N   UNL     1       6.063   3.848  14.544  0.00  0.00    +0.000 N 
ATOM     28  H   UNL     1       5.139   3.516  14.794  0.00  0.00    +0.000 HD
BRANCH  27  29
ATOM     29  C   UNL     1       6.609   3.460  13.281  0.00  0.00    +0.000 C 
ATOM     30  C   UNL     1       6.551   4.369  12.086  0.00  0.00    +0.000 C 
ATOM     31  C   UNL     1       5.693   3.140  12.133  0.00  0.00    +0.000 C 
ENDBRANCH  27  29
ENDBRANCH  23  25
ENDBRANCH  18  19
ENDBRANCH   3  18
TORSDOF 7
ENDMDL
