MODEL 1
REMARK VINA RESULT:      -8.3      0.000      0.000
REMARK  Name = 
REMARK  3 active torsions:
REMARK  status: ('A' for Active; 'I' for Inactive)
REMARK    1  A    between atoms: C_1  and  C_2
REMARK    2  A    between atoms: C_10  and  N_11
REMARK    3  A    between atoms: C_12  and  C_14
REMARK                            x       y       z     vdW  Elec       q    Type
REMARK                         _______ _______ _______ _____ _____    ______ ____
ROOT
ATOM      1  N   UNL     1       2.665   7.199  18.775  0.00  0.00    +0.000 N 
ATOM      2  C   UNL     1       2.163   8.375  18.211  0.00  0.00    +0.000 C 
ATOM      3  O   UNL     1       2.273   8.758  17.053  0.00  0.00    +0.000 OA
ATOM      4  H   UNL     1       2.511   7.047  19.760  0.00  0.00    +0.000 HD
ENDROOT
BRANCH   2   5
ATOM      5  C   UNL     1       1.451   9.291  19.119  0.00  0.00    +0.000 A 
ATOM      6  C   UNL     1       1.124   8.994  20.437  0.00  0.00    +0.000 A 
ATOM      7  C   UNL     1       0.453   9.960  21.192  0.00  0.00    +0.000 A 
ATOM      8  C   UNL     1       0.097  11.181  20.617  0.00  0.00    +0.000 A 
ATOM      9  N   UNL     1      -0.540  12.152  21.400  0.00  0.00    +0.000 N 
ATOM     10  C   UNL     1      -0.274  13.528  20.972  0.00  0.00    +0.000 C 
ATOM     11  C   UNL     1       0.199  14.296  22.204  0.00  0.00    +0.000 C 
ATOM     12  C   UNL     1      -0.928  14.685  23.155  0.00  0.00    +0.000 C 
ATOM     13  C   UNL     1      -1.809  13.531  23.642  0.00  0.00    +0.000 C 
ATOM     14  C   UNL     1      -2.649  12.895  22.532  0.00  0.00    +0.000 C 
ATOM     15  C   UNL     1      -1.920  11.799  21.745  0.00  0.00    +0.000 C 
ATOM     16  N   UNL     1       0.397  11.457  19.332  0.00  0.00    +0.000 NA
ATOM     17  C   UNL     1       1.056  10.522  18.614  0.00  0.00    +0.000 A 
ENDBRANCH   2   5
BRANCH   1  27
ATOM     18  C   UNL     1       1.580   4.460  18.126  0.00  0.00    +0.000 C 
ATOM     19  C   UNL     1       2.968   4.943  17.792  0.00  0.00    +0.000 A 
ATOM     20  C   UNL     1       3.789   3.999  17.119  0.00  0.00    +0.000 A 
ATOM     21  C   UNL     1       5.093   4.368  16.789  0.00  0.00    +0.000 A 
ATOM     22  N   UNL     1       6.111   3.701  16.161  0.00  0.00    +0.000 N 
ATOM     23  N   UNL     1       7.243   4.416  16.037  0.00  0.00    +0.000 NA
ATOM     24  C   UNL     1       6.933   5.585  16.604  0.00  0.00    +0.000 A 
ATOM     25  C   UNL     1       5.609   5.615  17.088  0.00  0.00    +0.000 A 
ATOM     26  C   UNL     1       4.793   6.550  17.740  0.00  0.00    +0.000 A 
ATOM     27  C   UNL     1       3.474   6.232  18.097  0.00  0.00    +0.000 A 
ATOM     28  H   UNL     1       6.097   2.758  15.797  0.00  0.00    +0.000 HD
ENDBRANCH   1  27
TORSDOF 2
ENDMDL
MODEL 2
REMARK VINA RESULT:      -8.2      0.913      1.696
REMARK  Name = 
REMARK  3 active torsions:
REMARK  status: ('A' for Active; 'I' for Inactive)
REMARK    1  A    between atoms: C_1  and  C_2
REMARK    2  A    between atoms: C_10  and  N_11
REMARK    3  A    between atoms: C_12  and  C_14
REMARK                            x       y       z     vdW  Elec       q    Type
REMARK                         _______ _______ _______ _____ _____    ______ ____
ROOT
ATOM      1  N   UNL     1       2.306   7.420  19.005  0.00  0.00    +0.000 N 
ATOM      2  C   UNL     1       1.893   8.583  18.351  0.00  0.00    +0.000 C 
ATOM      3  O   UNL     1       2.063   8.884  17.176  0.00  0.00    +0.000 OA
ATOM      4  H   UNL     1       2.111   7.340  19.991  0.00  0.00    +0.000 HD
ENDROOT
BRANCH   2   5
ATOM      5  C   UNL     1       1.205   9.594  19.174  0.00  0.00    +0.000 A 
ATOM      6  C   UNL     1       0.624  10.753  18.672  0.00  0.00    +0.000 A 
ATOM      7  C   UNL     1      -0.006  11.624  19.564  0.00  0.00    +0.000 A 
ATOM      8  C   UNL     1      -0.019  11.342  20.933  0.00  0.00    +0.000 A 
ATOM      9  N   UNL     1      -0.689  12.207  21.807  0.00  0.00    +0.000 N 
ATOM     10  C   UNL     1      -1.214  11.548  23.006  0.00  0.00    +0.000 C 
ATOM     11  C   UNL     1      -2.689  11.925  23.114  0.00  0.00    +0.000 C 
ATOM     12  C   UNL     1      -2.925  13.337  23.643  0.00  0.00    +0.000 C 
ATOM     13  C   UNL     1      -2.218  14.457  22.874  0.00  0.00    +0.000 C 
ATOM     14  C   UNL     1      -0.693  14.412  22.998  0.00  0.00    +0.000 C 
ATOM     15  C   UNL     1      -0.009  13.494  21.978  0.00  0.00    +0.000 C 
ATOM     16  N   UNL     1       0.564  10.228  21.417  0.00  0.00    +0.000 NA
ATOM     17  C   UNL     1       1.160   9.386  20.545  0.00  0.00    +0.000 A 
ENDBRANCH   2   5
BRANCH   1  27
ATOM     18  C   UNL     1       1.553   4.530  19.426  0.00  0.00    +0.000 C 
ATOM     19  C   UNL     1       2.730   5.008  18.616  0.00  0.00    +0.000 A 
ATOM     20  C   UNL     1       3.513   3.981  18.025  0.00  0.00    +0.000 A 
ATOM     21  C   UNL     1       4.629   4.345  17.271  0.00  0.00    +0.000 A 
ATOM     22  N   UNL     1       5.566   3.610  16.595  0.00  0.00    +0.000 N 
ATOM     23  N   UNL     1       6.510   4.350  15.985  0.00  0.00    +0.000 NA
ATOM     24  C   UNL     1       6.156   5.604  16.282  0.00  0.00    +0.000 A 
ATOM     25  C   UNL     1       4.994   5.664  17.077  0.00  0.00    +0.000 A 
ATOM     26  C   UNL     1       4.213   6.676  17.650  0.00  0.00    +0.000 A 
ATOM     27  C   UNL     1       3.080   6.367  18.419  0.00  0.00    +0.000 A 
ATOM     28  H   UNL     1       5.618   2.604  16.513  0.00  0.00    +0.000 HD
ENDBRANCH   1  27
TORSDOF 2
ENDMDL
MODEL 3
REMARK VINA RESULT:      -8.2      1.135      1.563
REMARK  Name = 
REMARK  3 active torsions:
REMARK  status: ('A' for Active; 'I' for Inactive)
REMARK    1  A    between atoms: C_1  and  C_2
REMARK    2  A    between atoms: C_10  and  N_11
REMARK    3  A    between atoms: C_12  and  C_14
REMARK                            x       y       z     vdW  Elec       q    Type
REMARK                         _______ _______ _______ _____ _____    ______ ____
ROOT
ATOM      1  N   UNL     1       2.275   7.308  18.520  0.00  0.00    +0.000 N 
ATOM      2  C   UNL     1       2.046   8.581  17.992  0.00  0.00    +0.000 C 
ATOM      3  O   UNL     1       2.575   9.093  17.014  0.00  0.00    +0.000 OA
ATOM      4  H   UNL     1       1.773   7.048  19.356  0.00  0.00    +0.000 HD
ENDROOT
BRANCH   2   5
ATOM      5  C   UNL     1       1.085   9.432  18.714  0.00  0.00    +0.000 A 
ATOM      6  C   UNL     1      -0.227   9.654  18.311  0.00  0.00    +0.000 A 
ATOM      7  C   UNL     1      -1.037  10.478  19.096  0.00  0.00    +0.000 A 
ATOM      8  C   UNL     1      -0.521  11.087  20.242  0.00  0.00    +0.000 A 
ATOM      9  N   UNL     1      -1.358  11.879  21.038  0.00  0.00    +0.000 N 
ATOM     10  C   UNL     1      -0.981  11.904  22.453  0.00  0.00    +0.000 C 
ATOM     11  C   UNL     1      -2.233  11.555  23.255  0.00  0.00    +0.000 C 
ATOM     12  C   UNL     1      -3.225  12.707  23.378  0.00  0.00    +0.000 C 
ATOM     13  C   UNL     1      -3.684  13.327  22.055  0.00  0.00    +0.000 C 
ATOM     14  C   UNL     1      -2.567  14.058  21.305  0.00  0.00    +0.000 C 
ATOM     15  C   UNL     1      -1.719  13.151  20.405  0.00  0.00    +0.000 C 
ATOM     16  N   UNL     1       0.758  10.887  20.618  0.00  0.00    +0.000 NA
ATOM     17  C   UNL     1       1.529  10.078  19.859  0.00  0.00    +0.000 A 
ENDBRANCH   2   5
BRANCH   1  27
ATOM     18  C   UNL     1       1.501   4.450  17.942  0.00  0.00    +0.000 C 
ATOM     19  C   UNL     1       2.883   5.025  17.767  0.00  0.00    +0.000 A 
ATOM     20  C   UNL     1       3.860   4.112  17.289  0.00  0.00    +0.000 A 
ATOM     21  C   UNL     1       5.166   4.566  17.114  0.00  0.00    +0.000 A 
ATOM     22  N   UNL     1       6.310   3.947  16.685  0.00  0.00    +0.000 N 
ATOM     23  N   UNL     1       7.393   4.745  16.664  0.00  0.00    +0.000 NA
ATOM     24  C   UNL     1       6.918   5.919  17.090  0.00  0.00    +0.000 A 
ATOM     25  C   UNL     1       5.540   5.870  17.384  0.00  0.00    +0.000 A 
ATOM     26  C   UNL     1       4.572   6.773  17.843  0.00  0.00    +0.000 A 
ATOM     27  C   UNL     1       3.242   6.369  18.038  0.00  0.00    +0.000 A 
ATOM     28  H   UNL     1       6.418   2.984  16.397  0.00  0.00    +0.000 HD
ENDBRANCH   1  27
TORSDOF 2
ENDMDL
MODEL 4
REMARK VINA RESULT:      -8.2      2.204      9.649
REMARK  Name = 
REMARK  3 active torsions:
REMARK  status: ('A' for Active; 'I' for Inactive)
REMARK    1  A    between atoms: C_1  and  C_2
REMARK    2  A    between atoms: C_10  and  N_11
REMARK    3  A    between atoms: C_12  and  C_14
REMARK                            x       y       z     vdW  Elec       q    Type
REMARK                         _______ _______ _______ _____ _____    ______ ____
ROOT
ATOM      1  N   UNL     1       0.062   9.980  18.777  0.00  0.00    +0.000 N 
ATOM      2  C   UNL     1       0.713   9.116  19.660  0.00  0.00    +0.000 C 
ATOM      3  O   UNL     1       0.514   8.981  20.860  0.00  0.00    +0.000 OA
ATOM      4  H   UNL     1       0.369   9.990  17.816  0.00  0.00    +0.000 HD
ENDROOT
BRANCH   2   5
ATOM      5  C   UNL     1       1.798   8.293  19.098  0.00  0.00    +0.000 A 
ATOM      6  C   UNL     1       2.417   8.534  17.877  0.00  0.00    +0.000 A 
ATOM      7  C   UNL     1       3.441   7.678  17.467  0.00  0.00    +0.000 A 
ATOM      8  C   UNL     1       3.808   6.588  18.259  0.00  0.00    +0.000 A 
ATOM      9  N   UNL     1       4.864   5.764  17.851  0.00  0.00    +0.000 N 
ATOM     10  C   UNL     1       5.585   5.131  18.958  0.00  0.00    +0.000 C 
ATOM     11  C   UNL     1       7.069   5.424  18.751  0.00  0.00    +0.000 C 
ATOM     12  C   UNL     1       7.722   4.561  17.677  0.00  0.00    +0.000 C 
ATOM     13  C   UNL     1       7.050   4.596  16.302  0.00  0.00    +0.000 C 
ATOM     14  C   UNL     1       5.654   3.969  16.290  0.00  0.00    +0.000 C 
ATOM     15  C   UNL     1       4.531   4.933  16.690  0.00  0.00    +0.000 C 
ATOM     16  N   UNL     1       3.192   6.345  19.433  0.00  0.00    +0.000 NA
ATOM     17  C   UNL     1       2.210   7.186  19.826  0.00  0.00    +0.000 A 
ENDBRANCH   2   5
BRANCH   1  27
ATOM     18  C   UNL     1      -2.690   9.872  17.546  0.00  0.00    +0.000 C 
ATOM     19  C   UNL     1      -2.235  10.890  18.559  0.00  0.00    +0.000 A 
ATOM     20  C   UNL     1      -3.213  11.850  18.932  0.00  0.00    +0.000 A 
ATOM     21  C   UNL     1      -2.862  12.834  19.855  0.00  0.00    +0.000 A 
ATOM     22  N   UNL     1      -3.558  13.879  20.401  0.00  0.00    +0.000 N 
ATOM     23  N   UNL     1      -2.846  14.621  21.268  0.00  0.00    +0.000 NA
ATOM     24  C   UNL     1      -1.653  14.022  21.278  0.00  0.00    +0.000 A 
ATOM     25  C   UNL     1      -1.602  12.904  20.421  0.00  0.00    +0.000 A 
ATOM     26  C   UNL     1      -0.642  11.949  20.062  0.00  0.00    +0.000 A 
ATOM     27  C   UNL     1      -0.941  10.937  19.136  0.00  0.00    +0.000 A 
ATOM     28  H   UNL     1      -4.518  14.141  20.221  0.00  0.00    +0.000 HD
ENDBRANCH   1  27
TORSDOF 2
ENDMDL
MODEL 5
REMARK VINA RESULT:      -8.0      1.949      9.931
REMARK  Name = 
REMARK  3 active torsions:
REMARK  status: ('A' for Active; 'I' for Inactive)
REMARK    1  A    between atoms: C_1  and  C_2
REMARK    2  A    between atoms: C_10  and  N_11
REMARK    3  A    between atoms: C_12  and  C_14
REMARK                            x       y       z     vdW  Elec       q    Type
REMARK                         _______ _______ _______ _____ _____    ______ ____
ROOT
ATOM      1  N   UNL     1       0.262  10.903  21.263  0.00  0.00    +0.000 N 
ATOM      2  C   UNL     1       0.282  10.669  19.886  0.00  0.00    +0.000 C 
ATOM      3  O   UNL     1      -0.278  11.312  19.008  0.00  0.00    +0.000 OA
ATOM      4  H   UNL     1       0.756  10.255  21.858  0.00  0.00    +0.000 HD
ENDROOT
BRANCH   2   5
ATOM      5  C   UNL     1       1.030   9.484  19.429  0.00  0.00    +0.000 A 
ATOM      6  C   UNL     1       1.418   9.259  18.113  0.00  0.00    +0.000 A 
ATOM      7  C   UNL     1       2.132   8.095  17.818  0.00  0.00    +0.000 A 
ATOM      8  C   UNL     1       2.418   7.170  18.825  0.00  0.00    +0.000 A 
ATOM      9  N   UNL     1       3.169   6.029  18.518  0.00  0.00    +0.000 N 
ATOM     10  C   UNL     1       3.955   5.515  19.643  0.00  0.00    +0.000 C 
ATOM     11  C   UNL     1       5.391   5.358  19.150  0.00  0.00    +0.000 C 
ATOM     12  C   UNL     1       5.611   4.124  18.281  0.00  0.00    +0.000 C 
ATOM     13  C   UNL     1       4.691   4.002  17.063  0.00  0.00    +0.000 C 
ATOM     14  C   UNL     1       3.223   3.771  17.429  0.00  0.00    +0.000 C 
ATOM     15  C   UNL     1       2.435   5.059  17.699  0.00  0.00    +0.000 C 
ATOM     16  N   UNL     1       2.022   7.382  20.095  0.00  0.00    +0.000 NA
ATOM     17  C   UNL     1       1.342   8.516  20.372  0.00  0.00    +0.000 A 
ENDBRANCH   2   5
BRANCH   1  27
ATOM     18  C   UNL     1       1.205  13.769  21.232  0.00  0.00    +0.000 C 
ATOM     19  C   UNL     1      -0.048  13.277  21.910  0.00  0.00    +0.000 A 
ATOM     20  C   UNL     1      -0.810  14.278  22.569  0.00  0.00    +0.000 A 
ATOM     21  C   UNL     1      -1.977  13.898  23.232  0.00  0.00    +0.000 A 
ATOM     22  N   UNL     1      -2.904  14.605  23.949  0.00  0.00    +0.000 N 
ATOM     23  N   UNL     1      -3.904  13.856  24.447  0.00  0.00    +0.000 NA
ATOM     24  C   UNL     1      -3.603  12.624  24.027  0.00  0.00    +0.000 A 
ATOM     25  C   UNL     1      -2.417  12.588  23.265  0.00  0.00    +0.000 A 
ATOM     26  C   UNL     1      -1.672  11.604  22.603  0.00  0.00    +0.000 A 
ATOM     27  C   UNL     1      -0.489  11.930  21.921  0.00  0.00    +0.000 A 
ATOM     28  H   UNL     1      -2.910  15.599  24.138  0.00  0.00    +0.000 HD
ENDBRANCH   1  27
TORSDOF 2
ENDMDL
MODEL 6
REMARK VINA RESULT:      -8.0      1.783      9.683
REMARK  Name = 
REMARK  3 active torsions:
REMARK  status: ('A' for Active; 'I' for Inactive)
REMARK    1  A    between atoms: C_1  and  C_2
REMARK    2  A    between atoms: C_10  and  N_11
REMARK    3  A    between atoms: C_12  and  C_14
REMARK                            x       y       z     vdW  Elec       q    Type
REMARK                         _______ _______ _______ _____ _____    ______ ____
ROOT
ATOM      1  N   UNL     1       0.913  10.326  20.620  0.00  0.00    +0.000 N 
ATOM      2  C   UNL     1       0.647   9.643  19.431  0.00  0.00    +0.000 C 
ATOM      3  O   UNL     1      -0.369   9.690  18.749  0.00  0.00    +0.000 OA
ATOM      4  H   UNL     1       1.795  10.151  21.076  0.00  0.00    +0.000 HD
ENDROOT
BRANCH   2   5
ATOM      5  C   UNL     1       1.692   8.720  18.952  0.00  0.00    +0.000 A 
ATOM      6  C   UNL     1       2.328   8.823  17.720  0.00  0.00    +0.000 A 
ATOM      7  C   UNL     1       3.309   7.883  17.395  0.00  0.00    +0.000 A 
ATOM      8  C   UNL     1       3.615   6.849  18.282  0.00  0.00    +0.000 A 
ATOM      9  N   UNL     1       4.629   5.940  17.957  0.00  0.00    +0.000 N 
ATOM     10  C   UNL     1       5.311   5.369  19.121  0.00  0.00    +0.000 C 
ATOM     11  C   UNL     1       6.809   5.567  18.904  0.00  0.00    +0.000 C 
ATOM     12  C   UNL     1       7.422   4.582  17.914  0.00  0.00    +0.000 C 
ATOM     13  C   UNL     1       6.759   4.532  16.535  0.00  0.00    +0.000 C 
ATOM     14  C   UNL     1       5.333   3.978  16.564  0.00  0.00    +0.000 C 
ATOM     15  C   UNL     1       4.259   5.030  16.869  0.00  0.00    +0.000 C 
ATOM     16  N   UNL     1       2.981   6.740  19.467  0.00  0.00    +0.000 NA
ATOM     17  C   UNL     1       2.043   7.661  19.777  0.00  0.00    +0.000 A 
ENDBRANCH   2   5
BRANCH   1  27
ATOM     18  C   UNL     1      -0.314   9.482  23.243  0.00  0.00    +0.000 C 
ATOM     19  C   UNL     1      -0.584  10.788  22.541  0.00  0.00    +0.000 A 
ATOM     20  C   UNL     1      -1.491  11.655  23.208  0.00  0.00    +0.000 A 
ATOM     21  C   UNL     1      -1.802  12.877  22.613  0.00  0.00    +0.000 A 
ATOM     22  N   UNL     1      -2.625  13.905  22.990  0.00  0.00    +0.000 N 
ATOM     23  N   UNL     1      -2.658  14.930  22.120  0.00  0.00    +0.000 NA
ATOM     24  C   UNL     1      -1.821  14.542  21.155  0.00  0.00    +0.000 A 
ATOM     25  C   UNL     1      -1.257  13.275  21.407  0.00  0.00    +0.000 A 
ATOM     26  C   UNL     1      -0.352  12.425  20.757  0.00  0.00    +0.000 A 
ATOM     27  C   UNL     1      -0.004  11.182  21.309  0.00  0.00    +0.000 A 
ATOM     28  H   UNL     1      -3.191  13.966  23.826  0.00  0.00    +0.000 HD
ENDBRANCH   1  27
TORSDOF 2
ENDMDL
MODEL 7
REMARK VINA RESULT:      -8.0      2.318      9.759
REMARK  Name = 
REMARK  3 active torsions:
REMARK  status: ('A' for Active; 'I' for Inactive)
REMARK    1  A    between atoms: C_1  and  C_2
REMARK    2  A    between atoms: C_10  and  N_11
REMARK    3  A    between atoms: C_12  and  C_14
REMARK                            x       y       z     vdW  Elec       q    Type
REMARK                         _______ _______ _______ _____ _____    ______ ____
ROOT
ATOM      1  N   UNL     1       0.126  10.041  18.800  0.00  0.00    +0.000 N 
ATOM      2  C   UNL     1       0.705   9.101  19.656  0.00  0.00    +0.000 C 
ATOM      3  O   UNL     1       0.440   8.896  20.833  0.00  0.00    +0.000 OA
ATOM      4  H   UNL     1       0.483  10.103  17.858  0.00  0.00    +0.000 HD
ENDROOT
BRANCH   2   5
ATOM      5  C   UNL     1       1.794   8.282  19.096  0.00  0.00    +0.000 A 
ATOM      6  C   UNL     1       2.415   8.526  17.877  0.00  0.00    +0.000 A 
ATOM      7  C   UNL     1       3.443   7.673  17.468  0.00  0.00    +0.000 A 
ATOM      8  C   UNL     1       3.811   6.583  18.261  0.00  0.00    +0.000 A 
ATOM      9  N   UNL     1       4.870   5.762  17.854  0.00  0.00    +0.000 N 
ATOM     10  C   UNL     1       5.589   5.130  18.962  0.00  0.00    +0.000 C 
ATOM     11  C   UNL     1       7.073   5.427  18.760  0.00  0.00    +0.000 C 
ATOM     12  C   UNL     1       7.731   4.567  17.687  0.00  0.00    +0.000 C 
ATOM     13  C   UNL     1       7.062   4.602  16.309  0.00  0.00    +0.000 C 
ATOM     14  C   UNL     1       5.668   3.971  16.293  0.00  0.00    +0.000 C 
ATOM     15  C   UNL     1       4.542   4.932  16.691  0.00  0.00    +0.000 C 
ATOM     16  N   UNL     1       3.192   6.337  19.433  0.00  0.00    +0.000 NA
ATOM     17  C   UNL     1       2.207   7.175  19.824  0.00  0.00    +0.000 A 
ENDBRANCH   2   5
BRANCH   1  27
ATOM     18  C   UNL     1       0.835  12.394  20.549  0.00  0.00    +0.000 C 
ATOM     19  C   UNL     1      -0.537  12.110  19.994  0.00  0.00    +0.000 A 
ATOM     20  C   UNL     1      -1.538  13.054  20.350  0.00  0.00    +0.000 A 
ATOM     21  C   UNL     1      -2.838  12.851  19.886  0.00  0.00    +0.000 A 
ATOM     22  N   UNL     1      -3.999  13.557  20.054  0.00  0.00    +0.000 N 
ATOM     23  N   UNL     1      -5.065  13.016  19.437  0.00  0.00    +0.000 NA
ATOM     24  C   UNL     1      -4.562  11.927  18.850  0.00  0.00    +0.000 A 
ATOM     25  C   UNL     1      -3.182  11.772  19.092  0.00  0.00    +0.000 A 
ATOM     26  C   UNL     1      -2.190  10.850  18.732  0.00  0.00    +0.000 A 
ATOM     27  C   UNL     1      -0.866  11.004  19.171  0.00  0.00    +0.000 A 
ATOM     28  H   UNL     1      -4.130  14.411  20.578  0.00  0.00    +0.000 HD
ENDBRANCH   1  27
TORSDOF 2
ENDMDL
MODEL 8
REMARK VINA RESULT:      -7.7      2.081      9.849
REMARK  Name = 
REMARK  3 active torsions:
REMARK  status: ('A' for Active; 'I' for Inactive)
REMARK    1  A    between atoms: C_1  and  C_2
REMARK    2  A    between atoms: C_10  and  N_11
REMARK    3  A    between atoms: C_12  and  C_14
REMARK                            x       y       z     vdW  Elec       q    Type
REMARK                         _______ _______ _______ _____ _____    ______ ____
ROOT
ATOM      1  N   UNL     1      -0.455  10.828  20.735  0.00  0.00    +0.000 N 
ATOM      2  C   UNL     1       0.596  10.928  19.821  0.00  0.00    +0.000 C 
ATOM      3  O   UNL     1       1.047  11.943  19.305  0.00  0.00    +0.000 OA
ATOM      4  H   UNL     1      -0.725   9.905  21.042  0.00  0.00    +0.000 HD
ENDROOT
BRANCH   2   5
ATOM      5  C   UNL     1       1.217   9.664  19.387  0.00  0.00    +0.000 A 
ATOM      6  C   UNL     1       1.545   9.360  18.071  0.00  0.00    +0.000 A 
ATOM      7  C   UNL     1       2.139   8.126  17.799  0.00  0.00    +0.000 A 
ATOM      8  C   UNL     1       2.366   7.211  18.830  0.00  0.00    +0.000 A 
ATOM      9  N   UNL     1       2.999   5.995  18.544  0.00  0.00    +0.000 N 
ATOM     10  C   UNL     1       3.765   5.447  19.666  0.00  0.00    +0.000 C 
ATOM     11  C   UNL     1       5.166   5.139  19.143  0.00  0.00    +0.000 C 
ATOM     12  C   UNL     1       5.245   3.862  18.313  0.00  0.00    +0.000 C 
ATOM     13  C   UNL     1       4.282   3.787  17.124  0.00  0.00    +0.000 C 
ATOM     14  C   UNL     1       2.811   3.708  17.536  0.00  0.00    +0.000 C 
ATOM     15  C   UNL     1       2.154   5.072  17.780  0.00  0.00    +0.000 C 
ATOM     16  N   UNL     1       2.028   7.501  20.102  0.00  0.00    +0.000 NA
ATOM     17  C   UNL     1       1.465   8.703  20.356  0.00  0.00    +0.000 A 
ENDBRANCH   2   5
BRANCH   1  27
ATOM     18  C   UNL     1      -2.738  11.884  19.069  0.00  0.00    +0.000 C 
ATOM     19  C   UNL     1      -2.332  12.417  20.419  0.00  0.00    +0.000 A 
ATOM     20  C   UNL     1      -3.118  13.498  20.901  0.00  0.00    +0.000 A 
ATOM     21  C   UNL     1      -2.795  14.054  22.139  0.00  0.00    +0.000 A 
ATOM     22  N   UNL     1      -3.340  15.083  22.859  0.00  0.00    +0.000 N 
ATOM     23  N   UNL     1      -2.723  15.323  24.030  0.00  0.00    +0.000 NA
ATOM     24  C   UNL     1      -1.750  14.408  24.058  0.00  0.00    +0.000 A 
ATOM     25  C   UNL     1      -1.746  13.589  22.910  0.00  0.00    +0.000 A 
ATOM     26  C   UNL     1      -0.981  12.514  22.439  0.00  0.00    +0.000 A 
ATOM     27  C   UNL     1      -1.260  11.917  21.200  0.00  0.00    +0.000 A 
ATOM     28  H   UNL     1      -4.130  15.662  22.606  0.00  0.00    +0.000 HD
ENDBRANCH   1  27
TORSDOF 2
ENDMDL
MODEL 9
REMARK VINA RESULT:      -7.7      1.267      1.913
REMARK  Name = 
REMARK  3 active torsions:
REMARK  status: ('A' for Active; 'I' for Inactive)
REMARK    1  A    between atoms: C_1  and  C_2
REMARK    2  A    between atoms: C_10  and  N_11
REMARK    3  A    between atoms: C_12  and  C_14
REMARK                            x       y       z     vdW  Elec       q    Type
REMARK                         _______ _______ _______ _____ _____    ______ ____
ROOT
ATOM      1  N   UNL     1       2.778   7.426  18.538  0.00  0.00    +0.000 N 
ATOM      2  C   UNL     1       2.201   7.389  19.809  0.00  0.00    +0.000 C 
ATOM      3  O   UNL     1       2.226   6.471  20.619  0.00  0.00    +0.000 OA
ATOM      4  H   UNL     1       2.638   8.255  17.981  0.00  0.00    +0.000 HD
ENDROOT
BRANCH   2   5
ATOM      5  C   UNL     1       1.432   8.578  20.220  0.00  0.00    +0.000 A 
ATOM      6  C   UNL     1       0.797   9.446  19.338  0.00  0.00    +0.000 A 
ATOM      7  C   UNL     1       0.093  10.532  19.863  0.00  0.00    +0.000 A 
ATOM      8  C   UNL     1       0.060  10.750  21.243  0.00  0.00    +0.000 A 
ATOM      9  N   UNL     1      -0.684  11.821  21.753  0.00  0.00    +0.000 N 
ATOM     10  C   UNL     1      -1.201  11.594  23.104  0.00  0.00    +0.000 C 
ATOM     11  C   UNL     1      -2.698  11.889  23.066  0.00  0.00    +0.000 C 
ATOM     12  C   UNL     1      -3.031  13.378  23.061  0.00  0.00    +0.000 C 
ATOM     13  C   UNL     1      -2.371  14.199  21.950  0.00  0.00    +0.000 C 
ATOM     14  C   UNL     1      -0.850  14.300  22.088  0.00  0.00    +0.000 C 
ATOM     15  C   UNL     1      -0.086  13.128  21.461  0.00  0.00    +0.000 C 
ATOM     16  N   UNL     1       0.695   9.918  22.092  0.00  0.00    +0.000 NA
ATOM     17  C   UNL     1       1.362   8.864  21.575  0.00  0.00    +0.000 A 
ENDBRANCH   2   5
BRANCH   1  27
ATOM     18  C   UNL     1       1.394   4.793  18.033  0.00  0.00    +0.000 C 
ATOM     19  C   UNL     1       2.824   5.103  17.670  0.00  0.00    +0.000 A 
ATOM     20  C   UNL     1       3.530   4.043  17.042  0.00  0.00    +0.000 A 
ATOM     21  C   UNL     1       4.864   4.249  16.689  0.00  0.00    +0.000 A 
ATOM     22  N   UNL     1       5.796   3.444  16.092  0.00  0.00    +0.000 N 
ATOM     23  N   UNL     1       6.999   4.023  15.927  0.00  0.00    +0.000 NA
ATOM     24  C   UNL     1       6.824   5.246  16.436  0.00  0.00    +0.000 A 
ATOM     25  C   UNL     1       5.516   5.446  16.923  0.00  0.00    +0.000 A 
ATOM     26  C   UNL     1       4.813   6.495  17.530  0.00  0.00    +0.000 A 
ATOM     27  C   UNL     1       3.470   6.342  17.907  0.00  0.00    +0.000 A 
ATOM     28  H   UNL     1       5.676   2.491  15.776  0.00  0.00    +0.000 HD
ENDBRANCH   1  27
TORSDOF 2
ENDMDL
