MODEL 1
REMARK VINA RESULT:      -9.0      0.000      0.000
REMARK  Name = 
REMARK  6 active torsions:
REMARK  status: ('A' for Active; 'I' for Inactive)
REMARK    1  A    between atoms: C_1  and  C_2
REMARK    2  A    between atoms: C_2  and  C_3
REMARK    3  A    between atoms: C_10  and  C_11
REMARK    4  A    between atoms: N_13  and  C_14
REMARK    5  A    between atoms: C_17  and  N_18
REMARK    6  A    between atoms: N_18  and  C_19
REMARK                            x       y       z     vdW  Elec       q    Type
REMARK                         _______ _______ _______ _____ _____    ______ ____
ROOT
ATOM      1  C   UNL     1       2.001   7.977  18.843  0.00  0.00    +0.000 C 
ATOM      2  O   UNL     1       1.879   8.071  20.063  0.00  0.00    +0.000 OA
ATOM      3  N   UNL     1       1.485   8.845  17.897  0.00  0.00    +0.000 N 
ATOM      4  H   UNL     1       1.515   8.565  16.925  0.00  0.00    +0.000 HD
ENDROOT
BRANCH   1  14
ATOM      5  C   UNL     1       1.198   2.507  18.533  0.00  0.00    +0.000 C 
ATOM      6  C   UNL     1       2.545   2.987  19.066  0.00  0.00    +0.000 C 
ATOM      7  C   UNL     1       2.614   2.903  20.593  0.00  0.00    +0.000 C 
ATOM      8  C   UNL     1       3.713   2.200  18.421  0.00  0.00    +0.000 C 
ATOM      9  O   UNL     1       3.920   0.999  18.503  0.00  0.00    +0.000 OA
ATOM     10  N   UNL     1       4.505   3.112  17.727  0.00  0.00    +0.000 N 
ATOM     11  C   UNL     1       4.004   4.401  17.823  0.00  0.00    +0.000 A 
ATOM     12  C   UNL     1       4.527   5.568  17.295  0.00  0.00    +0.000 A 
ATOM     13  C   UNL     1       3.858   6.773  17.578  0.00  0.00    +0.000 A 
ATOM     14  C   UNL     1       2.691   6.761  18.367  0.00  0.00    +0.000 A 
ATOM     15  C   UNL     1       2.173   5.555  18.862  0.00  0.00    +0.000 A 
ATOM     16  C   UNL     1       2.848   4.384  18.591  0.00  0.00    +0.000 A 
ATOM     17  H   UNL     1       5.343   2.833  17.238  0.00  0.00    +0.000 HD
ENDBRANCH   1  14
BRANCH   3  18
ATOM     18  C   UNL     1       0.653   9.945  18.228  0.00  0.00    +0.000 A 
ATOM     19  C   UNL     1       1.129  11.057  18.921  0.00  0.00    +0.000 A 
ATOM     20  C   UNL     1       0.262  12.048  19.370  0.00  0.00    +0.000 A 
ATOM     21  C   UNL     1      -1.108  11.983  19.111  0.00  0.00    +0.000 A 
ATOM     22  C   UNL     1      -1.575  10.908  18.345  0.00  0.00    +0.000 A 
ATOM     23  C   UNL     1      -0.704   9.897  17.902  0.00  0.00    +0.000 A 
BRANCH  21  24
ATOM     24  N   UNL     1      -1.987  13.003  19.523  0.00  0.00    +0.000 N 
ATOM     25  H   UNL     1      -2.032  13.797  18.893  0.00  0.00    +0.000 HD
BRANCH  24  26
ATOM     26  C   UNL     1      -3.018  12.929  20.481  0.00  0.00    +0.000 A 
ATOM     27  C   UNL     1      -2.729  12.868  21.846  0.00  0.00    +0.000 A 
ATOM     28  C   UNL     1      -3.763  12.711  22.750  0.00  0.00    +0.000 A 
ATOM     29  N   UNL     1      -5.059  12.608  22.391  0.00  0.00    +0.000 NA
ATOM     30  C   UNL     1      -5.320  12.657  21.068  0.00  0.00    +0.000 A 
ATOM     31  C   UNL     1      -4.349  12.814  20.088  0.00  0.00    +0.000 A 
ENDBRANCH  24  26
ENDBRANCH  21  24
ENDBRANCH   3  18
TORSDOF 4
ENDMDL
MODEL 2
REMARK VINA RESULT:      -8.8      6.950     11.143
REMARK  Name = 
REMARK  6 active torsions:
REMARK  status: ('A' for Active; 'I' for Inactive)
REMARK    1  A    between atoms: C_1  and  C_2
REMARK    2  A    between atoms: C_2  and  C_3
REMARK    3  A    between atoms: C_10  and  C_11
REMARK    4  A    between atoms: N_13  and  C_14
REMARK    5  A    between atoms: C_17  and  N_18
REMARK    6  A    between atoms: N_18  and  C_19
REMARK                            x       y       z     vdW  Elec       q    Type
REMARK                         _______ _______ _______ _____ _____    ______ ____
ROOT
ATOM      1  C   UNL     1       8.428   9.417  18.212  0.00  0.00    +0.000 C 
ATOM      2  O   UNL     1       7.733   9.738  17.249  0.00  0.00    +0.000 OA
ATOM      3  N   UNL     1       8.565   8.145  18.739  0.00  0.00    +0.000 N 
ATOM      4  H   UNL     1       9.034   8.045  19.630  0.00  0.00    +0.000 HD
ENDROOT
BRANCH   1  14
ATOM      5  C   UNL     1       9.877  14.688  17.330  0.00  0.00    +0.000 C 
ATOM      6  C   UNL     1      10.934  13.763  17.927  0.00  0.00    +0.000 C 
ATOM      7  C   UNL     1      11.941  13.296  16.872  0.00  0.00    +0.000 C 
ATOM      8  C   UNL     1      11.661  14.439  19.116  0.00  0.00    +0.000 C 
ATOM      9  O   UNL     1      12.333  15.458  19.079  0.00  0.00    +0.000 OA
ATOM     10  N   UNL     1      11.420  13.670  20.251  0.00  0.00    +0.000 N 
ATOM     11  C   UNL     1      10.618  12.575  19.966  0.00  0.00    +0.000 A 
ATOM     12  C   UNL     1      10.190  11.576  20.823  0.00  0.00    +0.000 A 
ATOM     13  C   UNL     1       9.420  10.532  20.279  0.00  0.00    +0.000 A 
ATOM     14  C   UNL     1       9.101  10.533  18.908  0.00  0.00    +0.000 A 
ATOM     15  C   UNL     1       9.527  11.578  18.074  0.00  0.00    +0.000 A 
ATOM     16  C   UNL     1      10.296  12.586  18.616  0.00  0.00    +0.000 A 
ATOM     17  H   UNL     1      11.810  13.903  21.152  0.00  0.00    +0.000 HD
ENDBRANCH   1  14
BRANCH   3  18
ATOM     18  C   UNL     1       7.827   7.029  18.268  0.00  0.00    +0.000 A 
ATOM     19  C   UNL     1       7.003   7.101  17.146  0.00  0.00    +0.000 A 
ATOM     20  C   UNL     1       6.171   6.041  16.796  0.00  0.00    +0.000 A 
ATOM     21  C   UNL     1       6.160   4.857  17.534  0.00  0.00    +0.000 A 
ATOM     22  C   UNL     1       7.045   4.754  18.614  0.00  0.00    +0.000 A 
ATOM     23  C   UNL     1       7.878   5.828  18.978  0.00  0.00    +0.000 A 
BRANCH  21  24
ATOM     24  N   UNL     1       5.354   3.763  17.164  0.00  0.00    +0.000 N 
ATOM     25  H   UNL     1       5.872   2.945  16.863  0.00  0.00    +0.000 HD
BRANCH  24  26
ATOM     26  C   UNL     1       3.993   3.547  17.454  0.00  0.00    +0.000 A 
ATOM     27  C   UNL     1       3.080   4.604  17.455  0.00  0.00    +0.000 A 
ATOM     28  C   UNL     1       1.769   4.365  17.827  0.00  0.00    +0.000 A 
ATOM     29  N   UNL     1       1.308   3.155  18.200  0.00  0.00    +0.000 NA
ATOM     30  C   UNL     1       2.205   2.146  18.205  0.00  0.00    +0.000 A 
ATOM     31  C   UNL     1       3.539   2.289  17.847  0.00  0.00    +0.000 A 
ENDBRANCH  24  26
ENDBRANCH  21  24
ENDBRANCH   3  18
TORSDOF 4
ENDMDL
MODEL 3
REMARK VINA RESULT:      -8.6      2.639      3.600
REMARK  Name = 
REMARK  6 active torsions:
REMARK  status: ('A' for Active; 'I' for Inactive)
REMARK    1  A    between atoms: C_1  and  C_2
REMARK    2  A    between atoms: C_2  and  C_3
REMARK    3  A    between atoms: C_10  and  C_11
REMARK    4  A    between atoms: N_13  and  C_14
REMARK    5  A    between atoms: C_17  and  N_18
REMARK    6  A    between atoms: N_18  and  C_19
REMARK                            x       y       z     vdW  Elec       q    Type
REMARK                         _______ _______ _______ _____ _____    ______ ____
ROOT
ATOM      1  C   UNL     1       2.072   6.267  20.184  0.00  0.00    +0.000 C 
ATOM      2  O   UNL     1       1.195   5.640  20.775  0.00  0.00    +0.000 OA
ATOM      3  N   UNL     1       2.277   7.635  20.232  0.00  0.00    +0.000 N 
ATOM      4  H   UNL     1       2.925   8.044  19.572  0.00  0.00    +0.000 HD
ENDROOT
BRANCH   1  14
ATOM      5  C   UNL     1       7.421   5.442  19.020  0.00  0.00    +0.000 C 
ATOM      6  C   UNL     1       6.477   5.668  17.843  0.00  0.00    +0.000 C 
ATOM      7  C   UNL     1       6.568   7.100  17.309  0.00  0.00    +0.000 C 
ATOM      8  C   UNL     1       6.739   4.644  16.711  0.00  0.00    +0.000 C 
ATOM      9  O   UNL     1       7.770   4.507  16.072  0.00  0.00    +0.000 OA
ATOM     10  N   UNL     1       5.576   3.898  16.538  0.00  0.00    +0.000 N 
ATOM     11  C   UNL     1       4.579   4.293  17.417  0.00  0.00    +0.000 A 
ATOM     12  C   UNL     1       3.287   3.810  17.526  0.00  0.00    +0.000 A 
ATOM     13  C   UNL     1       2.439   4.416  18.471  0.00  0.00    +0.000 A 
ATOM     14  C   UNL     1       2.917   5.470  19.272  0.00  0.00    +0.000 A 
ATOM     15  C   UNL     1       4.243   5.915  19.155  0.00  0.00    +0.000 A 
ATOM     16  C   UNL     1       5.058   5.324  18.214  0.00  0.00    +0.000 A 
ATOM     17  H   UNL     1       5.499   3.177  15.836  0.00  0.00    +0.000 HD
ENDBRANCH   1  14
BRANCH   3  18
ATOM     18  C   UNL     1       1.417   8.522  20.929  0.00  0.00    +0.000 A 
ATOM     19  C   UNL     1       1.518   8.731  22.303  0.00  0.00    +0.000 A 
ATOM     20  C   UNL     1       0.567   9.483  22.988  0.00  0.00    +0.000 A 
ATOM     21  C   UNL     1      -0.499  10.083  22.317  0.00  0.00    +0.000 A 
ATOM     22  C   UNL     1      -0.557   9.941  20.926  0.00  0.00    +0.000 A 
ATOM     23  C   UNL     1       0.395   9.171  20.233  0.00  0.00    +0.000 A 
BRANCH  21  24
ATOM     24  N   UNL     1      -1.442  10.881  22.993  0.00  0.00    +0.000 N 
ATOM     25  H   UNL     1      -1.761  10.495  23.875  0.00  0.00    +0.000 HD
BRANCH  24  26
ATOM     26  C   UNL     1      -1.744  12.241  22.781  0.00  0.00    +0.000 A 
ATOM     27  C   UNL     1      -0.730  13.186  22.611  0.00  0.00    +0.000 A 
ATOM     28  C   UNL     1      -1.065  14.523  22.490  0.00  0.00    +0.000 A 
ATOM     29  N   UNL     1      -2.332  14.981  22.529  0.00  0.00    +0.000 NA
ATOM     30  C   UNL     1      -3.300  14.056  22.706  0.00  0.00    +0.000 A 
ATOM     31  C   UNL     1      -3.061  12.695  22.836  0.00  0.00    +0.000 A 
ENDBRANCH  24  26
ENDBRANCH  21  24
ENDBRANCH   3  18
TORSDOF 4
ENDMDL
MODEL 4
REMARK VINA RESULT:      -8.5      1.266      1.334
REMARK  Name = 
REMARK  6 active torsions:
REMARK  status: ('A' for Active; 'I' for Inactive)
REMARK    1  A    between atoms: C_1  and  C_2
REMARK    2  A    between atoms: C_2  and  C_3
REMARK    3  A    between atoms: C_10  and  C_11
REMARK    4  A    between atoms: N_13  and  C_14
REMARK    5  A    between atoms: C_17  and  N_18
REMARK    6  A    between atoms: N_18  and  C_19
REMARK                            x       y       z     vdW  Elec       q    Type
REMARK                         _______ _______ _______ _____ _____    ______ ____
ROOT
ATOM      1  C   UNL     1       2.013   8.474  18.253  0.00  0.00    +0.000 C 
ATOM      2  O   UNL     1       2.236   9.408  17.485  0.00  0.00    +0.000 OA
ATOM      3  N   UNL     1       1.175   8.498  19.354  0.00  0.00    +0.000 N 
ATOM      4  H   UNL     1       1.208   7.717  19.996  0.00  0.00    +0.000 HD
ENDROOT
BRANCH   1  14
ATOM      5  C   UNL     1       1.395   2.973  18.338  0.00  0.00    +0.000 C 
ATOM      6  C   UNL     1       2.632   3.548  19.023  0.00  0.00    +0.000 C 
ATOM      7  C   UNL     1       2.466   3.603  20.543  0.00  0.00    +0.000 C 
ATOM      8  C   UNL     1       3.904   2.751  18.640  0.00  0.00    +0.000 C 
ATOM      9  O   UNL     1       4.124   1.571  18.865  0.00  0.00    +0.000 OA
ATOM     10  N   UNL     1       4.772   3.626  17.992  0.00  0.00    +0.000 N 
ATOM     11  C   UNL     1       4.233   4.899  17.890  0.00  0.00    +0.000 A 
ATOM     12  C   UNL     1       4.804   6.033  17.341  0.00  0.00    +0.000 A 
ATOM     13  C   UNL     1       4.071   7.233  17.404  0.00  0.00    +0.000 A 
ATOM     14  C   UNL     1       2.797   7.248  18.004  0.00  0.00    +0.000 A 
ATOM     15  C   UNL     1       2.236   6.072  18.525  0.00  0.00    +0.000 A 
ATOM     16  C   UNL     1       2.973   4.907  18.471  0.00  0.00    +0.000 A 
ATOM     17  H   UNL     1       5.682   3.337  17.665  0.00  0.00    +0.000 HD
ENDBRANCH   1  14
BRANCH   3  18
ATOM     18  C   UNL     1       0.511   9.671  19.795  0.00  0.00    +0.000 A 
ATOM     19  C   UNL     1       0.833  10.302  20.996  0.00  0.00    +0.000 A 
ATOM     20  C   UNL     1       0.065  11.356  21.482  0.00  0.00    +0.000 A 
ATOM     21  C   UNL     1      -1.031  11.842  20.769  0.00  0.00    +0.000 A 
ATOM     22  C   UNL     1      -1.307  11.261  19.525  0.00  0.00    +0.000 A 
ATOM     23  C   UNL     1      -0.542  10.187  19.037  0.00  0.00    +0.000 A 
BRANCH  21  24
ATOM     24  N   UNL     1      -1.788  12.935  21.231  0.00  0.00    +0.000 N 
ATOM     25  H   UNL     1      -1.629  13.798  20.723  0.00  0.00    +0.000 HD
BRANCH  24  26
ATOM     26  C   UNL     1      -2.931  12.917  22.055  0.00  0.00    +0.000 A 
ATOM     27  C   UNL     1      -2.836  12.596  23.411  0.00  0.00    +0.000 A 
ATOM     28  C   UNL     1      -3.991  12.507  24.167  0.00  0.00    +0.000 A 
ATOM     29  N   UNL     1      -5.227  12.710  23.668  0.00  0.00    +0.000 NA
ATOM     30  C   UNL     1      -5.302  13.007  22.354  0.00  0.00    +0.000 A 
ATOM     31  C   UNL     1      -4.200  13.120  21.517  0.00  0.00    +0.000 A 
ENDBRANCH  24  26
ENDBRANCH  21  24
ENDBRANCH   3  18
TORSDOF 4
ENDMDL
MODEL 5
REMARK VINA RESULT:      -8.5      7.443     11.237
REMARK  Name = 
REMARK  6 active torsions:
REMARK  status: ('A' for Active; 'I' for Inactive)
REMARK    1  A    between atoms: C_1  and  C_2
REMARK    2  A    between atoms: C_2  and  C_3
REMARK    3  A    between atoms: C_10  and  C_11
REMARK    4  A    between atoms: N_13  and  C_14
REMARK    5  A    between atoms: C_17  and  N_18
REMARK    6  A    between atoms: N_18  and  C_19
REMARK                            x       y       z     vdW  Elec       q    Type
REMARK                         _______ _______ _______ _____ _____    ______ ____
ROOT
ATOM      1  C   UNL     1       8.853   9.999  18.649  0.00  0.00    +0.000 C 
ATOM      2  O   UNL     1       8.994   9.621  19.811  0.00  0.00    +0.000 OA
ATOM      3  N   UNL     1       8.219   9.309  17.632  0.00  0.00    +0.000 N 
ATOM      4  H   UNL     1       8.316   9.655  16.686  0.00  0.00    +0.000 HD
ENDROOT
BRANCH   1  14
ATOM      5  C   UNL     1       8.506  15.386  19.883  0.00  0.00    +0.000 C 
ATOM      6  C   UNL     1       8.622  15.013  18.408  0.00  0.00    +0.000 C 
ATOM      7  C   UNL     1       7.268  15.075  17.698  0.00  0.00    +0.000 C 
ATOM      8  C   UNL     1       9.660  15.907  17.686  0.00  0.00    +0.000 C 
ATOM      9  O   UNL     1       9.611  17.119  17.547  0.00  0.00    +0.000 OA
ATOM     10  N   UNL     1      10.671  15.079  17.206  0.00  0.00    +0.000 N 
ATOM     11  C   UNL     1      10.439  13.750  17.527  0.00  0.00    +0.000 A 
ATOM     12  C   UNL     1      11.200  12.641  17.201  0.00  0.00    +0.000 A 
ATOM     13  C   UNL     1      10.723  11.379  17.600  0.00  0.00    +0.000 A 
ATOM     14  C   UNL     1       9.513  11.278  18.314  0.00  0.00    +0.000 A 
ATOM     15  C   UNL     1       8.782  12.426  18.653  0.00  0.00    +0.000 A 
ATOM     16  C   UNL     1       9.253  13.655  18.241  0.00  0.00    +0.000 A 
ATOM     17  H   UNL     1      11.455  15.436  16.680  0.00  0.00    +0.000 HD
ENDBRANCH   1  14
BRANCH   3  18
ATOM     18  C   UNL     1       7.707   7.996  17.790  0.00  0.00    +0.000 A 
ATOM     19  C   UNL     1       6.568   7.554  17.118  0.00  0.00    +0.000 A 
ATOM     20  C   UNL     1       5.997   6.318  17.408  0.00  0.00    +0.000 A 
ATOM     21  C   UNL     1       6.563   5.464  18.354  0.00  0.00    +0.000 A 
ATOM     22  C   UNL     1       7.751   5.872  18.972  0.00  0.00    +0.000 A 
ATOM     23  C   UNL     1       8.324   7.126  18.691  0.00  0.00    +0.000 A 
BRANCH  21  24
ATOM     24  N   UNL     1       6.018   4.194  18.623  0.00  0.00    +0.000 N 
ATOM     25  H   UNL     1       6.648   3.562  19.105  0.00  0.00    +0.000 HD
BRANCH  24  26
ATOM     26  C   UNL     1       4.663   3.807  18.609  0.00  0.00    +0.000 A 
ATOM     27  C   UNL     1       3.875   3.899  19.759  0.00  0.00    +0.000 A 
ATOM     28  C   UNL     1       2.575   3.431  19.727  0.00  0.00    +0.000 A 
ATOM     29  N   UNL     1       2.007   2.877  18.636  0.00  0.00    +0.000 NA
ATOM     30  C   UNL     1       2.785   2.785  17.537  0.00  0.00    +0.000 A 
ATOM     31  C   UNL     1       4.099   3.228  17.474  0.00  0.00    +0.000 A 
ENDBRANCH  24  26
ENDBRANCH  21  24
ENDBRANCH   3  18
TORSDOF 4
ENDMDL
MODEL 6
REMARK VINA RESULT:      -8.5      2.566      3.640
REMARK  Name = 
REMARK  6 active torsions:
REMARK  status: ('A' for Active; 'I' for Inactive)
REMARK    1  A    between atoms: C_1  and  C_2
REMARK    2  A    between atoms: C_2  and  C_3
REMARK    3  A    between atoms: C_10  and  C_11
REMARK    4  A    between atoms: N_13  and  C_14
REMARK    5  A    between atoms: C_17  and  N_18
REMARK    6  A    between atoms: N_18  and  C_19
REMARK                            x       y       z     vdW  Elec       q    Type
REMARK                         _______ _______ _______ _____ _____    ______ ____
ROOT
ATOM      1  C   UNL     1       2.039   6.163  20.104  0.00  0.00    +0.000 C 
ATOM      2  O   UNL     1       1.149   5.530  20.670  0.00  0.00    +0.000 OA
ATOM      3  N   UNL     1       2.209   7.536  20.122  0.00  0.00    +0.000 N 
ATOM      4  H   UNL     1       2.879   7.942  19.482  0.00  0.00    +0.000 HD
ENDROOT
BRANCH   1  14
ATOM      5  C   UNL     1       7.450   5.572  19.093  0.00  0.00    +0.000 C 
ATOM      6  C   UNL     1       6.521   5.675  17.886  0.00  0.00    +0.000 C 
ATOM      7  C   UNL     1       6.545   7.075  17.268  0.00  0.00    +0.000 C 
ATOM      8  C   UNL     1       6.864   4.601  16.824  0.00  0.00    +0.000 C 
ATOM      9  O   UNL     1       7.916   4.485  16.214  0.00  0.00    +0.000 OA
ATOM     10  N   UNL     1       5.748   3.782  16.675  0.00  0.00    +0.000 N 
ATOM     11  C   UNL     1       4.712   4.172  17.509  0.00  0.00    +0.000 A 
ATOM     12  C   UNL     1       3.447   3.624  17.623  0.00  0.00    +0.000 A 
ATOM     13  C   UNL     1       2.545   4.236  18.514  0.00  0.00    +0.000 A 
ATOM     14  C   UNL     1       2.947   5.361  19.258  0.00  0.00    +0.000 A 
ATOM     15  C   UNL     1       4.248   5.873  19.139  0.00  0.00    +0.000 A 
ATOM     16  C   UNL     1       5.116   5.274  18.251  0.00  0.00    +0.000 A 
ATOM     17  H   UNL     1       5.727   3.017  16.017  0.00  0.00    +0.000 HD
ENDBRANCH   1  14
BRANCH   3  18
ATOM     18  C   UNL     1       1.295   8.420  20.749  0.00  0.00    +0.000 A 
ATOM     19  C   UNL     1       0.466   9.274  20.023  0.00  0.00    +0.000 A 
ATOM     20  C   UNL     1      -0.305  10.241  20.661  0.00  0.00    +0.000 A 
ATOM     21  C   UNL     1      -0.305  10.365  22.051  0.00  0.00    +0.000 A 
ATOM     22  C   UNL     1       0.466   9.457  22.786  0.00  0.00    +0.000 A 
ATOM     23  C   UNL     1       1.257   8.487  22.144  0.00  0.00    +0.000 A 
BRANCH  21  24
ATOM     24  N   UNL     1      -1.114  11.311  22.708  0.00  0.00    +0.000 N 
ATOM     25  H   UNL     1      -1.301  11.097  23.682  0.00  0.00    +0.000 HD
BRANCH  24  26
ATOM     26  C   UNL     1      -1.417  12.627  22.307  0.00  0.00    +0.000 A 
ATOM     27  C   UNL     1      -0.474  13.651  22.425  0.00  0.00    +0.000 A 
ATOM     28  C   UNL     1      -0.837  14.945  22.099  0.00  0.00    +0.000 A 
ATOM     29  N   UNL     1      -2.068  15.290  21.671  0.00  0.00    +0.000 NA
ATOM     30  C   UNL     1      -2.971  14.291  21.574  0.00  0.00    +0.000 A 
ATOM     31  C   UNL     1      -2.699  12.964  21.877  0.00  0.00    +0.000 A 
ENDBRANCH  24  26
ENDBRANCH  21  24
ENDBRANCH   3  18
TORSDOF 4
ENDMDL
MODEL 7
REMARK VINA RESULT:      -8.5      2.347      3.427
REMARK  Name = 
REMARK  6 active torsions:
REMARK  status: ('A' for Active; 'I' for Inactive)
REMARK    1  A    between atoms: C_1  and  C_2
REMARK    2  A    between atoms: C_2  and  C_3
REMARK    3  A    between atoms: C_10  and  C_11
REMARK    4  A    between atoms: N_13  and  C_14
REMARK    5  A    between atoms: C_17  and  N_18
REMARK    6  A    between atoms: N_18  and  C_19
REMARK                            x       y       z     vdW  Elec       q    Type
REMARK                         _______ _______ _______ _____ _____    ______ ____
ROOT
ATOM      1  C   UNL     1       2.034   6.346  20.125  0.00  0.00    +0.000 C 
ATOM      2  O   UNL     1       1.158   5.740  20.739  0.00  0.00    +0.000 OA
ATOM      3  N   UNL     1       2.217   7.717  20.093  0.00  0.00    +0.000 N 
ATOM      4  H   UNL     1       2.869   8.096  19.419  0.00  0.00    +0.000 HD
ENDROOT
BRANCH   1  14
ATOM      5  C   UNL     1       7.414   5.528  19.104  0.00  0.00    +0.000 C 
ATOM      6  C   UNL     1       6.489   5.674  17.899  0.00  0.00    +0.000 C 
ATOM      7  C   UNL     1       6.572   7.073  17.285  0.00  0.00    +0.000 C 
ATOM      8  C   UNL     1       6.784   4.590  16.833  0.00  0.00    +0.000 C 
ATOM      9  O   UNL     1       7.829   4.431  16.221  0.00  0.00    +0.000 OA
ATOM     10  N   UNL     1       5.634   3.820  16.683  0.00  0.00    +0.000 N 
ATOM     11  C   UNL     1       4.617   4.250  17.520  0.00  0.00    +0.000 A 
ATOM     12  C   UNL     1       3.329   3.757  17.634  0.00  0.00    +0.000 A 
ATOM     13  C   UNL     1       2.456   4.404  18.527  0.00  0.00    +0.000 A 
ATOM     14  C   UNL     1       2.906   5.509  19.275  0.00  0.00    +0.000 A 
ATOM     15  C   UNL     1       4.228   5.965  19.156  0.00  0.00    +0.000 A 
ATOM     16  C   UNL     1       5.068   5.332  18.264  0.00  0.00    +0.000 A 
ATOM     17  H   UNL     1       5.579   3.058  16.023  0.00  0.00    +0.000 HD
ENDBRANCH   1  14
BRANCH   3  18
ATOM     18  C   UNL     1       1.333   8.630  20.722  0.00  0.00    +0.000 A 
ATOM     19  C   UNL     1       0.621   9.591  20.006  0.00  0.00    +0.000 A 
ATOM     20  C   UNL     1      -0.116  10.574  20.660  0.00  0.00    +0.000 A 
ATOM     21  C   UNL     1      -0.199  10.610  22.052  0.00  0.00    +0.000 A 
ATOM     22  C   UNL     1       0.451   9.599  22.770  0.00  0.00    +0.000 A 
ATOM     23  C   UNL     1       1.208   8.612  22.113  0.00  0.00    +0.000 A 
BRANCH  21  24
ATOM     24  N   UNL     1      -0.977  11.574  22.722  0.00  0.00    +0.000 N 
ATOM     25  H   UNL     1      -0.472  12.107  23.421  0.00  0.00    +0.000 HD
BRANCH  24  26
ATOM     26  C   UNL     1      -2.226  12.103  22.340  0.00  0.00    +0.000 A 
ATOM     27  C   UNL     1      -2.435  12.597  21.051  0.00  0.00    +0.000 A 
ATOM     28  C   UNL     1      -3.648  13.184  20.741  0.00  0.00    +0.000 A 
ATOM     29  N   UNL     1      -4.660  13.317  21.621  0.00  0.00    +0.000 NA
ATOM     30  C   UNL     1      -4.438  12.845  22.866  0.00  0.00    +0.000 A 
ATOM     31  C   UNL     1      -3.255  12.239  23.269  0.00  0.00    +0.000 A 
ENDBRANCH  24  26
ENDBRANCH  21  24
ENDBRANCH   3  18
TORSDOF 4
ENDMDL
MODEL 8
REMARK VINA RESULT:      -8.5      1.954      3.009
REMARK  Name = 
REMARK  6 active torsions:
REMARK  status: ('A' for Active; 'I' for Inactive)
REMARK    1  A    between atoms: C_1  and  C_2
REMARK    2  A    between atoms: C_2  and  C_3
REMARK    3  A    between atoms: C_10  and  C_11
REMARK    4  A    between atoms: N_13  and  C_14
REMARK    5  A    between atoms: C_17  and  N_18
REMARK    6  A    between atoms: N_18  and  C_19
REMARK                            x       y       z     vdW  Elec       q    Type
REMARK                         _______ _______ _______ _____ _____    ______ ____
ROOT
ATOM      1  C   UNL     1       2.191   8.164  18.413  0.00  0.00    +0.000 C 
ATOM      2  O   UNL     1       2.136   8.634  17.278  0.00  0.00    +0.000 OA
ATOM      3  N   UNL     1       1.450   8.573  19.508  0.00  0.00    +0.000 N 
ATOM      4  H   UNL     1       1.709   8.218  20.419  0.00  0.00    +0.000 HD
ENDROOT
BRANCH   1  14
ATOM      5  C   UNL     1       7.506   7.182  17.211  0.00  0.00    +0.000 C 
ATOM      6  C   UNL     1       6.511   6.054  16.952  0.00  0.00    +0.000 C 
ATOM      7  C   UNL     1       6.143   5.951  15.470  0.00  0.00    +0.000 C 
ATOM      8  C   UNL     1       7.050   4.701  17.478  0.00  0.00    +0.000 C 
ATOM      9  O   UNL     1       8.059   4.121  17.106  0.00  0.00    +0.000 OA
ATOM     10  N   UNL     1       6.171   4.247  18.457  0.00  0.00    +0.000 N 
ATOM     11  C   UNL     1       5.122   5.132  18.652  0.00  0.00    +0.000 A 
ATOM     12  C   UNL     1       4.045   5.012  19.513  0.00  0.00    +0.000 A 
ATOM     13  C   UNL     1       3.073   6.029  19.491  0.00  0.00    +0.000 A 
ATOM     14  C   UNL     1       3.220   7.125  18.619  0.00  0.00    +0.000 A 
ATOM     15  C   UNL     1       4.341   7.228  17.780  0.00  0.00    +0.000 A 
ATOM     16  C   UNL     1       5.277   6.216  17.800  0.00  0.00    +0.000 A 
ATOM     17  H   UNL     1       6.305   3.368  18.934  0.00  0.00    +0.000 HD
ENDBRANCH   1  14
BRANCH   3  18
ATOM     18  C   UNL     1       0.564   9.680  19.473  0.00  0.00    +0.000 A 
ATOM     19  C   UNL     1       0.566  10.667  20.457  0.00  0.00    +0.000 A 
ATOM     20  C   UNL     1      -0.414  11.654  20.486  0.00  0.00    +0.000 A 
ATOM     21  C   UNL     1      -1.410  11.714  19.511  0.00  0.00    +0.000 A 
ATOM     22  C   UNL     1      -1.366  10.771  18.477  0.00  0.00    +0.000 A 
ATOM     23  C   UNL     1      -0.385   9.763  18.452  0.00  0.00    +0.000 A 
BRANCH  21  24
ATOM     24  N   UNL     1      -2.380  12.734  19.506  0.00  0.00    +0.000 N 
ATOM     25  H   UNL     1      -2.211  13.469  18.828  0.00  0.00    +0.000 HD
BRANCH  24  26
ATOM     26  C   UNL     1      -3.674  12.708  20.064  0.00  0.00    +0.000 A 
ATOM     27  C   UNL     1      -3.890  13.059  21.398  0.00  0.00    +0.000 A 
ATOM     28  C   UNL     1      -5.161  12.940  21.931  0.00  0.00    +0.000 A 
ATOM     29  N   UNL     1      -6.224  12.494  21.233  0.00  0.00    +0.000 NA
ATOM     30  C   UNL     1      -5.996  12.148  19.949  0.00  0.00    +0.000 A 
ATOM     31  C   UNL     1      -4.758  12.234  19.327  0.00  0.00    +0.000 A 
ENDBRANCH  24  26
ENDBRANCH  21  24
ENDBRANCH   3  18
TORSDOF 4
ENDMDL
MODEL 9
REMARK VINA RESULT:      -8.5      2.652      3.914
REMARK  Name = 
REMARK  6 active torsions:
REMARK  status: ('A' for Active; 'I' for Inactive)
REMARK    1  A    between atoms: C_1  and  C_2
REMARK    2  A    between atoms: C_2  and  C_3
REMARK    3  A    between atoms: C_10  and  C_11
REMARK    4  A    between atoms: N_13  and  C_14
REMARK    5  A    between atoms: C_17  and  N_18
REMARK    6  A    between atoms: N_18  and  C_19
REMARK                            x       y       z     vdW  Elec       q    Type
REMARK                         _______ _______ _______ _____ _____    ______ ____
ROOT
ATOM      1  C   UNL     1       2.185   6.217  20.068  0.00  0.00    +0.000 C 
ATOM      2  O   UNL     1       1.220   5.595  20.509  0.00  0.00    +0.000 OA
ATOM      3  N   UNL     1       2.362   7.589  20.101  0.00  0.00    +0.000 N 
ATOM      4  H   UNL     1       3.118   7.986  19.558  0.00  0.00    +0.000 HD
ENDROOT
BRANCH   1  14
ATOM      5  C   UNL     1       6.975   6.840  17.361  0.00  0.00    +0.000 C 
ATOM      6  C   UNL     1       5.907   5.971  16.702  0.00  0.00    +0.000 C 
ATOM      7  C   UNL     1       5.168   6.725  15.593  0.00  0.00    +0.000 C 
ATOM      8  C   UNL     1       6.515   4.655  16.157  0.00  0.00    +0.000 C 
ATOM      9  O   UNL     1       7.373   4.547  15.295  0.00  0.00    +0.000 OA
ATOM     10  N   UNL     1       5.900   3.598  16.824  0.00  0.00    +0.000 N 
ATOM     11  C   UNL     1       4.969   4.048  17.747  0.00  0.00    +0.000 A 
ATOM     12  C   UNL     1       4.146   3.302  18.572  0.00  0.00    +0.000 A 
ATOM     13  C   UNL     1       3.237   3.996  19.392  0.00  0.00    +0.000 A 
ATOM     14  C   UNL     1       3.195   5.403  19.362  0.00  0.00    +0.000 A 
ATOM     15  C   UNL     1       4.065   6.129  18.534  0.00  0.00    +0.000 A 
ATOM     16  C   UNL     1       4.939   5.435  17.723  0.00  0.00    +0.000 A 
ATOM     17  H   UNL     1       6.121   2.634  16.622  0.00  0.00    +0.000 HD
ENDBRANCH   1  14
BRANCH   3  18
ATOM     18  C   UNL     1       1.378   8.485  20.590  0.00  0.00    +0.000 A 
ATOM     19  C   UNL     1       0.639   9.313  19.746  0.00  0.00    +0.000 A 
ATOM     20  C   UNL     1      -0.206  10.292  20.260  0.00  0.00    +0.000 A 
ATOM     21  C   UNL     1      -0.371  10.455  21.636  0.00  0.00    +0.000 A 
ATOM     22  C   UNL     1       0.309   9.572  22.483  0.00  0.00    +0.000 A 
ATOM     23  C   UNL     1       1.174   8.590  21.968  0.00  0.00    +0.000 A 
BRANCH  21  24
ATOM     24  N   UNL     1      -1.256  11.414  22.165  0.00  0.00    +0.000 N 
ATOM     25  H   UNL     1      -2.108  11.026  22.556  0.00  0.00    +0.000 HD
BRANCH  24  26
ATOM     26  C   UNL     1      -0.986  12.754  22.507  0.00  0.00    +0.000 A 
ATOM     27  C   UNL     1       0.060  13.455  21.903  0.00  0.00    +0.000 A 
ATOM     28  C   UNL     1       0.347  14.740  22.326  0.00  0.00    +0.000 A 
ATOM     29  N   UNL     1      -0.329  15.370  23.308  0.00  0.00    +0.000 NA
ATOM     30  C   UNL     1      -1.329  14.675  23.890  0.00  0.00    +0.000 A 
ATOM     31  C   UNL     1      -1.690  13.383  23.532  0.00  0.00    +0.000 A 
ENDBRANCH  24  26
ENDBRANCH  21  24
ENDBRANCH   3  18
TORSDOF 4
ENDMDL
