MODEL 1
REMARK VINA RESULT:      -9.2      0.000      0.000
REMARK  Name = 
REMARK  5 active torsions:
REMARK  status: ('A' for Active; 'I' for Inactive)
REMARK    1  A    between atoms: C_1  and  C_2
REMARK    2  A    between atoms: C_2  and  C_3
REMARK    3  A    between atoms: C_10  and  C_11
REMARK    4  A    between atoms: N_13  and  C_14
REMARK    5  A    between atoms: C_17  and  C_18
REMARK                            x       y       z     vdW  Elec       q    Type
REMARK                         _______ _______ _______ _____ _____    ______ ____
ROOT
ATOM      1  C   UNL     1       2.257   8.229  18.205  0.00  0.00    +0.000 C 
ATOM      2  O   UNL     1       2.077   8.610  17.045  0.00  0.00    +0.000 OA
ATOM      3  N   UNL     1       1.583   8.792  19.269  0.00  0.00    +0.000 N 
ATOM      4  H   UNL     1       1.735   8.471  20.213  0.00  0.00    +0.000 HD
ENDROOT
BRANCH   1  14
ATOM      5  C   UNL     1       7.543   7.129  17.396  0.00  0.00    +0.000 C 
ATOM      6  C   UNL     1       6.619   5.939  17.144  0.00  0.00    +0.000 C 
ATOM      7  C   UNL     1       6.329   5.692  15.664  0.00  0.00    +0.000 C 
ATOM      8  C   UNL     1       7.152   4.655  17.822  0.00  0.00    +0.000 C 
ATOM      9  O   UNL     1       8.206   4.079  17.584  0.00  0.00    +0.000 OA
ATOM     10  N   UNL     1       6.202   4.252  18.759  0.00  0.00    +0.000 N 
ATOM     11  C   UNL     1       5.124   5.119  18.790  0.00  0.00    +0.000 A 
ATOM     12  C   UNL     1       3.986   5.065  19.573  0.00  0.00    +0.000 A 
ATOM     13  C   UNL     1       3.026   6.077  19.404  0.00  0.00    +0.000 A 
ATOM     14  C   UNL     1       3.217   7.121  18.467  0.00  0.00    +0.000 A 
ATOM     15  C   UNL     1       4.383   7.142  17.698  0.00  0.00    +0.000 A 
ATOM     16  C   UNL     1       5.318   6.139  17.869  0.00  0.00    +0.000 A 
ATOM     17  H   UNL     1       6.321   3.425  19.325  0.00  0.00    +0.000 HD
ENDBRANCH   1  14
BRANCH   3  18
ATOM     18  C   UNL     1       0.659   9.881  19.027  0.00  0.00    +0.000 C 
ATOM     19  C   UNL     1       1.345  11.240  18.901  0.00  0.00    +0.000 C 
ATOM     20  C   UNL     1       0.255  12.269  19.203  0.00  0.00    +0.000 C 
ATOM     21  C   UNL     1      -0.917  11.497  19.854  0.00  0.00    +0.000 C 
ATOM     22  C   UNL     1      -0.348  10.099  20.147  0.00  0.00    +0.000 C 
BRANCH  21  23
ATOM     23  C   UNL     1      -2.174  11.482  18.992  0.00  0.00    +0.000 A 
ATOM     24  C   UNL     1      -2.168  10.995  17.671  0.00  0.00    +0.000 A 
ATOM     25  C   UNL     1      -3.296  11.090  16.859  0.00  0.00    +0.000 A 
ATOM     26  C   UNL     1      -4.459  11.641  17.372  0.00  0.00    +0.000 A 
ATOM     27  F   UNL     1      -5.537  11.755  16.584  0.00  0.00    +0.000 F 
ATOM     28  C   UNL     1      -4.516  12.083  18.687  0.00  0.00    +0.000 A 
ATOM     29  C   UNL     1      -3.377  12.006  19.497  0.00  0.00    +0.000 A 
ENDBRANCH  21  23
ENDBRANCH   3  18
TORSDOF 3
ENDMDL
MODEL 2
REMARK VINA RESULT:      -9.2      2.277      2.909
REMARK  Name = 
REMARK  5 active torsions:
REMARK  status: ('A' for Active; 'I' for Inactive)
REMARK    1  A    between atoms: C_1  and  C_2
REMARK    2  A    between atoms: C_2  and  C_3
REMARK    3  A    between atoms: C_10  and  C_11
REMARK    4  A    between atoms: N_13  and  C_14
REMARK    5  A    between atoms: C_17  and  C_18
REMARK                            x       y       z     vdW  Elec       q    Type
REMARK                         _______ _______ _______ _____ _____    ______ ____
ROOT
ATOM      1  C   UNL     1       2.014   7.390  19.725  0.00  0.00    +0.000 C 
ATOM      2  O   UNL     1       1.335   7.235  20.743  0.00  0.00    +0.000 OA
ATOM      3  N   UNL     1       1.834   8.470  18.886  0.00  0.00    +0.000 N 
ATOM      4  H   UNL     1       2.396   8.589  18.058  0.00  0.00    +0.000 HD
ENDROOT
BRANCH   1  14
ATOM      5  C   UNL     1       6.924   7.279  17.340  0.00  0.00    +0.000 C 
ATOM      6  C   UNL     1       6.036   6.091  16.980  0.00  0.00    +0.000 C 
ATOM      7  C   UNL     1       5.363   6.221  15.614  0.00  0.00    +0.000 C 
ATOM      8  C   UNL     1       6.808   4.754  17.088  0.00  0.00    +0.000 C 
ATOM      9  O   UNL     1       7.787   4.413  16.435  0.00  0.00    +0.000 OA
ATOM     10  N   UNL     1       6.178   3.986  18.065  0.00  0.00    +0.000 N 
ATOM     11  C   UNL     1       5.104   4.656  18.621  0.00  0.00    +0.000 A 
ATOM     12  C   UNL     1       4.231   4.236  19.608  0.00  0.00    +0.000 A 
ATOM     13  C   UNL     1       3.205   5.116  19.993  0.00  0.00    +0.000 A 
ATOM     14  C   UNL     1       3.070   6.393  19.396  0.00  0.00    +0.000 A 
ATOM     15  C   UNL     1       3.976   6.782  18.405  0.00  0.00    +0.000 A 
ATOM     16  C   UNL     1       4.977   5.906  18.030  0.00  0.00    +0.000 A 
ATOM     17  H   UNL     1       6.497   3.059  18.309  0.00  0.00    +0.000 HD
ENDBRANCH   1  14
BRANCH   3  18
ATOM     18  C   UNL     1       0.798   9.437  19.188  0.00  0.00    +0.000 C 
ATOM     19  C   UNL     1      -0.055   9.809  17.977  0.00  0.00    +0.000 C 
ATOM     20  C   UNL     1      -0.673  11.164  18.323  0.00  0.00    +0.000 C 
ATOM     21  C   UNL     1       0.113  11.715  19.536  0.00  0.00    +0.000 C 
ATOM     22  C   UNL     1       1.327  10.780  19.671  0.00  0.00    +0.000 C 
BRANCH  21  23
ATOM     23  C   UNL     1      -0.731  11.814  20.801  0.00  0.00    +0.000 A 
ATOM     24  C   UNL     1      -0.399  11.116  21.977  0.00  0.00    +0.000 A 
ATOM     25  C   UNL     1      -1.240  11.128  23.088  0.00  0.00    +0.000 A 
ATOM     26  C   UNL     1      -2.409  11.870  23.049  0.00  0.00    +0.000 A 
ATOM     27  F   UNL     1      -3.230  11.862  24.108  0.00  0.00    +0.000 F 
ATOM     28  C   UNL     1      -2.741  12.612  21.924  0.00  0.00    +0.000 A 
ATOM     29  C   UNL     1      -1.907  12.585  20.800  0.00  0.00    +0.000 A 
ENDBRANCH  21  23
ENDBRANCH   3  18
TORSDOF 3
ENDMDL
MODEL 3
REMARK VINA RESULT:      -9.1      3.774      9.489
REMARK  Name = 
REMARK  5 active torsions:
REMARK  status: ('A' for Active; 'I' for Inactive)
REMARK    1  A    between atoms: C_1  and  C_2
REMARK    2  A    between atoms: C_2  and  C_3
REMARK    3  A    between atoms: C_10  and  C_11
REMARK    4  A    between atoms: N_13  and  C_14
REMARK    5  A    between atoms: C_17  and  C_18
REMARK                            x       y       z     vdW  Elec       q    Type
REMARK                         _______ _______ _______ _____ _____    ______ ____
ROOT
ATOM      1  C   UNL     1       1.842   7.860  19.643  0.00  0.00    +0.000 C 
ATOM      2  O   UNL     1       2.154   8.269  18.522  0.00  0.00    +0.000 OA
ATOM      3  N   UNL     1       2.141   6.579  20.060  0.00  0.00    +0.000 N 
ATOM      4  H   UNL     1       1.884   6.255  20.979  0.00  0.00    +0.000 HD
ENDROOT
BRANCH   1  14
ATOM      5  C   UNL     1      -1.948  11.784  19.444  0.00  0.00    +0.000 C 
ATOM      6  C   UNL     1      -0.799  12.083  20.405  0.00  0.00    +0.000 C 
ATOM      7  C   UNL     1       0.243  13.044  19.833  0.00  0.00    +0.000 C 
ATOM      8  C   UNL     1      -1.320  12.587  21.771  0.00  0.00    +0.000 C 
ATOM      9  O   UNL     1      -1.963  13.607  21.985  0.00  0.00    +0.000 OA
ATOM     10  N   UNL     1      -0.913  11.668  22.738  0.00  0.00    +0.000 N 
ATOM     11  C   UNL     1      -0.207  10.621  22.174  0.00  0.00    +0.000 A 
ATOM     12  C   UNL     1       0.362   9.523  22.791  0.00  0.00    +0.000 A 
ATOM     13  C   UNL     1       1.041   8.596  21.983  0.00  0.00    +0.000 A 
ATOM     14  C   UNL     1       1.137   8.775  20.581  0.00  0.00    +0.000 A 
ATOM     15  C   UNL     1       0.543   9.896  19.996  0.00  0.00    +0.000 A 
ATOM     16  C   UNL     1      -0.117  10.804  20.801  0.00  0.00    +0.000 A 
ATOM     17  H   UNL     1      -1.127  11.788  23.718  0.00  0.00    +0.000 HD
ENDBRANCH   1  14
BRANCH   3  18
ATOM     18  C   UNL     1       2.812   5.675  19.149  0.00  0.00    +0.000 C 
ATOM     19  C   UNL     1       2.029   4.391  18.882  0.00  0.00    +0.000 C 
ATOM     20  C   UNL     1       3.069   3.381  18.396  0.00  0.00    +0.000 C 
ATOM     21  C   UNL     1       4.457   3.969  18.742  0.00  0.00    +0.000 C 
ATOM     22  C   UNL     1       4.155   5.169  19.656  0.00  0.00    +0.000 C 
BRANCH  21  23
ATOM     23  C   UNL     1       5.279   4.326  17.509  0.00  0.00    +0.000 A 
ATOM     24  C   UNL     1       4.737   4.277  16.210  0.00  0.00    +0.000 A 
ATOM     25  C   UNL     1       5.531   4.498  15.087  0.00  0.00    +0.000 A 
ATOM     26  C   UNL     1       6.871   4.808  15.249  0.00  0.00    +0.000 A 
ATOM     27  F   UNL     1       7.640   4.996  14.168  0.00  0.00    +0.000 F 
ATOM     28  C   UNL     1       7.425   4.917  16.518  0.00  0.00    +0.000 A 
ATOM     29  C   UNL     1       6.634   4.675  17.647  0.00  0.00    +0.000 A 
ENDBRANCH  21  23
ENDBRANCH   3  18
TORSDOF 3
ENDMDL
MODEL 4
REMARK VINA RESULT:      -9.1      3.753      9.422
REMARK  Name = 
REMARK  5 active torsions:
REMARK  status: ('A' for Active; 'I' for Inactive)
REMARK    1  A    between atoms: C_1  and  C_2
REMARK    2  A    between atoms: C_2  and  C_3
REMARK    3  A    between atoms: C_10  and  C_11
REMARK    4  A    between atoms: N_13  and  C_14
REMARK    5  A    between atoms: C_17  and  C_18
REMARK                            x       y       z     vdW  Elec       q    Type
REMARK                         _______ _______ _______ _____ _____    ______ ____
ROOT
ATOM      1  C   UNL     1       2.113   7.777  18.951  0.00  0.00    +0.000 C 
ATOM      2  O   UNL     1       2.555   8.258  17.904  0.00  0.00    +0.000 OA
ATOM      3  N   UNL     1       2.239   6.435  19.246  0.00  0.00    +0.000 N 
ATOM      4  H   UNL     1       1.877   6.053  20.105  0.00  0.00    +0.000 HD
ENDROOT
BRANCH   1  14
ATOM      5  C   UNL     1      -1.625  11.757  18.957  0.00  0.00    +0.000 C 
ATOM      6  C   UNL     1      -0.456  12.007  19.906  0.00  0.00    +0.000 C 
ATOM      7  C   UNL     1       0.589  12.973  19.350  0.00  0.00    +0.000 C 
ATOM      8  C   UNL     1      -0.946  12.469  21.299  0.00  0.00    +0.000 C 
ATOM      9  O   UNL     1      -1.571  13.489  21.559  0.00  0.00    +0.000 OA
ATOM     10  N   UNL     1      -0.535  11.512  22.225  0.00  0.00    +0.000 N 
ATOM     11  C   UNL     1       0.147  10.476  21.613  0.00  0.00    +0.000 A 
ATOM     12  C   UNL     1       0.711   9.349  22.181  0.00  0.00    +0.000 A 
ATOM     13  C   UNL     1       1.363   8.442  21.329  0.00  0.00    +0.000 A 
ATOM     14  C   UNL     1       1.437   8.669  19.933  0.00  0.00    +0.000 A 
ATOM     15  C   UNL     1       0.849   9.817  19.397  0.00  0.00    +0.000 A 
ATOM     16  C   UNL     1       0.215  10.706  20.245  0.00  0.00    +0.000 A 
ATOM     17  H   UNL     1      -0.730  11.600  23.212  0.00  0.00    +0.000 HD
ENDBRANCH   1  14
BRANCH   3  18
ATOM     18  C   UNL     1       2.880   5.557  18.290  0.00  0.00    +0.000 C 
ATOM     19  C   UNL     1       1.957   4.463  17.758  0.00  0.00    +0.000 C 
ATOM     20  C   UNL     1       2.889   3.366  17.243  0.00  0.00    +0.000 C 
ATOM     21  C   UNL     1       4.293   3.670  17.817  0.00  0.00    +0.000 C 
ATOM     22  C   UNL     1       4.058   4.777  18.857  0.00  0.00    +0.000 C 
BRANCH  21  23
ATOM     23  C   UNL     1       5.310   4.041  16.743  0.00  0.00    +0.000 A 
ATOM     24  C   UNL     1       6.555   4.617  17.061  0.00  0.00    +0.000 A 
ATOM     25  C   UNL     1       7.425   5.053  16.064  0.00  0.00    +0.000 A 
ATOM     26  C   UNL     1       7.078   4.884  14.734  0.00  0.00    +0.000 A 
ATOM     27  F   UNL     1       7.905   5.324  13.776  0.00  0.00    +0.000 F 
ATOM     28  C   UNL     1       5.882   4.271  14.386  0.00  0.00    +0.000 A 
ATOM     29  C   UNL     1       4.997   3.851  15.386  0.00  0.00    +0.000 A 
ENDBRANCH  21  23
ENDBRANCH   3  18
TORSDOF 3
ENDMDL
MODEL 5
REMARK VINA RESULT:      -8.8      2.716      3.841
REMARK  Name = 
REMARK  5 active torsions:
REMARK  status: ('A' for Active; 'I' for Inactive)
REMARK    1  A    between atoms: C_1  and  C_2
REMARK    2  A    between atoms: C_2  and  C_3
REMARK    3  A    between atoms: C_10  and  C_11
REMARK    4  A    between atoms: N_13  and  C_14
REMARK    5  A    between atoms: C_17  and  C_18
REMARK                            x       y       z     vdW  Elec       q    Type
REMARK                         _______ _______ _______ _____ _____    ______ ____
ROOT
ATOM      1  C   UNL     1       2.236   8.132  18.724  0.00  0.00    +0.000 C 
ATOM      2  O   UNL     1       2.185   9.072  17.926  0.00  0.00    +0.000 OA
ATOM      3  N   UNL     1       1.690   8.219  19.988  0.00  0.00    +0.000 N 
ATOM      4  H   UNL     1       1.734   7.444  20.631  0.00  0.00    +0.000 HD
ENDROOT
BRANCH   1  14
ATOM      5  C   UNL     1       1.117   2.788  18.688  0.00  0.00    +0.000 C 
ATOM      6  C   UNL     1       2.558   3.115  19.076  0.00  0.00    +0.000 C 
ATOM      7  C   UNL     1       2.814   3.063  20.581  0.00  0.00    +0.000 C 
ATOM      8  C   UNL     1       3.565   2.221  18.315  0.00  0.00    +0.000 C 
ATOM      9  O   UNL     1       3.665   1.002  18.382  0.00  0.00    +0.000 OA
ATOM     10  N   UNL     1       4.363   3.058  17.537  0.00  0.00    +0.000 N 
ATOM     11  C   UNL     1       3.994   4.383  17.680  0.00  0.00    +0.000 A 
ATOM     12  C   UNL     1       4.536   5.507  17.084  0.00  0.00    +0.000 A 
ATOM     13  C   UNL     1       3.977   6.754  17.408  0.00  0.00    +0.000 A 
ATOM     14  C   UNL     1       2.889   6.860  18.309  0.00  0.00    +0.000 A 
ATOM     15  C   UNL     1       2.366   5.700  18.885  0.00  0.00    +0.000 A 
ATOM     16  C   UNL     1       2.928   4.479  18.564  0.00  0.00    +0.000 A 
ATOM     17  H   UNL     1       5.107   2.703  16.954  0.00  0.00    +0.000 HD
ENDBRANCH   1  14
BRANCH   3  18
ATOM     18  C   UNL     1       1.066   9.457  20.407  0.00  0.00    +0.000 C 
ATOM     19  C   UNL     1       0.921   9.579  21.922  0.00  0.00    +0.000 C 
ATOM     20  C   UNL     1      -0.194  10.604  22.137  0.00  0.00    +0.000 C 
ATOM     21  C   UNL     1      -0.914  10.770  20.778  0.00  0.00    +0.000 C 
ATOM     22  C   UNL     1      -0.359   9.635  19.902  0.00  0.00    +0.000 C 
BRANCH  21  23
ATOM     23  C   UNL     1      -0.735  12.158  20.172  0.00  0.00    +0.000 A 
ATOM     24  C   UNL     1      -0.661  12.361  18.781  0.00  0.00    +0.000 A 
ATOM     25  C   UNL     1      -0.386  13.619  18.248  0.00  0.00    +0.000 A 
ATOM     26  C   UNL     1      -0.218  14.698  19.099  0.00  0.00    +0.000 A 
ATOM     27  F   UNL     1       0.070  15.902  18.588  0.00  0.00    +0.000 F 
ATOM     28  C   UNL     1      -0.337  14.543  20.474  0.00  0.00    +0.000 A 
ATOM     29  C   UNL     1      -0.593  13.276  21.012  0.00  0.00    +0.000 A 
ENDBRANCH  21  23
ENDBRANCH   3  18
TORSDOF 3
ENDMDL
MODEL 6
REMARK VINA RESULT:      -8.7      6.700      9.034
REMARK  Name = 
REMARK  5 active torsions:
REMARK  status: ('A' for Active; 'I' for Inactive)
REMARK    1  A    between atoms: C_1  and  C_2
REMARK    2  A    between atoms: C_2  and  C_3
REMARK    3  A    between atoms: C_10  and  C_11
REMARK    4  A    between atoms: N_13  and  C_14
REMARK    5  A    between atoms: C_17  and  C_18
REMARK                            x       y       z     vdW  Elec       q    Type
REMARK                         _______ _______ _______ _____ _____    ______ ____
ROOT
ATOM      1  C   UNL     1       7.848   8.507  17.963  0.00  0.00    +0.000 C 
ATOM      2  O   UNL     1       8.457   7.710  18.682  0.00  0.00    +0.000 OA
ATOM      3  N   UNL     1       6.789   8.111  17.172  0.00  0.00    +0.000 N 
ATOM      4  H   UNL     1       6.296   8.770  16.591  0.00  0.00    +0.000 HD
ENDROOT
BRANCH   1  14
ATOM      5  C   UNL     1      12.180  11.530  19.341  0.00  0.00    +0.000 C 
ATOM      6  C   UNL     1      10.841  12.165  19.711  0.00  0.00    +0.000 C 
ATOM      7  C   UNL     1      10.472  12.001  21.185  0.00  0.00    +0.000 C 
ATOM      8  C   UNL     1      10.785  13.653  19.292  0.00  0.00    +0.000 C 
ATOM      9  O   UNL     1      11.499  14.561  19.700  0.00  0.00    +0.000 OA
ATOM     10  N   UNL     1       9.755  13.787  18.363  0.00  0.00    +0.000 N 
ATOM     11  C   UNL     1       9.141  12.574  18.110  0.00  0.00    +0.000 A 
ATOM     12  C   UNL     1       8.087  12.291  17.262  0.00  0.00    +0.000 A 
ATOM     13  C   UNL     1       7.641  10.961  17.191  0.00  0.00    +0.000 A 
ATOM     14  C   UNL     1       8.253   9.939  17.958  0.00  0.00    +0.000 A 
ATOM     15  C   UNL     1       9.319  10.265  18.800  0.00  0.00    +0.000 A 
ATOM     16  C   UNL     1       9.746  11.578  18.866  0.00  0.00    +0.000 A 
ATOM     17  H   UNL     1       9.516  14.677  17.949  0.00  0.00    +0.000 HD
ENDBRANCH   1  14
BRANCH   3  18
ATOM     18  C   UNL     1       6.397   6.717  17.157  0.00  0.00    +0.000 C 
ATOM     19  C   UNL     1       7.416   5.809  16.470  0.00  0.00    +0.000 C 
ATOM     20  C   UNL     1       6.631   4.560  16.066  0.00  0.00    +0.000 C 
ATOM     21  C   UNL     1       5.131   4.919  16.184  0.00  0.00    +0.000 C 
ATOM     22  C   UNL     1       5.110   6.443  16.392  0.00  0.00    +0.000 C 
BRANCH  21  23
ATOM     23  C   UNL     1       4.414   4.139  17.280  0.00  0.00    +0.000 A 
ATOM     24  C   UNL     1       3.092   3.680  17.127  0.00  0.00    +0.000 A 
ATOM     25  C   UNL     1       2.413   3.067  18.179  0.00  0.00    +0.000 A 
ATOM     26  C   UNL     1       3.062   2.871  19.386  0.00  0.00    +0.000 A 
ATOM     27  F   UNL     1       2.402   2.303  20.404  0.00  0.00    +0.000 F 
ATOM     28  C   UNL     1       4.383   3.263  19.554  0.00  0.00    +0.000 A 
ATOM     29  C   UNL     1       5.060   3.898  18.506  0.00  0.00    +0.000 A 
ENDBRANCH  21  23
ENDBRANCH   3  18
TORSDOF 3
ENDMDL
MODEL 7
REMARK VINA RESULT:      -8.7      2.367      3.131
REMARK  Name = 
REMARK  5 active torsions:
REMARK  status: ('A' for Active; 'I' for Inactive)
REMARK    1  A    between atoms: C_1  and  C_2
REMARK    2  A    between atoms: C_2  and  C_3
REMARK    3  A    between atoms: C_10  and  C_11
REMARK    4  A    between atoms: N_13  and  C_14
REMARK    5  A    between atoms: C_17  and  C_18
REMARK                            x       y       z     vdW  Elec       q    Type
REMARK                         _______ _______ _______ _____ _____    ______ ____
ROOT
ATOM      1  C   UNL     1       2.070   7.604  19.608  0.00  0.00    +0.000 C 
ATOM      2  O   UNL     1       1.447   7.554  20.671  0.00  0.00    +0.000 OA
ATOM      3  N   UNL     1       1.879   8.625  18.699  0.00  0.00    +0.000 N 
ATOM      4  H   UNL     1       2.396   8.658  17.834  0.00  0.00    +0.000 HD
ENDROOT
BRANCH   1  14
ATOM      5  C   UNL     1       7.014   7.189  17.329  0.00  0.00    +0.000 C 
ATOM      6  C   UNL     1       6.061   6.059  16.946  0.00  0.00    +0.000 C 
ATOM      7  C   UNL     1       5.427   6.233  15.567  0.00  0.00    +0.000 C 
ATOM      8  C   UNL     1       6.745   4.677  17.067  0.00  0.00    +0.000 C 
ATOM      9  O   UNL     1       7.714   4.276  16.435  0.00  0.00    +0.000 OA
ATOM     10  N   UNL     1       6.047   3.948  18.029  0.00  0.00    +0.000 N 
ATOM     11  C   UNL     1       5.005   4.684  18.563  0.00  0.00    +0.000 A 
ATOM     12  C   UNL     1       4.087   4.318  19.529  0.00  0.00    +0.000 A 
ATOM     13  C   UNL     1       3.110   5.260  19.895  0.00  0.00    +0.000 A 
ATOM     14  C   UNL     1       3.068   6.543  19.299  0.00  0.00    +0.000 A 
ATOM     15  C   UNL     1       4.018   6.876  18.329  0.00  0.00    +0.000 A 
ATOM     16  C   UNL     1       4.970   5.940  17.973  0.00  0.00    +0.000 A 
ATOM     17  H   UNL     1       6.302   3.002  18.277  0.00  0.00    +0.000 HD
ENDBRANCH   1  14
BRANCH   3  18
ATOM     18  C   UNL     1       0.899   9.652  18.982  0.00  0.00    +0.000 C 
ATOM     19  C   UNL     1      -0.319   9.597  18.063  0.00  0.00    +0.000 C 
ATOM     20  C   UNL     1      -0.929  10.998  18.121  0.00  0.00    +0.000 C 
ATOM     21  C   UNL     1       0.136  11.921  18.758  0.00  0.00    +0.000 C 
ATOM     22  C   UNL     1       1.417  11.071  18.795  0.00  0.00    +0.000 C 
BRANCH  21  23
ATOM     23  C   UNL     1      -0.281  12.464  20.121  0.00  0.00    +0.000 A 
ATOM     24  C   UNL     1       0.411  13.517  20.749  0.00  0.00    +0.000 A 
ATOM     25  C   UNL     1       0.087  13.926  22.041  0.00  0.00    +0.000 A 
ATOM     26  C   UNL     1      -0.959  13.311  22.708  0.00  0.00    +0.000 A 
ATOM     27  F   UNL     1      -1.255  13.688  23.959  0.00  0.00    +0.000 F 
ATOM     28  C   UNL     1      -1.696  12.305  22.098  0.00  0.00    +0.000 A 
ATOM     29  C   UNL     1      -1.359  11.879  20.808  0.00  0.00    +0.000 A 
ENDBRANCH  21  23
ENDBRANCH   3  18
TORSDOF 3
ENDMDL
MODEL 8
REMARK VINA RESULT:      -8.5      1.419      2.822
REMARK  Name = 
REMARK  5 active torsions:
REMARK  status: ('A' for Active; 'I' for Inactive)
REMARK    1  A    between atoms: C_1  and  C_2
REMARK    2  A    between atoms: C_2  and  C_3
REMARK    3  A    between atoms: C_10  and  C_11
REMARK    4  A    between atoms: N_13  and  C_14
REMARK    5  A    between atoms: C_17  and  C_18
REMARK                            x       y       z     vdW  Elec       q    Type
REMARK                         _______ _______ _______ _____ _____    ______ ____
ROOT
ATOM      1  C   UNL     1       2.189   8.293  18.076  0.00  0.00    +0.000 C 
ATOM      2  O   UNL     1       2.078   8.843  16.978  0.00  0.00    +0.000 OA
ATOM      3  N   UNL     1       1.488   8.726  19.183  0.00  0.00    +0.000 N 
ATOM      4  H   UNL     1       1.584   8.267  20.075  0.00  0.00    +0.000 HD
ENDROOT
BRANCH   1  14
ATOM      5  C   UNL     1       1.791   2.899  18.823  0.00  0.00    +0.000 C 
ATOM      6  C   UNL     1       2.921   3.550  19.617  0.00  0.00    +0.000 C 
ATOM      7  C   UNL     1       2.578   3.791  21.086  0.00  0.00    +0.000 C 
ATOM      8  C   UNL     1       4.240   2.752  19.483  0.00  0.00    +0.000 C 
ATOM      9  O   UNL     1       4.445   1.601  19.848  0.00  0.00    +0.000 OA
ATOM     10  N   UNL     1       5.175   3.589  18.877  0.00  0.00    +0.000 N 
ATOM     11  C   UNL     1       4.631   4.826  18.583  0.00  0.00    +0.000 A 
ATOM     12  C   UNL     1       5.229   5.921  17.988  0.00  0.00    +0.000 A 
ATOM     13  C   UNL     1       4.449   7.076  17.807  0.00  0.00    +0.000 A 
ATOM     14  C   UNL     1       3.093   7.118  18.213  0.00  0.00    +0.000 A 
ATOM     15  C   UNL     1       2.524   5.987  18.806  0.00  0.00    +0.000 A 
ATOM     16  C   UNL     1       3.302   4.859  18.984  0.00  0.00    +0.000 A 
ATOM     17  H   UNL     1       6.122   3.292  18.692  0.00  0.00    +0.000 HD
ENDBRANCH   1  14
BRANCH   3  18
ATOM     18  C   UNL     1       0.618   9.878  19.064  0.00  0.00    +0.000 C 
ATOM     19  C   UNL     1       1.361  11.210  19.153  0.00  0.00    +0.000 C 
ATOM     20  C   UNL     1       0.301  12.234  19.559  0.00  0.00    +0.000 C 
ATOM     21  C   UNL     1      -0.926  11.432  20.054  0.00  0.00    +0.000 C 
ATOM     22  C   UNL     1      -0.425   9.983  20.168  0.00  0.00    +0.000 C 
BRANCH  21  23
ATOM     23  C   UNL     1      -2.147  11.592  19.155  0.00  0.00    +0.000 A 
ATOM     24  C   UNL     1      -3.350  12.154  19.623  0.00  0.00    +0.000 A 
ATOM     25  C   UNL     1      -4.490  12.191  18.823  0.00  0.00    +0.000 A 
ATOM     26  C   UNL     1      -4.431  11.699  17.529  0.00  0.00    +0.000 A 
ATOM     27  F   UNL     1      -5.534  11.713  16.768  0.00  0.00    +0.000 F 
ATOM     28  C   UNL     1      -3.246  11.187  17.019  0.00  0.00    +0.000 A 
ATOM     29  C   UNL     1      -2.105  11.130  17.828  0.00  0.00    +0.000 A 
ENDBRANCH  21  23
ENDBRANCH   3  18
TORSDOF 3
ENDMDL
MODEL 9
REMARK VINA RESULT:      -8.5      6.178      8.758
REMARK  Name = 
REMARK  5 active torsions:
REMARK  status: ('A' for Active; 'I' for Inactive)
REMARK    1  A    between atoms: C_1  and  C_2
REMARK    2  A    between atoms: C_2  and  C_3
REMARK    3  A    between atoms: C_10  and  C_11
REMARK    4  A    between atoms: N_13  and  C_14
REMARK    5  A    between atoms: C_17  and  C_18
REMARK                            x       y       z     vdW  Elec       q    Type
REMARK                         _______ _______ _______ _____ _____    ______ ____
ROOT
ATOM      1  C   UNL     1       8.412   9.260  18.303  0.00  0.00    +0.000 C 
ATOM      2  O   UNL     1       7.972  10.004  17.422  0.00  0.00    +0.000 OA
ATOM      3  N   UNL     1       9.315   9.703  19.247  0.00  0.00    +0.000 N 
ATOM      4  H   UNL     1       9.665   9.088  19.965  0.00  0.00    +0.000 HD
ENDROOT
BRANCH   1  14
ATOM      5  C   UNL     1       5.459   5.804  15.279  0.00  0.00    +0.000 C 
ATOM      6  C   UNL     1       5.189   5.698  16.778  0.00  0.00    +0.000 C 
ATOM      7  C   UNL     1       3.915   6.416  17.223  0.00  0.00    +0.000 C 
ATOM      8  C   UNL     1       5.184   4.225  17.249  0.00  0.00    +0.000 C 
ATOM      9  O   UNL     1       4.414   3.340  16.896  0.00  0.00    +0.000 OA
ATOM     10  N   UNL     1       6.217   4.078  18.173  0.00  0.00    +0.000 N 
ATOM     11  C   UNL     1       6.907   5.264  18.352  0.00  0.00    +0.000 A 
ATOM     12  C   UNL     1       7.984   5.528  19.177  0.00  0.00    +0.000 A 
ATOM     13  C   UNL     1       8.502   6.834  19.181  0.00  0.00    +0.000 A 
ATOM     14  C   UNL     1       7.944   7.847  18.363  0.00  0.00    +0.000 A 
ATOM     15  C   UNL     1       6.859   7.538  17.539  0.00  0.00    +0.000 A 
ATOM     16  C   UNL     1       6.354   6.251  17.548  0.00  0.00    +0.000 A 
ATOM     17  H   UNL     1       6.408   3.200  18.633  0.00  0.00    +0.000 HD
ENDBRANCH   1  14
BRANCH   3  18
ATOM     18  C   UNL     1       9.788  11.071  19.188  0.00  0.00    +0.000 C 
ATOM     19  C   UNL     1      11.268  11.185  18.827  0.00  0.00    +0.000 C 
ATOM     20  C   UNL     1      11.701  12.559  19.339  0.00  0.00    +0.000 C 
ATOM     21  C   UNL     1      10.589  13.047  20.298  0.00  0.00    +0.000 C 
ATOM     22  C   UNL     1       9.690  11.818  20.511  0.00  0.00    +0.000 C 
BRANCH  21  23
ATOM     23  C   UNL     1       9.845  14.271  19.778  0.00  0.00    +0.000 A 
ATOM     24  C   UNL     1       8.664  14.741  20.384  0.00  0.00    +0.000 A 
ATOM     25  C   UNL     1       7.935  15.791  19.830  0.00  0.00    +0.000 A 
ATOM     26  C   UNL     1       8.399  16.411  18.682  0.00  0.00    +0.000 A 
ATOM     27  F   UNL     1       7.686  17.405  18.136  0.00  0.00    +0.000 F 
ATOM     28  C   UNL     1       9.587  16.008  18.088  0.00  0.00    +0.000 A 
ATOM     29  C   UNL     1      10.310  14.939  18.631  0.00  0.00    +0.000 A 
ENDBRANCH  21  23
ENDBRANCH   3  18
TORSDOF 3
ENDMDL
