MODEL 1
REMARK VINA RESULT:      -8.8      0.000      0.000
REMARK  Name = 
REMARK  3 active torsions:
REMARK  status: ('A' for Active; 'I' for Inactive)
REMARK    1  A    between atoms: C_5  and  C_6
REMARK    2  A    between atoms: C_10  and  N_11
REMARK    3  A    between atoms: C_12  and  C_14
REMARK                            x       y       z     vdW  Elec       q    Type
REMARK                         _______ _______ _______ _____ _____    ______ ____
ROOT
ATOM      1  N   UNL     1       2.307   7.112  20.222  0.00  0.00    +0.000 N 
ATOM      2  C   UNL     1       1.869   5.800  20.382  0.00  0.00    +0.000 C 
ATOM      3  O   UNL     1       0.753   5.475  20.781  0.00  0.00    +0.000 OA
ATOM      4  H   UNL     1       3.187   7.230  19.725  0.00  0.00    +0.000 HD
ENDROOT
BRANCH   2   5
ATOM      5  C   UNL     1       2.815   4.749  19.997  0.00  0.00    +0.000 A 
ATOM      6  C   UNL     1       2.844   3.521  20.641  0.00  0.00    +0.000 A 
ATOM      7  S   UNL     1       4.070   2.534  19.992  0.00  0.00    +0.000 S 
ATOM      8  C   UNL     1       4.484   3.787  18.878  0.00  0.00    +0.000 A 
ATOM      9  N   UNL     1       5.473   3.556  17.988  0.00  0.00    +0.000 N 
ATOM     10  C   UNL     1       5.657   4.204  16.767  0.00  0.00    +0.000 A 
ATOM     11  C   UNL     1       5.158   5.469  16.492  0.00  0.00    +0.000 A 
ATOM     12  C   UNL     1       5.302   6.010  15.217  0.00  0.00    +0.000 A 
ATOM     13  C   UNL     1       5.976   5.282  14.253  0.00  0.00    +0.000 A 
ATOM     14  C   UNL     1       6.489   4.048  14.615  0.00  0.00    +0.000 A 
ATOM     15  N   UNL     1       6.347   3.500  15.842  0.00  0.00    +0.000 NA
ATOM     16  N   UNL     1       3.752   4.880  18.988  0.00  0.00    +0.000 NA
ATOM     17  H   UNL     1       5.885   2.629  17.945  0.00  0.00    +0.000 HD
ENDBRANCH   2   5
BRANCH   1  22
ATOM     18  C   UNL     1       0.080  10.100  19.818  0.00  0.00    +0.000 A 
ATOM     19  C   UNL     1      -0.180  10.415  21.158  0.00  0.00    +0.000 A 
ATOM     20  C   UNL     1       0.441   9.703  22.174  0.00  0.00    +0.000 A 
ATOM     21  C   UNL     1       1.297   8.646  21.865  0.00  0.00    +0.000 A 
ATOM     22  C   UNL     1       1.533   8.258  20.540  0.00  0.00    +0.000 A 
ATOM     23  C   UNL     1       0.958   9.027  19.518  0.00  0.00    +0.000 A 
BRANCH  18  28
ATOM     24  O   UNL     1      -2.508   9.870  16.002  0.00  0.00    +0.000 OA
ATOM     25  C   UNL     1      -2.069  10.404  17.006  0.00  0.00    +0.000 C 
ATOM     26  C   UNL     1      -2.734  11.492  17.806  0.00  0.00    +0.000 C 
ATOM     27  C   UNL     1      -1.953  11.486  19.118  0.00  0.00    +0.000 C 
ATOM     28  C   UNL     1      -0.585  10.922  18.740  0.00  0.00    +0.000 C 
ATOM     29  N   UNL     1      -0.850  10.129  17.578  0.00  0.00    +0.000 N 
ATOM     30  H   UNL     1      -0.193   9.492  17.146  0.00  0.00    +0.000 HD
ENDBRANCH  18  28
ENDBRANCH   1  22
TORSDOF 3
ENDMDL
MODEL 2
REMARK VINA RESULT:      -8.6      1.586      2.090
REMARK  Name = 
REMARK  3 active torsions:
REMARK  status: ('A' for Active; 'I' for Inactive)
REMARK    1  A    between atoms: C_5  and  C_6
REMARK    2  A    between atoms: C_10  and  N_11
REMARK    3  A    between atoms: C_12  and  C_14
REMARK                            x       y       z     vdW  Elec       q    Type
REMARK                         _______ _______ _______ _____ _____    ______ ____
ROOT
ATOM      1  N   UNL     1       1.554   8.630  18.935  0.00  0.00    +0.000 N 
ATOM      2  C   UNL     1       1.593   7.877  20.106  0.00  0.00    +0.000 C 
ATOM      3  O   UNL     1       1.130   8.234  21.187  0.00  0.00    +0.000 OA
ATOM      4  H   UNL     1       1.822   8.142  18.083  0.00  0.00    +0.000 HD
ENDROOT
BRANCH   2   5
ATOM      5  C   UNL     1       2.200   6.547  20.002  0.00  0.00    +0.000 A 
ATOM      6  C   UNL     1       1.792   5.493  20.807  0.00  0.00    +0.000 A 
ATOM      7  S   UNL     1       2.706   4.097  20.473  0.00  0.00    +0.000 S 
ATOM      8  C   UNL     1       3.582   4.964  19.263  0.00  0.00    +0.000 A 
ATOM      9  N   UNL     1       4.526   4.306  18.557  0.00  0.00    +0.000 N 
ATOM     10  C   UNL     1       5.007   4.652  17.295  0.00  0.00    +0.000 A 
ATOM     11  C   UNL     1       4.949   5.940  16.783  0.00  0.00    +0.000 A 
ATOM     12  C   UNL     1       5.364   6.188  15.476  0.00  0.00    +0.000 A 
ATOM     13  C   UNL     1       5.864   5.140  14.723  0.00  0.00    +0.000 A 
ATOM     14  C   UNL     1       5.937   3.893  15.318  0.00  0.00    +0.000 A 
ATOM     15  N   UNL     1       5.526   3.629  16.578  0.00  0.00    +0.000 NA
ATOM     16  N   UNL     1       3.217   6.224  19.121  0.00  0.00    +0.000 NA
ATOM     17  H   UNL     1       4.635   3.306  18.698  0.00  0.00    +0.000 HD
ENDBRANCH   2   5
BRANCH   1  22
ATOM     18  C   UNL     1      -0.867  11.411  18.263  0.00  0.00    +0.000 A 
ATOM     19  C   UNL     1      -0.187  12.493  18.835  0.00  0.00    +0.000 A 
ATOM     20  C   UNL     1       1.088  12.319  19.356  0.00  0.00    +0.000 A 
ATOM     21  C   UNL     1       1.679  11.056  19.345  0.00  0.00    +0.000 A 
ATOM     22  C   UNL     1       1.007   9.936  18.841  0.00  0.00    +0.000 A 
ATOM     23  C   UNL     1      -0.250  10.134  18.253  0.00  0.00    +0.000 A 
BRANCH  18  28
ATOM     24  O   UNL     1      -3.470  10.804  14.500  0.00  0.00    +0.000 OA
ATOM     25  C   UNL     1      -3.276  10.956  15.693  0.00  0.00    +0.000 C 
ATOM     26  C   UNL     1      -4.182  10.514  16.811  0.00  0.00    +0.000 C 
ATOM     27  C   UNL     1      -3.284  10.600  18.042  0.00  0.00    +0.000 C 
ATOM     28  C   UNL     1      -2.237  11.649  17.672  0.00  0.00    +0.000 C 
ATOM     29  N   UNL     1      -2.195  11.601  16.242  0.00  0.00    +0.000 N 
ATOM     30  H   UNL     1      -1.503  12.063  15.664  0.00  0.00    +0.000 HD
ENDBRANCH  18  28
ENDBRANCH   1  22
TORSDOF 3
ENDMDL
MODEL 3
REMARK VINA RESULT:      -8.5      2.544      4.099
REMARK  Name = 
REMARK  3 active torsions:
REMARK  status: ('A' for Active; 'I' for Inactive)
REMARK    1  A    between atoms: C_5  and  C_6
REMARK    2  A    between atoms: C_10  and  N_11
REMARK    3  A    between atoms: C_12  and  C_14
REMARK                            x       y       z     vdW  Elec       q    Type
REMARK                         _______ _______ _______ _____ _____    ______ ____
ROOT
ATOM      1  N   UNL     1       1.280   8.877  19.073  0.00  0.00    +0.000 N 
ATOM      2  C   UNL     1       2.206   8.932  18.034  0.00  0.00    +0.000 C 
ATOM      3  O   UNL     1       2.386   9.902  17.303  0.00  0.00    +0.000 OA
ATOM      4  H   UNL     1       1.359   8.078  19.698  0.00  0.00    +0.000 HD
ENDROOT
BRANCH   2   5
ATOM      5  C   UNL     1       3.043   7.743  17.848  0.00  0.00    +0.000 A 
ATOM      6  C   UNL     1       4.203   7.778  17.089  0.00  0.00    +0.000 A 
ATOM      7  S   UNL     1       4.930   6.239  17.035  0.00  0.00    +0.000 S 
ATOM      8  C   UNL     1       3.671   5.614  18.040  0.00  0.00    +0.000 A 
ATOM      9  N   UNL     1       3.723   4.315  18.403  0.00  0.00    +0.000 N 
ATOM     10  C   UNL     1       3.110   3.740  19.515  0.00  0.00    +0.000 A 
ATOM     11  C   UNL     1       1.998   4.286  20.140  0.00  0.00    +0.000 A 
ATOM     12  C   UNL     1       1.500   3.705  21.304  0.00  0.00    +0.000 A 
ATOM     13  C   UNL     1       2.109   2.564  21.796  0.00  0.00    +0.000 A 
ATOM     14  C   UNL     1       3.183   2.049  21.091  0.00  0.00    +0.000 A 
ATOM     15  N   UNL     1       3.690   2.606  19.970  0.00  0.00    +0.000 NA
ATOM     16  N   UNL     1       2.759   6.501  18.390  0.00  0.00    +0.000 NA
ATOM     17  H   UNL     1       4.540   3.767  18.146  0.00  0.00    +0.000 HD
ENDBRANCH   2   5
BRANCH   1  22
ATOM     18  C   UNL     1      -1.533  11.341  18.815  0.00  0.00    +0.000 A 
ATOM     19  C   UNL     1      -1.536  11.870  20.111  0.00  0.00    +0.000 A 
ATOM     20  C   UNL     1      -0.568  11.479  21.026  0.00  0.00    +0.000 A 
ATOM     21  C   UNL     1       0.388  10.529  20.668  0.00  0.00    +0.000 A 
ATOM     22  C   UNL     1       0.386   9.929  19.403  0.00  0.00    +0.000 A 
ATOM     23  C   UNL     1      -0.551  10.381  18.462  0.00  0.00    +0.000 A 
BRANCH  18  28
ATOM     24  O   UNL     1      -3.228  10.738  14.564  0.00  0.00    +0.000 OA
ATOM     25  C   UNL     1      -3.284  11.061  15.737  0.00  0.00    +0.000 C 
ATOM     26  C   UNL     1      -4.520  11.108  16.595  0.00  0.00    +0.000 C 
ATOM     27  C   UNL     1      -3.958  11.186  18.012  0.00  0.00    +0.000 C 
ATOM     28  C   UNL     1      -2.579  11.819  17.836  0.00  0.00    +0.000 C 
ATOM     29  N   UNL     1      -2.217  11.485  16.492  0.00  0.00    +0.000 N 
ATOM     30  H   UNL     1      -1.300  11.621  16.085  0.00  0.00    +0.000 HD
ENDBRANCH  18  28
ENDBRANCH   1  22
TORSDOF 3
ENDMDL
MODEL 4
REMARK VINA RESULT:      -8.3      1.720      2.162
REMARK  Name = 
REMARK  3 active torsions:
REMARK  status: ('A' for Active; 'I' for Inactive)
REMARK    1  A    between atoms: C_5  and  C_6
REMARK    2  A    between atoms: C_10  and  N_11
REMARK    3  A    between atoms: C_12  and  C_14
REMARK                            x       y       z     vdW  Elec       q    Type
REMARK                         _______ _______ _______ _____ _____    ______ ____
ROOT
ATOM      1  N   UNL     1       1.088   8.892  19.939  0.00  0.00    +0.000 N 
ATOM      2  C   UNL     1       1.825   8.398  18.866  0.00  0.00    +0.000 C 
ATOM      3  O   UNL     1       1.999   8.987  17.802  0.00  0.00    +0.000 OA
ATOM      4  H   UNL     1       1.171   8.375  20.812  0.00  0.00    +0.000 HD
ENDROOT
BRANCH   2   5
ATOM      5  C   UNL     1       2.466   7.094  19.065  0.00  0.00    +0.000 A 
ATOM      6  C   UNL     1       2.081   6.240  20.087  0.00  0.00    +0.000 A 
ATOM      7  S   UNL     1       3.032   4.828  20.076  0.00  0.00    +0.000 S 
ATOM      8  C   UNL     1       3.892   5.422  18.701  0.00  0.00    +0.000 A 
ATOM      9  N   UNL     1       4.856   4.646  18.161  0.00  0.00    +0.000 N 
ATOM     10  C   UNL     1       5.335   4.710  16.853  0.00  0.00    +0.000 A 
ATOM     11  C   UNL     1       5.246   5.847  16.063  0.00  0.00    +0.000 A 
ATOM     12  C   UNL     1       5.662   5.804  14.734  0.00  0.00    +0.000 A 
ATOM     13  C   UNL     1       6.191   4.627  14.237  0.00  0.00    +0.000 A 
ATOM     14  C   UNL     1       6.293   3.548  15.098  0.00  0.00    +0.000 A 
ATOM     15  N   UNL     1       5.882   3.566  16.385  0.00  0.00    +0.000 NA
ATOM     16  N   UNL     1       3.495   6.607  18.278  0.00  0.00    +0.000 NA
ATOM     17  H   UNL     1       4.989   3.707  18.524  0.00  0.00    +0.000 HD
ENDBRANCH   2   5
BRANCH   1  22
ATOM     18  C   UNL     1      -1.311  11.601  18.961  0.00  0.00    +0.000 A 
ATOM     19  C   UNL     1      -1.132  12.502  20.018  0.00  0.00    +0.000 A 
ATOM     20  C   UNL     1      -0.172  12.255  20.990  0.00  0.00    +0.000 A 
ATOM     21  C   UNL     1       0.591  11.089  20.937  0.00  0.00    +0.000 A 
ATOM     22  C   UNL     1       0.399  10.133  19.933  0.00  0.00    +0.000 A 
ATOM     23  C   UNL     1      -0.522  10.423  18.915  0.00  0.00    +0.000 A 
BRANCH  18  28
ATOM     24  O   UNL     1      -2.765  10.526  14.715  0.00  0.00    +0.000 OA
ATOM     25  C   UNL     1      -2.896  10.944  15.851  0.00  0.00    +0.000 C 
ATOM     26  C   UNL     1      -4.171  10.982  16.650  0.00  0.00    +0.000 C 
ATOM     27  C   UNL     1      -3.681  11.218  18.077  0.00  0.00    +0.000 C 
ATOM     28  C   UNL     1      -2.338  11.924  17.901  0.00  0.00    +0.000 C 
ATOM     29  N   UNL     1      -1.893  11.500  16.608  0.00  0.00    +0.000 N 
ATOM     30  H   UNL     1      -0.969  11.661  16.229  0.00  0.00    +0.000 HD
ENDBRANCH  18  28
ENDBRANCH   1  22
TORSDOF 3
ENDMDL
MODEL 5
REMARK VINA RESULT:      -8.3      6.066      7.747
REMARK  Name = 
REMARK  3 active torsions:
REMARK  status: ('A' for Active; 'I' for Inactive)
REMARK    1  A    between atoms: C_5  and  C_6
REMARK    2  A    between atoms: C_10  and  N_11
REMARK    3  A    between atoms: C_12  and  C_14
REMARK                            x       y       z     vdW  Elec       q    Type
REMARK                         _______ _______ _______ _____ _____    ______ ____
ROOT
ATOM      1  N   UNL     1       7.438   8.404  17.511  0.00  0.00    +0.000 N 
ATOM      2  C   UNL     1       7.504   7.088  17.961  0.00  0.00    +0.000 C 
ATOM      3  O   UNL     1       8.223   6.693  18.875  0.00  0.00    +0.000 OA
ATOM      4  H   UNL     1       6.679   8.617  16.866  0.00  0.00    +0.000 HD
ENDROOT
BRANCH   2   5
ATOM      5  C   UNL     1       6.608   6.132  17.304  0.00  0.00    +0.000 A 
ATOM      6  C   UNL     1       6.996   5.419  16.180  0.00  0.00    +0.000 A 
ATOM      7  S   UNL     1       5.728   4.423  15.635  0.00  0.00    +0.000 S 
ATOM      8  C   UNL     1       4.737   4.981  16.935  0.00  0.00    +0.000 A 
ATOM      9  N   UNL     1       3.492   4.472  17.059  0.00  0.00    +0.000 N 
ATOM     10  C   UNL     1       2.727   4.428  18.224  0.00  0.00    +0.000 A 
ATOM     11  C   UNL     1       2.914   5.294  19.292  0.00  0.00    +0.000 A 
ATOM     12  C   UNL     1       2.173   5.126  20.459  0.00  0.00    +0.000 A 
ATOM     13  C   UNL     1       1.233   4.113  20.516  0.00  0.00    +0.000 A 
ATOM     14  C   UNL     1       1.068   3.320  19.393  0.00  0.00    +0.000 A 
ATOM     15  N   UNL     1       1.787   3.457  18.257  0.00  0.00    +0.000 NA
ATOM     16  N   UNL     1       5.317   5.862  17.726  0.00  0.00    +0.000 NA
ATOM     17  H   UNL     1       3.207   3.720  16.438  0.00  0.00    +0.000 HD
ENDBRANCH   2   5
BRANCH   1  22
ATOM     18  C   UNL     1       8.865  11.836  17.997  0.00  0.00    +0.000 A 
ATOM     19  C   UNL     1       9.625  11.640  19.157  0.00  0.00    +0.000 A 
ATOM     20  C   UNL     1       9.731  10.374  19.716  0.00  0.00    +0.000 A 
ATOM     21  C   UNL     1       9.049   9.300  19.145  0.00  0.00    +0.000 A 
ATOM     22  C   UNL     1       8.227   9.466  18.024  0.00  0.00    +0.000 A 
ATOM     23  C   UNL     1       8.182  10.733  17.424  0.00  0.00    +0.000 A 
BRANCH  18  28
ATOM     24  O   UNL     1       6.585  15.849  18.075  0.00  0.00    +0.000 OA
ATOM     25  C   UNL     1       7.556  15.137  17.893  0.00  0.00    +0.000 C 
ATOM     26  C   UNL     1       9.000  15.562  17.939  0.00  0.00    +0.000 C 
ATOM     27  C   UNL     1       9.751  14.236  18.036  0.00  0.00    +0.000 C 
ATOM     28  C   UNL     1       8.805  13.220  17.397  0.00  0.00    +0.000 C 
ATOM     29  N   UNL     1       7.508  13.802  17.572  0.00  0.00    +0.000 N 
ATOM     30  H   UNL     1       6.630  13.329  17.396  0.00  0.00    +0.000 HD
ENDBRANCH  18  28
ENDBRANCH   1  22
TORSDOF 3
ENDMDL
MODEL 6
REMARK VINA RESULT:      -8.2      3.837      8.549
REMARK  Name = 
REMARK  3 active torsions:
REMARK  status: ('A' for Active; 'I' for Inactive)
REMARK    1  A    between atoms: C_5  and  C_6
REMARK    2  A    between atoms: C_10  and  N_11
REMARK    3  A    between atoms: C_12  and  C_14
REMARK                            x       y       z     vdW  Elec       q    Type
REMARK                         _______ _______ _______ _____ _____    ______ ____
ROOT
ATOM      1  N   UNL     1       2.101   8.463  18.192  0.00  0.00    +0.000 N 
ATOM      2  C   UNL     1       1.535   8.849  19.404  0.00  0.00    +0.000 C 
ATOM      3  O   UNL     1       1.677   8.252  20.468  0.00  0.00    +0.000 OA
ATOM      4  H   UNL     1       2.040   9.141  17.435  0.00  0.00    +0.000 HD
ENDROOT
BRANCH   2   5
ATOM      5  C   UNL     1       0.753  10.088  19.389  0.00  0.00    +0.000 A 
ATOM      6  C   UNL     1      -0.553  10.134  19.853  0.00  0.00    +0.000 A 
ATOM      7  S   UNL     1      -1.200  11.697  19.670  0.00  0.00    +0.000 S 
ATOM      8  C   UNL     1       0.298  12.234  18.999  0.00  0.00    +0.000 A 
ATOM      9  N   UNL     1       0.418  13.533  18.650  0.00  0.00    +0.000 N 
ATOM     10  C   UNL     1       1.606  14.252  18.528  0.00  0.00    +0.000 A 
ATOM     11  C   UNL     1       2.836  13.658  18.287  0.00  0.00    +0.000 A 
ATOM     12  C   UNL     1       3.992  14.435  18.272  0.00  0.00    +0.000 A 
ATOM     13  C   UNL     1       3.883  15.800  18.465  0.00  0.00    +0.000 A 
ATOM     14  C   UNL     1       2.617  16.328  18.651  0.00  0.00    +0.000 A 
ATOM     15  N   UNL     1       1.486  15.590  18.683  0.00  0.00    +0.000 NA
ATOM     16  N   UNL     1       1.225  11.299  18.913  0.00  0.00    +0.000 NA
ATOM     17  H   UNL     1      -0.343  14.170  18.867  0.00  0.00    +0.000 HD
ENDBRANCH   2   5
BRANCH   1  22
ATOM     18  C   UNL     1       3.169   4.870  18.260  0.00  0.00    +0.000 A 
ATOM     19  C   UNL     1       4.335   4.930  17.486  0.00  0.00    +0.000 A 
ATOM     20  C   UNL     1       4.803   6.152  17.024  0.00  0.00    +0.000 A 
ATOM     21  C   UNL     1       4.093   7.320  17.298  0.00  0.00    +0.000 A 
ATOM     22  C   UNL     1       2.889   7.296  18.012  0.00  0.00    +0.000 A 
ATOM     23  C   UNL     1       2.460   6.068  18.536  0.00  0.00    +0.000 A 
BRANCH  18  28
ATOM     24  O   UNL     1       1.659   2.620  21.996  0.00  0.00    +0.000 OA
ATOM     25  C   UNL     1       1.773   2.817  20.800  0.00  0.00    +0.000 C 
ATOM     26  C   UNL     1       0.817   2.374  19.724  0.00  0.00    +0.000 C 
ATOM     27  C   UNL     1       1.240   3.209  18.517  0.00  0.00    +0.000 C 
ATOM     28  C   UNL     1       2.712   3.527  18.777  0.00  0.00    +0.000 C 
ATOM     29  N   UNL     1       2.832   3.456  20.202  0.00  0.00    +0.000 N 
ATOM     30  H   UNL     1       3.640   3.755  20.733  0.00  0.00    +0.000 HD
ENDBRANCH  18  28
ENDBRANCH   1  22
TORSDOF 3
ENDMDL
MODEL 7
REMARK VINA RESULT:      -8.2      6.502      8.402
REMARK  Name = 
REMARK  3 active torsions:
REMARK  status: ('A' for Active; 'I' for Inactive)
REMARK    1  A    between atoms: C_5  and  C_6
REMARK    2  A    between atoms: C_10  and  N_11
REMARK    3  A    between atoms: C_12  and  C_14
REMARK                            x       y       z     vdW  Elec       q    Type
REMARK                         _______ _______ _______ _____ _____    ______ ____
ROOT
ATOM      1  N   UNL     1       7.569   8.468  17.607  0.00  0.00    +0.000 N 
ATOM      2  C   UNL     1       7.578   7.144  18.041  0.00  0.00    +0.000 C 
ATOM      3  O   UNL     1       8.270   6.710  18.958  0.00  0.00    +0.000 OA
ATOM      4  H   UNL     1       6.827   8.718  16.957  0.00  0.00    +0.000 HD
ENDROOT
BRANCH   2   5
ATOM      5  C   UNL     1       6.652   6.233  17.362  0.00  0.00    +0.000 A 
ATOM      6  C   UNL     1       7.006   5.565  16.199  0.00  0.00    +0.000 A 
ATOM      7  S   UNL     1       5.710   4.615  15.637  0.00  0.00    +0.000 S 
ATOM      8  C   UNL     1       4.755   5.130  16.981  0.00  0.00    +0.000 A 
ATOM      9  N   UNL     1       3.505   4.636  17.109  0.00  0.00    +0.000 N 
ATOM     10  C   UNL     1       2.763   4.553  18.286  0.00  0.00    +0.000 A 
ATOM     11  C   UNL     1       2.986   5.367  19.387  0.00  0.00    +0.000 A 
ATOM     12  C   UNL     1       2.266   5.160  20.562  0.00  0.00    +0.000 A 
ATOM     13  C   UNL     1       1.311   4.160  20.593  0.00  0.00    +0.000 A 
ATOM     14  C   UNL     1       1.109   3.421  19.441  0.00  0.00    +0.000 A 
ATOM     15  N   UNL     1       1.807   3.596  18.297  0.00  0.00    +0.000 NA
ATOM     16  N   UNL     1       5.366   5.966  17.798  0.00  0.00    +0.000 NA
ATOM     17  H   UNL     1       3.195   3.917  16.462  0.00  0.00    +0.000 HD
ENDBRANCH   2   5
BRANCH   1  22
ATOM     18  C   UNL     1       9.368  11.737  17.966  0.00  0.00    +0.000 A 
ATOM     19  C   UNL     1       9.855  11.624  19.274  0.00  0.00    +0.000 A 
ATOM     20  C   UNL     1       9.663  10.452  19.991  0.00  0.00    +0.000 A 
ATOM     21  C   UNL     1       8.952   9.395  19.424  0.00  0.00    +0.000 A 
ATOM     22  C   UNL     1       8.394   9.491  18.144  0.00  0.00    +0.000 A 
ATOM     23  C   UNL     1       8.652  10.651  17.399  0.00  0.00    +0.000 A 
BRANCH  18  28
ATOM     24  O   UNL     1       9.836  16.310  18.384  0.00  0.00    +0.000 OA
ATOM     25  C   UNL     1      10.022  15.226  17.859  0.00  0.00    +0.000 C 
ATOM     26  C   UNL     1      11.190  14.841  16.991  0.00  0.00    +0.000 C 
ATOM     27  C   UNL     1      11.106  13.317  16.951  0.00  0.00    +0.000 C 
ATOM     28  C   UNL     1       9.630  13.014  17.204  0.00  0.00    +0.000 C 
ATOM     29  N   UNL     1       9.167  14.154  17.935  0.00  0.00    +0.000 N 
ATOM     30  H   UNL     1       8.267  14.224  18.394  0.00  0.00    +0.000 HD
ENDBRANCH  18  28
ENDBRANCH   1  22
TORSDOF 3
ENDMDL
MODEL 8
REMARK VINA RESULT:      -8.2      3.515      8.586
REMARK  Name = 
REMARK  3 active torsions:
REMARK  status: ('A' for Active; 'I' for Inactive)
REMARK    1  A    between atoms: C_5  and  C_6
REMARK    2  A    between atoms: C_10  and  N_11
REMARK    3  A    between atoms: C_12  and  C_14
REMARK                            x       y       z     vdW  Elec       q    Type
REMARK                         _______ _______ _______ _____ _____    ______ ____
ROOT
ATOM      1  N   UNL     1       1.772   6.637  20.690  0.00  0.00    +0.000 N 
ATOM      2  C   UNL     1       1.725   7.827  19.969  0.00  0.00    +0.000 C 
ATOM      3  O   UNL     1       2.136   7.970  18.820  0.00  0.00    +0.000 OA
ATOM      4  H   UNL     1       1.244   6.622  21.560  0.00  0.00    +0.000 HD
ENDROOT
BRANCH   2   5
ATOM      5  C   UNL     1       1.096   8.968  20.640  0.00  0.00    +0.000 A 
ATOM      6  C   UNL     1       0.469   8.837  21.870  0.00  0.00    +0.000 A 
ATOM      7  S   UNL     1      -0.192  10.325  22.367  0.00  0.00    +0.000 S 
ATOM      8  C   UNL     1       0.407  11.067  20.927  0.00  0.00    +0.000 A 
ATOM      9  N   UNL     1       0.198  12.389  20.750  0.00  0.00    +0.000 N 
ATOM     10  C   UNL     1       0.943  13.245  19.940  0.00  0.00    +0.000 A 
ATOM     11  C   UNL     1       1.693  12.810  18.857  0.00  0.00    +0.000 A 
ATOM     12  C   UNL     1       2.486  13.713  18.154  0.00  0.00    +0.000 A 
ATOM     13  C   UNL     1       2.482  15.043  18.532  0.00  0.00    +0.000 A 
ATOM     14  C   UNL     1       1.672  15.412  19.592  0.00  0.00    +0.000 A 
ATOM     15  N   UNL     1       0.906  14.549  20.296  0.00  0.00    +0.000 NA
ATOM     16  N   UNL     1       1.058  10.250  20.121  0.00  0.00    +0.000 NA
ATOM     17  H   UNL     1      -0.230  12.922  21.502  0.00  0.00    +0.000 HD
ENDBRANCH   2   5
BRANCH   1  22
ATOM     18  C   UNL     1       4.284   4.198  19.352  0.00  0.00    +0.000 A 
ATOM     19  C   UNL     1       3.559   3.003  19.438  0.00  0.00    +0.000 A 
ATOM     20  C   UNL     1       2.234   3.020  19.850  0.00  0.00    +0.000 A 
ATOM     21  C   UNL     1       1.632   4.223  20.217  0.00  0.00    +0.000 A 
ATOM     22  C   UNL     1       2.341   5.430  20.206  0.00  0.00    +0.000 A 
ATOM     23  C   UNL     1       3.657   5.415  19.721  0.00  0.00    +0.000 A 
BRANCH  18  28
ATOM     24  O   UNL     1       6.988   4.735  15.650  0.00  0.00    +0.000 OA
ATOM     25  C   UNL     1       6.742   4.725  16.843  0.00  0.00    +0.000 C 
ATOM     26  C   UNL     1       7.471   5.493  17.913  0.00  0.00    +0.000 C 
ATOM     27  C   UNL     1       6.520   5.418  19.105  0.00  0.00    +0.000 C 
ATOM     28  C   UNL     1       5.712   4.144  18.862  0.00  0.00    +0.000 C 
ATOM     29  N   UNL     1       5.762   3.972  17.442  0.00  0.00    +0.000 N 
ATOM     30  H   UNL     1       5.209   3.306  16.917  0.00  0.00    +0.000 HD
ENDBRANCH  18  28
ENDBRANCH   1  22
TORSDOF 3
ENDMDL
MODEL 9
REMARK VINA RESULT:      -8.1      3.367      8.929
REMARK  Name = 
REMARK  3 active torsions:
REMARK  status: ('A' for Active; 'I' for Inactive)
REMARK    1  A    between atoms: C_5  and  C_6
REMARK    2  A    between atoms: C_10  and  N_11
REMARK    3  A    between atoms: C_12  and  C_14
REMARK                            x       y       z     vdW  Elec       q    Type
REMARK                         _______ _______ _______ _____ _____    ______ ____
ROOT
ATOM      1  N   UNL     1       1.683   6.568  20.584  0.00  0.00    +0.000 N 
ATOM      2  C   UNL     1       1.592   7.877  20.116  0.00  0.00    +0.000 C 
ATOM      3  O   UNL     1       2.002   8.262  19.023  0.00  0.00    +0.000 OA
ATOM      4  H   UNL     1       1.153   6.360  21.428  0.00  0.00    +0.000 HD
ENDROOT
BRANCH   2   5
ATOM      5  C   UNL     1       0.916   8.835  20.995  0.00  0.00    +0.000 A 
ATOM      6  C   UNL     1       0.755   8.595  22.351  0.00  0.00    +0.000 A 
ATOM      7  S   UNL     1      -0.096   9.871  23.088  0.00  0.00    +0.000 S 
ATOM      8  C   UNL     1      -0.190  10.682  21.566  0.00  0.00    +0.000 A 
ATOM      9  N   UNL     1      -0.791  11.890  21.517  0.00  0.00    +0.000 N 
ATOM     10  C   UNL     1      -0.589  12.878  20.554  0.00  0.00    +0.000 A 
ATOM     11  C   UNL     1      -0.119  12.612  19.277  0.00  0.00    +0.000 A 
ATOM     12  C   UNL     1       0.147  13.664  18.402  0.00  0.00    +0.000 A 
ATOM     13  C   UNL     1      -0.099  14.959  18.819  0.00  0.00    +0.000 A 
ATOM     14  C   UNL     1      -0.614  15.144  20.090  0.00  0.00    +0.000 A 
ATOM     15  N   UNL     1      -0.865  14.139  20.958  0.00  0.00    +0.000 NA
ATOM     16  N   UNL     1       0.378  10.036  20.566  0.00  0.00    +0.000 NA
ATOM     17  H   UNL     1      -1.095  12.321  22.385  0.00  0.00    +0.000 HD
ENDBRANCH   2   5
BRANCH   1  22
ATOM     18  C   UNL     1       4.339   4.380  19.099  0.00  0.00    +0.000 A 
ATOM     19  C   UNL     1       3.567   3.299  18.653  0.00  0.00    +0.000 A 
ATOM     20  C   UNL     1       2.185   3.337  18.766  0.00  0.00    +0.000 A 
ATOM     21  C   UNL     1       1.562   4.434  19.358  0.00  0.00    +0.000 A 
ATOM     22  C   UNL     1       2.300   5.505  19.875  0.00  0.00    +0.000 A 
ATOM     23  C   UNL     1       3.691   5.493  19.693  0.00  0.00    +0.000 A 
BRANCH  18  28
ATOM     24  O   UNL     1       7.755   4.658  16.009  0.00  0.00    +0.000 OA
ATOM     25  C   UNL     1       7.265   4.747  17.120  0.00  0.00    +0.000 C 
ATOM     26  C   UNL     1       7.748   5.623  18.245  0.00  0.00    +0.000 C 
ATOM     27  C   UNL     1       6.569   5.629  19.214  0.00  0.00    +0.000 C 
ATOM     28  C   UNL     1       5.838   4.319  18.924  0.00  0.00    +0.000 C 
ATOM     29  N   UNL     1       6.186   4.024  17.567  0.00  0.00    +0.000 N 
ATOM     30  H   UNL     1       5.760   3.301  17.002  0.00  0.00    +0.000 HD
ENDBRANCH  18  28
ENDBRANCH   1  22
TORSDOF 3
ENDMDL
