MODEL 1
REMARK VINA RESULT:      -9.4      0.000      0.000
REMARK  Name = 
REMARK  3 active torsions:
REMARK  status: ('A' for Active; 'I' for Inactive)
REMARK    1  A    between atoms: C_8  and  N_9
REMARK    2  A    between atoms: C_10  and  C_12
REMARK    3  A    between atoms: C_14  and  C_15
REMARK                            x       y       z     vdW  Elec       q    Type
REMARK                         _______ _______ _______ _____ _____    ______ ____
ROOT
ATOM      1  N   UNL     1       1.698   8.902  18.545  0.00  0.00    +0.000 N 
ATOM      2  C   UNL     1       1.944   8.007  19.576  0.00  0.00    +0.000 C 
ATOM      3  O   UNL     1       1.615   8.161  20.747  0.00  0.00    +0.000 OA
ATOM      4  H   UNL     1       1.950   8.556  17.623  0.00  0.00    +0.000 HD
ENDROOT
BRANCH   1  12
ATOM      5  O   UNL     1       2.070  15.986  18.961  0.00  0.00    +0.000 OA
ATOM      6  C   UNL     1       1.389  14.967  18.865  0.00  0.00    +0.000 C 
ATOM      7  C   UNL     1      -0.114  14.988  18.600  0.00  0.00    +0.000 C 
ATOM      8  O   UNL     1      -0.889  13.840  18.901  0.00  0.00    +0.000 OA
ATOM      9  C   UNL     1      -0.206  12.661  18.810  0.00  0.00    +0.000 A 
ATOM     10  C   UNL     1      -0.974  11.508  18.758  0.00  0.00    +0.000 A 
ATOM     11  C   UNL     1      -0.355  10.261  18.680  0.00  0.00    +0.000 A 
ATOM     12  C   UNL     1       1.041  10.144  18.665  0.00  0.00    +0.000 A 
ATOM     13  C   UNL     1       1.814  11.308  18.772  0.00  0.00    +0.000 A 
ATOM     14  C   UNL     1       1.188  12.560  18.827  0.00  0.00    +0.000 A 
ATOM     15  N   UNL     1       1.958  13.723  18.909  0.00  0.00    +0.000 N 
ATOM     16  H   UNL     1       2.964  13.682  19.007  0.00  0.00    +0.000 HD
ENDBRANCH   1  12
BRANCH   2  17
ATOM     17  C   UNL     1       2.623   6.782  19.122  0.00  0.00    +0.000 A 
ATOM     18  N   UNL     1       3.579   6.783  18.124  0.00  0.00    +0.000 NA
ATOM     19  C   UNL     1       3.988   5.530  17.983  0.00  0.00    +0.000 A 
ATOM     20  N   UNL     1       3.323   4.711  18.892  0.00  0.00    +0.000 N 
ATOM     21  C   UNL     1       2.425   5.491  19.593  0.00  0.00    +0.000 A 
ATOM     22  C   UNL     1       1.472   4.996  20.639  0.00  0.00    +0.000 C 
ATOM     23  C   UNL     1       0.829   3.662  20.276  0.00  0.00    +0.000 C 
ATOM     24  C   UNL     1       1.703   2.458  20.613  0.00  0.00    +0.000 C 
ATOM     25  C   UNL     1       3.201   2.672  20.410  0.00  0.00    +0.000 C 
ATOM     26  C   UNL     1       3.547   3.282  19.057  0.00  0.00    +0.000 C 
BRANCH  19  27
ATOM     27  C   UNL     1       5.053   5.123  17.049  0.00  0.00    +0.000 A 
ATOM     28  C   UNL     1       4.709   4.820  15.723  0.00  0.00    +0.000 A 
ATOM     29  C   UNL     1       5.687   4.481  14.783  0.00  0.00    +0.000 A 
ATOM     30  C   UNL     1       7.027   4.441  15.156  0.00  0.00    +0.000 A 
ATOM     31  C   UNL     1       7.385   4.702  16.476  0.00  0.00    +0.000 A 
ATOM     32  C   UNL     1       6.402   5.016  17.420  0.00  0.00    +0.000 A 
ENDBRANCH  19  27
ENDBRANCH   2  17
TORSDOF 3
ENDMDL
MODEL 2
REMARK VINA RESULT:      -9.3      2.194      2.334
REMARK  Name = 
REMARK  3 active torsions:
REMARK  status: ('A' for Active; 'I' for Inactive)
REMARK    1  A    between atoms: C_8  and  N_9
REMARK    2  A    between atoms: C_10  and  C_12
REMARK    3  A    between atoms: C_14  and  C_15
REMARK                            x       y       z     vdW  Elec       q    Type
REMARK                         _______ _______ _______ _____ _____    ______ ____
ROOT
ATOM      1  N   UNL     1       1.505   8.087  20.835  0.00  0.00    +0.000 N 
ATOM      2  C   UNL     1       1.799   8.011  19.482  0.00  0.00    +0.000 C 
ATOM      3  O   UNL     1       1.521   8.863  18.644  0.00  0.00    +0.000 OA
ATOM      4  H   UNL     1       1.906   7.337  21.392  0.00  0.00    +0.000 HD
ENDROOT
BRANCH   1  12
ATOM      5  O   UNL     1      -0.103  15.001  21.166  0.00  0.00    +0.000 OA
ATOM      6  C   UNL     1      -0.272  13.856  21.578  0.00  0.00    +0.000 C 
ATOM      7  C   UNL     1      -1.372  13.477  22.567  0.00  0.00    +0.000 C 
ATOM      8  O   UNL     1      -1.263  12.268  23.298  0.00  0.00    +0.000 OA
ATOM      9  C   UNL     1      -0.568  11.284  22.656  0.00  0.00    +0.000 A 
ATOM     10  C   UNL     1      -0.716  10.000  23.157  0.00  0.00    +0.000 A 
ATOM     11  C   UNL     1      -0.029   8.938  22.569  0.00  0.00    +0.000 A 
ATOM     12  C   UNL     1       0.828   9.144  21.479  0.00  0.00    +0.000 A 
ATOM     13  C   UNL     1       1.016  10.450  21.010  0.00  0.00    +0.000 A 
ATOM     14  C   UNL     1       0.306  11.511  21.589  0.00  0.00    +0.000 A 
ATOM     15  N   UNL     1       0.475  12.811  21.106  0.00  0.00    +0.000 N 
ATOM     16  H   UNL     1       1.159  13.021  20.392  0.00  0.00    +0.000 HD
ENDBRANCH   1  12
BRANCH   2  17
ATOM     17  C   UNL     1       2.543   6.793  19.124  0.00  0.00    +0.000 A 
ATOM     18  N   UNL     1       3.550   6.782  18.178  0.00  0.00    +0.000 NA
ATOM     19  C   UNL     1       4.009   5.540  18.120  0.00  0.00    +0.000 A 
ATOM     20  N   UNL     1       3.326   4.741  19.033  0.00  0.00    +0.000 N 
ATOM     21  C   UNL     1       2.366   5.520  19.647  0.00  0.00    +0.000 A 
ATOM     22  C   UNL     1       1.376   5.038  20.667  0.00  0.00    +0.000 C 
ATOM     23  C   UNL     1       0.800   3.666  20.337  0.00  0.00    +0.000 C 
ATOM     24  C   UNL     1       1.696   2.513  20.777  0.00  0.00    +0.000 C 
ATOM     25  C   UNL     1       3.194   2.773  20.640  0.00  0.00    +0.000 C 
ATOM     26  C   UNL     1       3.590   3.331  19.278  0.00  0.00    +0.000 C 
BRANCH  19  27
ATOM     27  C   UNL     1       5.136   5.130  17.263  0.00  0.00    +0.000 A 
ATOM     28  C   UNL     1       4.897   4.899  15.899  0.00  0.00    +0.000 A 
ATOM     29  C   UNL     1       5.941   4.560  15.032  0.00  0.00    +0.000 A 
ATOM     30  C   UNL     1       7.240   4.448  15.516  0.00  0.00    +0.000 A 
ATOM     31  C   UNL     1       7.491   4.637  16.873  0.00  0.00    +0.000 A 
ATOM     32  C   UNL     1       6.442   4.951  17.742  0.00  0.00    +0.000 A 
ENDBRANCH  19  27
ENDBRANCH   2  17
TORSDOF 3
ENDMDL
MODEL 3
REMARK VINA RESULT:      -9.3      5.102      6.283
REMARK  Name = 
REMARK  3 active torsions:
REMARK  status: ('A' for Active; 'I' for Inactive)
REMARK    1  A    between atoms: C_8  and  N_9
REMARK    2  A    between atoms: C_10  and  C_12
REMARK    3  A    between atoms: C_14  and  C_15
REMARK                            x       y       z     vdW  Elec       q    Type
REMARK                         _______ _______ _______ _____ _____    ______ ____
ROOT
ATOM      1  N   UNL     1       7.793   8.665  17.565  0.00  0.00    +0.000 N 
ATOM      2  C   UNL     1       7.864   7.372  18.060  0.00  0.00    +0.000 C 
ATOM      3  O   UNL     1       8.481   7.024  19.061  0.00  0.00    +0.000 OA
ATOM      4  H   UNL     1       7.149   8.780  16.788  0.00  0.00    +0.000 HD
ENDROOT
BRANCH   1  12
ATOM      5  O   UNL     1       8.816  15.698  17.543  0.00  0.00    +0.000 OA
ATOM      6  C   UNL     1       9.000  14.604  18.073  0.00  0.00    +0.000 C 
ATOM      7  C   UNL     1       9.649  14.440  19.446  0.00  0.00    +0.000 C 
ATOM      8  O   UNL     1      10.191  13.183  19.812  0.00  0.00    +0.000 OA
ATOM      9  C   UNL     1       9.576  12.114  19.226  0.00  0.00    +0.000 A 
ATOM     10  C   UNL     1       9.828  10.874  19.793  0.00  0.00    +0.000 A 
ATOM     11  C   UNL     1       9.251   9.728  19.247  0.00  0.00    +0.000 A 
ATOM     12  C   UNL     1       8.425   9.800  18.117  0.00  0.00    +0.000 A 
ATOM     13  C   UNL     1       8.216  11.047  17.516  0.00  0.00    +0.000 A 
ATOM     14  C   UNL     1       8.779  12.199  18.082  0.00  0.00    +0.000 A 
ATOM     15  N   UNL     1       8.551  13.448  17.497  0.00  0.00    +0.000 N 
ATOM     16  H   UNL     1       8.048  13.535  16.624  0.00  0.00    +0.000 HD
ENDBRANCH   1  12
BRANCH   2  17
ATOM     17  C   UNL     1       7.067   6.414  17.275  0.00  0.00    +0.000 A 
ATOM     18  N   UNL     1       7.316   6.148  15.943  0.00  0.00    +0.000 NA
ATOM     19  C   UNL     1       6.432   5.237  15.561  0.00  0.00    +0.000 A 
ATOM     20  N   UNL     1       5.619   4.888  16.637  0.00  0.00    +0.000 N 
ATOM     21  C   UNL     1       5.990   5.660  17.720  0.00  0.00    +0.000 A 
ATOM     22  C   UNL     1       5.337   5.636  19.070  0.00  0.00    +0.000 C 
ATOM     23  C   UNL     1       3.817   5.539  18.995  0.00  0.00    +0.000 C 
ATOM     24  C   UNL     1       3.311   4.112  18.811  0.00  0.00    +0.000 C 
ATOM     25  C   UNL     1       4.183   3.228  17.924  0.00  0.00    +0.000 C 
ATOM     26  C   UNL     1       4.565   3.886  16.603  0.00  0.00    +0.000 C 
BRANCH  19  27
ATOM     27  C   UNL     1       6.406   4.645  14.211  0.00  0.00    +0.000 A 
ATOM     28  C   UNL     1       7.454   4.939  13.325  0.00  0.00    +0.000 A 
ATOM     29  C   UNL     1       7.505   4.362  12.052  0.00  0.00    +0.000 A 
ATOM     30  C   UNL     1       6.508   3.479  11.647  0.00  0.00    +0.000 A 
ATOM     31  C   UNL     1       5.442   3.203  12.499  0.00  0.00    +0.000 A 
ATOM     32  C   UNL     1       5.380   3.802  13.761  0.00  0.00    +0.000 A 
ENDBRANCH  19  27
ENDBRANCH   2  17
TORSDOF 3
ENDMDL
MODEL 4
REMARK VINA RESULT:      -9.2      1.264      2.030
REMARK  Name = 
REMARK  3 active torsions:
REMARK  status: ('A' for Active; 'I' for Inactive)
REMARK    1  A    between atoms: C_8  and  N_9
REMARK    2  A    between atoms: C_10  and  C_12
REMARK    3  A    between atoms: C_14  and  C_15
REMARK                            x       y       z     vdW  Elec       q    Type
REMARK                         _______ _______ _______ _____ _____    ______ ____
ROOT
ATOM      1  N   UNL     1       1.804   8.933  18.588  0.00  0.00    +0.000 N 
ATOM      2  C   UNL     1       2.015   8.007  19.598  0.00  0.00    +0.000 C 
ATOM      3  O   UNL     1       1.680   8.142  20.771  0.00  0.00    +0.000 OA
ATOM      4  H   UNL     1       2.054   8.603  17.660  0.00  0.00    +0.000 HD
ENDROOT
BRANCH   1  12
ATOM      5  O   UNL     1      -3.918  12.744  20.389  0.00  0.00    +0.000 OA
ATOM      6  C   UNL     1      -2.736  12.705  20.054  0.00  0.00    +0.000 C 
ATOM      7  C   UNL     1      -1.829  13.934  20.047  0.00  0.00    +0.000 C 
ATOM      8  O   UNL     1      -0.634  13.911  19.285  0.00  0.00    +0.000 OA
ATOM      9  C   UNL     1      -0.087  12.669  19.136  0.00  0.00    +0.000 A 
ATOM     10  C   UNL     1       1.230  12.626  18.704  0.00  0.00    +0.000 A 
ATOM     11  C   UNL     1       1.861  11.397  18.512  0.00  0.00    +0.000 A 
ATOM     12  C   UNL     1       1.183  10.192  18.734  0.00  0.00    +0.000 A 
ATOM     13  C   UNL     1      -0.163  10.239  19.118  0.00  0.00    +0.000 A 
ATOM     14  C   UNL     1      -0.786  11.476  19.332  0.00  0.00    +0.000 A 
ATOM     15  N   UNL     1      -2.122  11.523  19.739  0.00  0.00    +0.000 N 
ATOM     16  H   UNL     1      -2.680  10.683  19.811  0.00  0.00    +0.000 HD
ENDBRANCH   1  12
BRANCH   2  17
ATOM     17  C   UNL     1       2.662   6.774  19.120  0.00  0.00    +0.000 A 
ATOM     18  N   UNL     1       3.609   6.768  18.114  0.00  0.00    +0.000 NA
ATOM     19  C   UNL     1       3.988   5.509  17.951  0.00  0.00    +0.000 A 
ATOM     20  N   UNL     1       3.311   4.691  18.852  0.00  0.00    +0.000 N 
ATOM     21  C   UNL     1       2.437   5.481  19.572  0.00  0.00    +0.000 A 
ATOM     22  C   UNL     1       1.481   4.991  20.619  0.00  0.00    +0.000 C 
ATOM     23  C   UNL     1       0.804   3.678  20.240  0.00  0.00    +0.000 C 
ATOM     24  C   UNL     1       1.653   2.450  20.551  0.00  0.00    +0.000 C 
ATOM     25  C   UNL     1       3.153   2.632  20.339  0.00  0.00    +0.000 C 
ATOM     26  C   UNL     1       3.503   3.255  18.993  0.00  0.00    +0.000 C 
BRANCH  19  27
ATOM     27  C   UNL     1       5.036   5.092  17.002  0.00  0.00    +0.000 A 
ATOM     28  C   UNL     1       4.658   4.700  15.708  0.00  0.00    +0.000 A 
ATOM     29  C   UNL     1       5.617   4.347  14.753  0.00  0.00    +0.000 A 
ATOM     30  C   UNL     1       6.969   4.383  15.077  0.00  0.00    +0.000 A 
ATOM     31  C   UNL     1       7.362   4.733  16.367  0.00  0.00    +0.000 A 
ATOM     32  C   UNL     1       6.400   5.061  17.327  0.00  0.00    +0.000 A 
ENDBRANCH  19  27
ENDBRANCH   2  17
TORSDOF 3
ENDMDL
MODEL 5
REMARK VINA RESULT:      -9.1      1.515      2.466
REMARK  Name = 
REMARK  3 active torsions:
REMARK  status: ('A' for Active; 'I' for Inactive)
REMARK    1  A    between atoms: C_8  and  N_9
REMARK    2  A    between atoms: C_10  and  C_12
REMARK    3  A    between atoms: C_14  and  C_15
REMARK                            x       y       z     vdW  Elec       q    Type
REMARK                         _______ _______ _______ _____ _____    ______ ____
ROOT
ATOM      1  N   UNL     1       1.484   8.972  18.988  0.00  0.00    +0.000 N 
ATOM      2  C   UNL     1       1.844   8.043  19.952  0.00  0.00    +0.000 C 
ATOM      3  O   UNL     1       1.589   8.123  21.150  0.00  0.00    +0.000 OA
ATOM      4  H   UNL     1       1.689   8.685  18.035  0.00  0.00    +0.000 HD
ENDROOT
BRANCH   1  12
ATOM      5  O   UNL     1      -4.717  12.419  19.402  0.00  0.00    +0.000 OA
ATOM      6  C   UNL     1      -3.497  12.417  19.551  0.00  0.00    +0.000 C 
ATOM      7  C   UNL     1      -2.734  13.556  20.223  0.00  0.00    +0.000 C 
ATOM      8  O   UNL     1      -1.340  13.684  20.004  0.00  0.00    +0.000 OA
ATOM      9  C   UNL     1      -0.701  12.505  19.749  0.00  0.00    +0.000 A 
ATOM     10  C   UNL     1       0.681  12.518  19.863  0.00  0.00    +0.000 A 
ATOM     11  C   UNL     1       1.413  11.359  19.606  0.00  0.00    +0.000 A 
ATOM     12  C   UNL     1       0.777  10.172  19.216  0.00  0.00    +0.000 A 
ATOM     13  C   UNL     1      -0.613  10.177  19.050  0.00  0.00    +0.000 A 
ATOM     14  C   UNL     1      -1.347  11.338  19.333  0.00  0.00    +0.000 A 
ATOM     15  N   UNL     1      -2.737  11.337  19.191  0.00  0.00    +0.000 N 
ATOM     16  H   UNL     1      -3.226  10.537  18.814  0.00  0.00    +0.000 HD
ENDBRANCH   1  12
BRANCH   2  17
ATOM     17  C   UNL     1       2.549   6.878  19.391  0.00  0.00    +0.000 A 
ATOM     18  N   UNL     1       3.523   6.991  18.418  0.00  0.00    +0.000 NA
ATOM     19  C   UNL     1       3.953   5.764  18.161  0.00  0.00    +0.000 A 
ATOM     20  N   UNL     1       3.283   4.850  18.969  0.00  0.00    +0.000 N 
ATOM     21  C   UNL     1       2.361   5.545  19.727  0.00  0.00    +0.000 A 
ATOM     22  C   UNL     1       1.395   4.934  20.699  0.00  0.00    +0.000 C 
ATOM     23  C   UNL     1       0.778   3.636  20.191  0.00  0.00    +0.000 C 
ATOM     24  C   UNL     1       1.663   2.415  20.423  0.00  0.00    +0.000 C 
ATOM     25  C   UNL     1       3.161   2.667  20.272  0.00  0.00    +0.000 C 
ATOM     26  C   UNL     1       3.524   3.415  18.994  0.00  0.00    +0.000 C 
BRANCH  19  27
ATOM     27  C   UNL     1       5.041   5.467  17.212  0.00  0.00    +0.000 A 
ATOM     28  C   UNL     1       6.272   5.018  17.715  0.00  0.00    +0.000 A 
ATOM     29  C   UNL     1       7.318   4.671  16.855  0.00  0.00    +0.000 A 
ATOM     30  C   UNL     1       7.149   4.765  15.478  0.00  0.00    +0.000 A 
ATOM     31  C   UNL     1       5.948   5.243  14.960  0.00  0.00    +0.000 A 
ATOM     32  C   UNL     1       4.911   5.614  15.823  0.00  0.00    +0.000 A 
ENDBRANCH  19  27
ENDBRANCH   2  17
TORSDOF 3
ENDMDL
MODEL 6
REMARK VINA RESULT:      -9.1      1.298      1.554
REMARK  Name = 
REMARK  3 active torsions:
REMARK  status: ('A' for Active; 'I' for Inactive)
REMARK    1  A    between atoms: C_8  and  N_9
REMARK    2  A    between atoms: C_10  and  C_12
REMARK    3  A    between atoms: C_14  and  C_15
REMARK                            x       y       z     vdW  Elec       q    Type
REMARK                         _______ _______ _______ _____ _____    ______ ____
ROOT
ATOM      1  N   UNL     1       1.391   8.850  18.954  0.00  0.00    +0.000 N 
ATOM      2  C   UNL     1       1.799   7.953  19.929  0.00  0.00    +0.000 C 
ATOM      3  O   UNL     1       1.566   8.051  21.130  0.00  0.00    +0.000 OA
ATOM      4  H   UNL     1       1.585   8.548  18.002  0.00  0.00    +0.000 HD
ENDROOT
BRANCH   1  12
ATOM      5  O   UNL     1       0.511  14.925  22.533  0.00  0.00    +0.000 OA
ATOM      6  C   UNL     1       0.178  14.184  21.611  0.00  0.00    +0.000 C 
ATOM      7  C   UNL     1      -0.812  14.595  20.523  0.00  0.00    +0.000 C 
ATOM      8  O   UNL     1      -1.449  13.594  19.749  0.00  0.00    +0.000 OA
ATOM      9  C   UNL     1      -0.717  12.451  19.596  0.00  0.00    +0.000 A 
ATOM     10  C   UNL     1      -1.127  11.590  18.590  0.00  0.00    +0.000 A 
ATOM     11  C   UNL     1      -0.443  10.393  18.375  0.00  0.00    +0.000 A 
ATOM     12  C   UNL     1       0.653  10.032  19.171  0.00  0.00    +0.000 A 
ATOM     13  C   UNL     1       1.031  10.880  20.220  0.00  0.00    +0.000 A 
ATOM     14  C   UNL     1       0.355  12.092  20.417  0.00  0.00    +0.000 A 
ATOM     15  N   UNL     1       0.747  12.950  21.448  0.00  0.00    +0.000 N 
ATOM     16  H   UNL     1       1.463  12.683  22.110  0.00  0.00    +0.000 HD
ENDBRANCH   1  12
BRANCH   2  17
ATOM     17  C   UNL     1       2.528   6.798  19.379  0.00  0.00    +0.000 A 
ATOM     18  N   UNL     1       3.514   6.924  18.420  0.00  0.00    +0.000 NA
ATOM     19  C   UNL     1       3.964   5.703  18.168  0.00  0.00    +0.000 A 
ATOM     20  N   UNL     1       3.295   4.780  18.968  0.00  0.00    +0.000 N 
ATOM     21  C   UNL     1       2.353   5.462  19.711  0.00  0.00    +0.000 A 
ATOM     22  C   UNL     1       1.382   4.838  20.670  0.00  0.00    +0.000 C 
ATOM     23  C   UNL     1       0.790   3.531  20.153  0.00  0.00    +0.000 C 
ATOM     24  C   UNL     1       1.688   2.323  20.398  0.00  0.00    +0.000 C 
ATOM     25  C   UNL     1       3.185   2.595  20.268  0.00  0.00    +0.000 C 
ATOM     26  C   UNL     1       3.555   3.348  18.996  0.00  0.00    +0.000 C 
BRANCH  19  27
ATOM     27  C   UNL     1       5.069   5.421  17.235  0.00  0.00    +0.000 A 
ATOM     28  C   UNL     1       6.303   5.001  17.757  0.00  0.00    +0.000 A 
ATOM     29  C   UNL     1       7.367   4.669  16.913  0.00  0.00    +0.000 A 
ATOM     30  C   UNL     1       7.213   4.749  15.533  0.00  0.00    +0.000 A 
ATOM     31  C   UNL     1       6.009   5.199  14.997  0.00  0.00    +0.000 A 
ATOM     32  C   UNL     1       4.955   5.555  15.844  0.00  0.00    +0.000 A 
ENDBRANCH  19  27
ENDBRANCH   2  17
TORSDOF 3
ENDMDL
MODEL 7
REMARK VINA RESULT:      -9.0      2.243      2.846
REMARK  Name = 
REMARK  3 active torsions:
REMARK  status: ('A' for Active; 'I' for Inactive)
REMARK    1  A    between atoms: C_8  and  N_9
REMARK    2  A    between atoms: C_10  and  C_12
REMARK    3  A    between atoms: C_14  and  C_15
REMARK                            x       y       z     vdW  Elec       q    Type
REMARK                         _______ _______ _______ _____ _____    ______ ____
ROOT
ATOM      1  N   UNL     1       1.256   8.010  20.694  0.00  0.00    +0.000 N 
ATOM      2  C   UNL     1       1.817   8.100  19.429  0.00  0.00    +0.000 C 
ATOM      3  O   UNL     1       1.770   9.084  18.697  0.00  0.00    +0.000 OA
ATOM      4  H   UNL     1       1.488   7.155  21.193  0.00  0.00    +0.000 HD
ENDROOT
BRANCH   1  12
ATOM      5  O   UNL     1      -2.813  13.824  20.324  0.00  0.00    +0.000 OA
ATOM      6  C   UNL     1      -2.300  12.934  20.999  0.00  0.00    +0.000 C 
ATOM      7  C   UNL     1      -2.626  12.709  22.473  0.00  0.00    +0.000 C 
ATOM      8  O   UNL     1      -1.731  11.961  23.277  0.00  0.00    +0.000 OA
ATOM      9  C   UNL     1      -1.018  11.017  22.594  0.00  0.00    +0.000 A 
ATOM     10  C   UNL     1      -0.394  10.045  23.361  0.00  0.00    +0.000 A 
ATOM     11  C   UNL     1       0.367   9.053  22.744  0.00  0.00    +0.000 A 
ATOM     12  C   UNL     1       0.528   9.023  21.352  0.00  0.00    +0.000 A 
ATOM     13  C   UNL     1      -0.060  10.037  20.586  0.00  0.00    +0.000 A 
ATOM     14  C   UNL     1      -0.843  11.019  21.208  0.00  0.00    +0.000 A 
ATOM     15  N   UNL     1      -1.450  12.018  20.442  0.00  0.00    +0.000 N 
ATOM     16  H   UNL     1      -1.276  12.096  19.449  0.00  0.00    +0.000 HD
ENDBRANCH   1  12
BRANCH   2  17
ATOM     17  C   UNL     1       2.542   6.881  19.035  0.00  0.00    +0.000 A 
ATOM     18  N   UNL     1       3.519   6.875  18.058  0.00  0.00    +0.000 NA
ATOM     19  C   UNL     1       3.969   5.631  17.972  0.00  0.00    +0.000 A 
ATOM     20  N   UNL     1       3.309   4.826  18.897  0.00  0.00    +0.000 N 
ATOM     21  C   UNL     1       2.373   5.603  19.549  0.00  0.00    +0.000 A 
ATOM     22  C   UNL     1       1.411   5.116  20.593  0.00  0.00    +0.000 C 
ATOM     23  C   UNL     1       0.817   3.751  20.265  0.00  0.00    +0.000 C 
ATOM     24  C   UNL     1       1.719   2.588  20.665  0.00  0.00    +0.000 C 
ATOM     25  C   UNL     1       3.214   2.840  20.486  0.00  0.00    +0.000 C 
ATOM     26  C   UNL     1       3.571   3.412  19.118  0.00  0.00    +0.000 C 
BRANCH  19  27
ATOM     27  C   UNL     1       5.066   5.223  17.076  0.00  0.00    +0.000 A 
ATOM     28  C   UNL     1       6.365   5.131  17.599  0.00  0.00    +0.000 A 
ATOM     29  C   UNL     1       7.432   4.697  16.805  0.00  0.00    +0.000 A 
ATOM     30  C   UNL     1       7.215   4.347  15.476  0.00  0.00    +0.000 A 
ATOM     31  C   UNL     1       5.940   4.468  14.930  0.00  0.00    +0.000 A 
ATOM     32  C   UNL     1       4.880   4.926  15.718  0.00  0.00    +0.000 A 
ENDBRANCH  19  27
ENDBRANCH   2  17
TORSDOF 3
ENDMDL
MODEL 8
REMARK VINA RESULT:      -9.0      2.952      8.954
REMARK  Name = 
REMARK  3 active torsions:
REMARK  status: ('A' for Active; 'I' for Inactive)
REMARK    1  A    between atoms: C_8  and  N_9
REMARK    2  A    between atoms: C_10  and  C_12
REMARK    3  A    between atoms: C_14  and  C_15
REMARK                            x       y       z     vdW  Elec       q    Type
REMARK                         _______ _______ _______ _____ _____    ______ ____
ROOT
ATOM      1  N   UNL     1       2.498   8.403  18.677  0.00  0.00    +0.000 N 
ATOM      2  C   UNL     1       1.484   9.181  18.136  0.00  0.00    +0.000 C 
ATOM      3  O   UNL     1       0.900   8.957  17.081  0.00  0.00    +0.000 OA
ATOM      4  H   UNL     1       2.788   8.685  19.609  0.00  0.00    +0.000 HD
ENDROOT
BRANCH   1  12
ATOM      5  O   UNL     1       7.535   5.304  14.736  0.00  0.00    +0.000 OA
ATOM      6  C   UNL     1       6.555   5.202  15.471  0.00  0.00    +0.000 C 
ATOM      7  C   UNL     1       6.055   3.865  16.015  0.00  0.00    +0.000 C 
ATOM      8  O   UNL     1       4.727   3.766  16.501  0.00  0.00    +0.000 OA
ATOM      9  C   UNL     1       4.227   4.930  17.010  0.00  0.00    +0.000 A 
ATOM     10  C   UNL     1       3.089   4.818  17.794  0.00  0.00    +0.000 A 
ATOM     11  C   UNL     1       2.505   5.960  18.342  0.00  0.00    +0.000 A 
ATOM     12  C   UNL     1       3.040   7.233  18.104  0.00  0.00    +0.000 A 
ATOM     13  C   UNL     1       4.158   7.347  17.269  0.00  0.00    +0.000 A 
ATOM     14  C   UNL     1       4.755   6.195  16.739  0.00  0.00    +0.000 A 
ATOM     15  N   UNL     1       5.886   6.305  15.925  0.00  0.00    +0.000 N 
ATOM     16  H   UNL     1       6.244   7.208  15.643  0.00  0.00    +0.000 HD
ENDBRANCH   1  12
BRANCH   2  17
ATOM     17  C   UNL     1       1.120  10.322  18.991  0.00  0.00    +0.000 A 
ATOM     18  N   UNL     1       1.307  11.636  18.606  0.00  0.00    +0.000 NA
ATOM     19  C   UNL     1       0.859  12.394  19.596  0.00  0.00    +0.000 A 
ATOM     20  N   UNL     1       0.362  11.591  20.619  0.00  0.00    +0.000 N 
ATOM     21  C   UNL     1       0.559  10.272  20.260  0.00  0.00    +0.000 A 
ATOM     22  C   UNL     1       0.211   9.080  21.101  0.00  0.00    +0.000 C 
ATOM     23  C   UNL     1       0.542   9.273  22.577  0.00  0.00    +0.000 C 
ATOM     24  C   UNL     1      -0.537  10.031  23.343  0.00  0.00    +0.000 C 
ATOM     25  C   UNL     1      -1.226  11.143  22.556  0.00  0.00    +0.000 C 
ATOM     26  C   UNL     1      -0.252  12.075  21.846  0.00  0.00    +0.000 C 
BRANCH  19  27
ATOM     27  C   UNL     1       0.831  13.867  19.543  0.00  0.00    +0.000 A 
ATOM     28  C   UNL     1       1.945  14.580  20.013  0.00  0.00    +0.000 A 
ATOM     29  C   UNL     1       1.992  15.976  19.935  0.00  0.00    +0.000 A 
ATOM     30  C   UNL     1       0.925  16.680  19.385  0.00  0.00    +0.000 A 
ATOM     31  C   UNL     1      -0.204  15.992  18.947  0.00  0.00    +0.000 A 
ATOM     32  C   UNL     1      -0.259  14.599  19.049  0.00  0.00    +0.000 A 
ENDBRANCH  19  27
ENDBRANCH   2  17
TORSDOF 3
ENDMDL
MODEL 9
REMARK VINA RESULT:      -8.9      2.788      9.446
REMARK  Name = 
REMARK  3 active torsions:
REMARK  status: ('A' for Active; 'I' for Inactive)
REMARK    1  A    between atoms: C_8  and  N_9
REMARK    2  A    between atoms: C_10  and  C_12
REMARK    3  A    between atoms: C_14  and  C_15
REMARK                            x       y       z     vdW  Elec       q    Type
REMARK                         _______ _______ _______ _____ _____    ______ ____
ROOT
ATOM      1  N   UNL     1       1.854   8.613  18.261  0.00  0.00    +0.000 N 
ATOM      2  C   UNL     1       1.257   9.152  19.391  0.00  0.00    +0.000 C 
ATOM      3  O   UNL     1       1.448   8.780  20.544  0.00  0.00    +0.000 OA
ATOM      4  H   UNL     1       1.656   9.119  17.403  0.00  0.00    +0.000 HD
ENDROOT
BRANCH   1  12
ATOM      5  O   UNL     1       7.665   5.602  15.493  0.00  0.00    +0.000 OA
ATOM      6  C   UNL     1       6.778   5.603  16.345  0.00  0.00    +0.000 C 
ATOM      7  C   UNL     1       6.769   4.657  17.543  0.00  0.00    +0.000 C 
ATOM      8  O   UNL     1       5.556   4.429  18.240  0.00  0.00    +0.000 OA
ATOM      9  C   UNL     1       4.683   5.479  18.203  0.00  0.00    +0.000 A 
ATOM     10  C   UNL     1       3.650   5.450  19.129  0.00  0.00    +0.000 A 
ATOM     11  C   UNL     1       2.706   6.476  19.150  0.00  0.00    +0.000 A 
ATOM     12  C   UNL     1       2.769   7.539  18.240  0.00  0.00    +0.000 A 
ATOM     13  C   UNL     1       3.782   7.536  17.272  0.00  0.00    +0.000 A 
ATOM     14  C   UNL     1       4.742   6.515  17.269  0.00  0.00    +0.000 A 
ATOM     15  N   UNL     1       5.767   6.525  16.319  0.00  0.00    +0.000 N 
ATOM     16  H   UNL     1       5.792   7.213  15.579  0.00  0.00    +0.000 HD
ENDBRANCH   1  12
BRANCH   2  17
ATOM     17  C   UNL     1       0.371  10.287  19.085  0.00  0.00    +0.000 A 
ATOM     18  N   UNL     1      -0.979  10.137  18.836  0.00  0.00    +0.000 NA
ATOM     19  C   UNL     1      -1.467  11.349  18.617  0.00  0.00    +0.000 A 
ATOM     20  N   UNL     1      -0.453  12.296  18.739  0.00  0.00    +0.000 N 
ATOM     21  C   UNL     1       0.726  11.627  18.998  0.00  0.00    +0.000 A 
ATOM     22  C   UNL     1       2.074  12.266  19.154  0.00  0.00    +0.000 C 
ATOM     23  C   UNL     1       2.321  13.388  18.152  0.00  0.00    +0.000 C 
ATOM     24  C   UNL     1       1.724  14.724  18.581  0.00  0.00    +0.000 C 
ATOM     25  C   UNL     1       0.389  14.627  19.315  0.00  0.00    +0.000 C 
ATOM     26  C   UNL     1      -0.626  13.735  18.610  0.00  0.00    +0.000 C 
BRANCH  19  27
ATOM     27  C   UNL     1      -2.895  11.618  18.369  0.00  0.00    +0.000 A 
ATOM     28  C   UNL     1      -3.419  11.361  17.092  0.00  0.00    +0.000 A 
ATOM     29  C   UNL     1      -4.777  11.548  16.819  0.00  0.00    +0.000 A 
ATOM     30  C   UNL     1      -5.634  11.993  17.821  0.00  0.00    +0.000 A 
ATOM     31  C   UNL     1      -5.127  12.289  19.083  0.00  0.00    +0.000 A 
ATOM     32  C   UNL     1      -3.764  12.125  19.347  0.00  0.00    +0.000 A 
ENDBRANCH  19  27
ENDBRANCH   2  17
TORSDOF 3
ENDMDL
