MODEL 1
REMARK VINA RESULT:      -7.9      0.000      0.000
REMARK  Name = 
REMARK  6 active torsions:
REMARK  status: ('A' for Active; 'I' for Inactive)
REMARK    1  A    between atoms: C_1  and  C_2
REMARK    2  A    between atoms: C_6  and  C_7
REMARK    3  A    between atoms: N_9  and  C_10
REMARK    4  A    between atoms: C_15  and  S_16
REMARK    5  A    between atoms: S_16  and  N_19
REMARK    6  A    between atoms: N_19  and  C_20
REMARK                            x       y       z     vdW  Elec       q    Type
REMARK                         _______ _______ _______ _____ _____    ______ ____
ROOT
ATOM      1  C   UNL     1       1.912   5.361  20.760  0.00  0.00    +0.000 A 
ATOM      2  C   UNL     1       2.062   4.248  21.588  0.00  0.00    +0.000 A 
ATOM      3  C   UNL     1       2.660   3.077  21.114  0.00  0.00    +0.000 A 
ATOM      4  C   UNL     1       3.135   2.992  19.804  0.00  0.00    +0.000 A 
ATOM      5 CL   UNL     1       3.935   1.522  19.394  0.00  0.00    +0.000 Cl
ATOM      6  C   UNL     1       2.964   4.087  18.955  0.00  0.00    +0.000 A 
ATOM      7  C   UNL     1       2.317   5.254  19.428  0.00  0.00    +0.000 A 
ENDROOT
BRANCH   1  10
ATOM      8  C   UNL     1       1.504   7.808  20.559  0.00  0.00    +0.000 C 
ATOM      9  O   UNL     1       2.077   8.001  19.490  0.00  0.00    +0.000 OA
ATOM     10  N   UNL     1       1.392   6.590  21.217  0.00  0.00    +0.000 N 
ATOM     11  H   UNL     1       0.780   6.598  22.031  0.00  0.00    +0.000 HD
BRANCH   8  17
ATOM     12  C   UNL     1       0.478  12.579  20.669  0.00  0.00    +0.000 C 
ATOM     13  C   UNL     1       0.319  11.217  21.276  0.00  0.00    +0.000 A 
ATOM     14  C   UNL     1      -0.474  11.046  22.412  0.00  0.00    +0.000 A 
ATOM     15  C   UNL     1      -0.615   9.774  22.955  0.00  0.00    +0.000 A 
ATOM     16  C   UNL     1       0.029   8.706  22.348  0.00  0.00    +0.000 A 
ATOM     17  C   UNL     1       0.799   8.955  21.215  0.00  0.00    +0.000 A 
ATOM     18  N   UNL     1       0.970  10.190  20.667  0.00  0.00    +0.000 NA
ENDBRANCH   8  17
ENDBRANCH   1  10
BRANCH   6  19
ATOM     19  S   UNL     1       3.477   4.093  17.255  0.00  0.00    +0.000 S 
ATOM     20  O   UNL     1       2.793   3.047  16.527  0.00  0.00    +0.000 OA
ATOM     21  O   UNL     1       3.410   5.465  16.792  0.00  0.00    +0.000 OA
BRANCH  19  22
ATOM     22  N   UNL     1       5.106   3.617  17.348  0.00  0.00    +0.000 N 
ATOM     23  H   UNL     1       5.328   3.064  16.513  0.00  0.00    +0.000 HD
BRANCH  22  24
ATOM     24  C   UNL     1       6.068   4.632  17.676  0.00  0.00    +0.000 A 
ATOM     25  C   UNL     1       6.406   4.814  19.019  0.00  0.00    +0.000 A 
ATOM     26  C   UNL     1       7.303   5.818  19.386  0.00  0.00    +0.000 A 
ATOM     27  C   UNL     1       7.864   6.649  18.417  0.00  0.00    +0.000 A 
ATOM     28  C   UNL     1       7.530   6.475  17.070  0.00  0.00    +0.000 A 
ATOM     29  C   UNL     1       6.632   5.470  16.700  0.00  0.00    +0.000 A 
ATOM     30 CL   UNL     1       6.269   5.273  15.024  0.00  0.00    +0.000 Cl
ENDBRANCH  22  24
ENDBRANCH  19  22
ENDBRANCH   6  19
TORSDOF 5
ENDMDL
MODEL 2
REMARK VINA RESULT:      -7.9      1.739      2.319
REMARK  Name = 
REMARK  6 active torsions:
REMARK  status: ('A' for Active; 'I' for Inactive)
REMARK    1  A    between atoms: C_1  and  C_2
REMARK    2  A    between atoms: C_6  and  C_7
REMARK    3  A    between atoms: N_9  and  C_10
REMARK    4  A    between atoms: C_15  and  S_16
REMARK    5  A    between atoms: S_16  and  N_19
REMARK    6  A    between atoms: N_19  and  C_20
REMARK                            x       y       z     vdW  Elec       q    Type
REMARK                         _______ _______ _______ _____ _____    ______ ____
ROOT
ATOM      1  C   UNL     1       1.681   5.779  20.596  0.00  0.00    +0.000 A 
ATOM      2  C   UNL     1       0.996   4.566  20.665  0.00  0.00    +0.000 A 
ATOM      3  C   UNL     1       1.576   3.386  20.190  0.00  0.00    +0.000 A 
ATOM      4  C   UNL     1       2.863   3.387  19.645  0.00  0.00    +0.000 A 
ATOM      5 CL   UNL     1       3.482   1.844  19.194  0.00  0.00    +0.000 Cl
ATOM      6  C   UNL     1       3.547   4.599  19.542  0.00  0.00    +0.000 A 
ATOM      7  C   UNL     1       2.936   5.797  19.983  0.00  0.00    +0.000 A 
ENDROOT
BRANCH   1  10
ATOM      8  C   UNL     1       1.234   8.227  20.532  0.00  0.00    +0.000 C 
ATOM      9  O   UNL     1       1.748   8.478  19.446  0.00  0.00    +0.000 OA
ATOM     10  N   UNL     1       1.170   6.978  21.136  0.00  0.00    +0.000 N 
ATOM     11  H   UNL     1       0.603   6.940  21.980  0.00  0.00    +0.000 HD
BRANCH   8  17
ATOM     12  C   UNL     1       0.049  12.952  20.851  0.00  0.00    +0.000 C 
ATOM     13  C   UNL     1      -0.003  11.572  21.437  0.00  0.00    +0.000 A 
ATOM     14  C   UNL     1      -0.682  11.348  22.635  0.00  0.00    +0.000 A 
ATOM     15  C   UNL     1      -0.725  10.060  23.158  0.00  0.00    +0.000 A 
ATOM     16  C   UNL     1      -0.101   9.030  22.469  0.00  0.00    +0.000 A 
ATOM     17  C   UNL     1       0.551   9.332  21.278  0.00  0.00    +0.000 A 
ATOM     18  N   UNL     1       0.626  10.584  20.746  0.00  0.00    +0.000 NA
ENDBRANCH   8  17
ENDBRANCH   1  10
BRANCH   6  19
ATOM     19  S   UNL     1       5.166   4.747  18.826  0.00  0.00    +0.000 S 
ATOM     20  O   UNL     1       6.017   5.542  19.685  0.00  0.00    +0.000 OA
ATOM     21  O   UNL     1       5.579   3.418  18.421  0.00  0.00    +0.000 OA
BRANCH  19  22
ATOM     22  N   UNL     1       4.883   5.689  17.439  0.00  0.00    +0.000 N 
ATOM     23  H   UNL     1       4.963   6.677  17.699  0.00  0.00    +0.000 HD
BRANCH  22  24
ATOM     24  C   UNL     1       5.585   5.318  16.242  0.00  0.00    +0.000 A 
ATOM     25  C   UNL     1       4.953   4.454  15.345  0.00  0.00    +0.000 A 
ATOM     26  C   UNL     1       5.617   4.033  14.191  0.00  0.00    +0.000 A 
ATOM     27  C   UNL     1       6.915   4.469  13.928  0.00  0.00    +0.000 A 
ATOM     28  C   UNL     1       7.556   5.332  14.822  0.00  0.00    +0.000 A 
ATOM     29  C   UNL     1       6.894   5.755  15.978  0.00  0.00    +0.000 A 
ATOM     30 CL   UNL     1       7.712   6.843  17.040  0.00  0.00    +0.000 Cl
ENDBRANCH  22  24
ENDBRANCH  19  22
ENDBRANCH   6  19
TORSDOF 5
ENDMDL
MODEL 3
REMARK VINA RESULT:      -7.9      2.729      3.370
REMARK  Name = 
REMARK  6 active torsions:
REMARK  status: ('A' for Active; 'I' for Inactive)
REMARK    1  A    between atoms: C_1  and  C_2
REMARK    2  A    between atoms: C_6  and  C_7
REMARK    3  A    between atoms: N_9  and  C_10
REMARK    4  A    between atoms: C_15  and  S_16
REMARK    5  A    between atoms: S_16  and  N_19
REMARK    6  A    between atoms: N_19  and  C_20
REMARK                            x       y       z     vdW  Elec       q    Type
REMARK                         _______ _______ _______ _____ _____    ______ ____
ROOT
ATOM      1  C   UNL     1       2.446   6.754  19.549  0.00  0.00    +0.000 A 
ATOM      2  C   UNL     1       1.773   5.624  20.013  0.00  0.00    +0.000 A 
ATOM      3  C   UNL     1       2.442   4.407  20.174  0.00  0.00    +0.000 A 
ATOM      4  C   UNL     1       3.804   4.293  19.888  0.00  0.00    +0.000 A 
ATOM      5 CL   UNL     1       4.511   2.759  20.229  0.00  0.00    +0.000 Cl
ATOM      6  C   UNL     1       4.482   5.408  19.394  0.00  0.00    +0.000 A 
ATOM      7  C   UNL     1       3.789   6.624  19.189  0.00  0.00    +0.000 A 
ENDROOT
BRANCH   1  10
ATOM      8  C   UNL     1       1.840   8.835  18.322  0.00  0.00    +0.000 C 
ATOM      9  O   UNL     1       2.383   8.579  17.251  0.00  0.00    +0.000 OA
ATOM     10  N   UNL     1       1.834   8.022  19.448  0.00  0.00    +0.000 N 
ATOM     11  H   UNL     1       1.234   8.344  20.205  0.00  0.00    +0.000 HD
BRANCH   8  17
ATOM     12  C   UNL     1      -2.488  11.091  18.319  0.00  0.00    +0.000 C 
ATOM     13  C   UNL     1      -0.994  11.177  18.435  0.00  0.00    +0.000 A 
ATOM     14  C   UNL     1      -0.381  12.409  18.661  0.00  0.00    +0.000 A 
ATOM     15  C   UNL     1       1.004  12.466  18.773  0.00  0.00    +0.000 A 
ATOM     16  C   UNL     1       1.738  11.294  18.666  0.00  0.00    +0.000 A 
ATOM     17  C   UNL     1       1.054  10.103  18.446  0.00  0.00    +0.000 A 
ATOM     18  N   UNL     1      -0.299  10.014  18.316  0.00  0.00    +0.000 NA
ENDBRANCH   8  17
ENDBRANCH   1  10
BRANCH   6  19
ATOM     19  S   UNL     1       6.200   5.385  18.944  0.00  0.00    +0.000 S 
ATOM     20  O   UNL     1       6.501   6.504  18.079  0.00  0.00    +0.000 OA
ATOM     21  O   UNL     1       6.960   5.182  20.162  0.00  0.00    +0.000 OA
BRANCH  19  22
ATOM     22  N   UNL     1       6.321   3.992  17.976  0.00  0.00    +0.000 N 
ATOM     23  H   UNL     1       5.692   3.279  18.357  0.00  0.00    +0.000 HD
BRANCH  22  24
ATOM     24  C   UNL     1       6.240   4.175  16.554  0.00  0.00    +0.000 A 
ATOM     25  C   UNL     1       7.400   4.537  15.865  0.00  0.00    +0.000 A 
ATOM     26  C   UNL     1       7.356   4.767  14.489  0.00  0.00    +0.000 A 
ATOM     27  C   UNL     1       6.154   4.641  13.794  0.00  0.00    +0.000 A 
ATOM     28  C   UNL     1       4.987   4.281  14.475  0.00  0.00    +0.000 A 
ATOM     29  C   UNL     1       5.029   4.050  15.853  0.00  0.00    +0.000 A 
ATOM     30 CL   UNL     1       3.571   3.580  16.649  0.00  0.00    +0.000 Cl
ENDBRANCH  22  24
ENDBRANCH  19  22
ENDBRANCH   6  19
TORSDOF 5
ENDMDL
MODEL 4
REMARK VINA RESULT:      -7.8      2.562      3.151
REMARK  Name = 
REMARK  6 active torsions:
REMARK  status: ('A' for Active; 'I' for Inactive)
REMARK    1  A    between atoms: C_1  and  C_2
REMARK    2  A    between atoms: C_6  and  C_7
REMARK    3  A    between atoms: N_9  and  C_10
REMARK    4  A    between atoms: C_15  and  S_16
REMARK    5  A    between atoms: S_16  and  N_19
REMARK    6  A    between atoms: N_19  and  C_20
REMARK                            x       y       z     vdW  Elec       q    Type
REMARK                         _______ _______ _______ _____ _____    ______ ____
ROOT
ATOM      1  C   UNL     1       2.417   6.685  19.624  0.00  0.00    +0.000 A 
ATOM      2  C   UNL     1       1.776   5.524  20.055  0.00  0.00    +0.000 A 
ATOM      3  C   UNL     1       2.471   4.315  20.156  0.00  0.00    +0.000 A 
ATOM      4  C   UNL     1       3.830   4.240  19.841  0.00  0.00    +0.000 A 
ATOM      5 CL   UNL     1       4.574   2.709  20.108  0.00  0.00    +0.000 Cl
ATOM      6  C   UNL     1       4.477   5.387  19.379  0.00  0.00    +0.000 A 
ATOM      7  C   UNL     1       3.756   6.597  19.235  0.00  0.00    +0.000 A 
ENDROOT
BRANCH   1  10
ATOM      8  C   UNL     1       1.705   8.776  18.476  0.00  0.00    +0.000 C 
ATOM      9  O   UNL     1       2.188   8.551  17.370  0.00  0.00    +0.000 OA
ATOM     10  N   UNL     1       1.779   7.943  19.584  0.00  0.00    +0.000 N 
ATOM     11  H   UNL     1       1.219   8.239  20.381  0.00  0.00    +0.000 HD
BRANCH   8  17
ATOM     12  C   UNL     1       1.374  13.286  20.315  0.00  0.00    +0.000 C 
ATOM     13  C   UNL     1       0.742  12.160  19.550  0.00  0.00    +0.000 A 
ATOM     14  C   UNL     1      -0.549  12.303  19.038  0.00  0.00    +0.000 A 
ATOM     15  C   UNL     1      -1.114  11.251  18.324  0.00  0.00    +0.000 A 
ATOM     16  C   UNL     1      -0.376  10.092  18.133  0.00  0.00    +0.000 A 
ATOM     17  C   UNL     1       0.906  10.027  18.671  0.00  0.00    +0.000 A 
ATOM     18  N   UNL     1       1.483  11.032  19.387  0.00  0.00    +0.000 NA
ENDBRANCH   8  17
ENDBRANCH   1  10
BRANCH   6  19
ATOM     19  S   UNL     1       6.186   5.417  18.898  0.00  0.00    +0.000 S 
ATOM     20  O   UNL     1       6.434   6.537  18.017  0.00  0.00    +0.000 OA
ATOM     21  O   UNL     1       6.974   5.252  20.104  0.00  0.00    +0.000 OA
BRANCH  19  22
ATOM     22  N   UNL     1       6.336   4.020  17.941  0.00  0.00    +0.000 N 
ATOM     23  H   UNL     1       5.721   3.297  18.328  0.00  0.00    +0.000 HD
BRANCH  22  24
ATOM     24  C   UNL     1       6.252   4.189  16.517  0.00  0.00    +0.000 A 
ATOM     25  C   UNL     1       7.406   4.568  15.827  0.00  0.00    +0.000 A 
ATOM     26  C   UNL     1       7.358   4.786  14.448  0.00  0.00    +0.000 A 
ATOM     27  C   UNL     1       6.159   4.632  13.754  0.00  0.00    +0.000 A 
ATOM     28  C   UNL     1       4.999   4.255  14.437  0.00  0.00    +0.000 A 
ATOM     29  C   UNL     1       5.044   4.037  15.817  0.00  0.00    +0.000 A 
ATOM     30 CL   UNL     1       3.595   3.546  16.617  0.00  0.00    +0.000 Cl
ENDBRANCH  22  24
ENDBRANCH  19  22
ENDBRANCH   6  19
TORSDOF 5
ENDMDL
MODEL 5
REMARK VINA RESULT:      -7.8      7.574     10.602
REMARK  Name = 
REMARK  6 active torsions:
REMARK  status: ('A' for Active; 'I' for Inactive)
REMARK    1  A    between atoms: C_1  and  C_2
REMARK    2  A    between atoms: C_6  and  C_7
REMARK    3  A    between atoms: N_9  and  C_10
REMARK    4  A    between atoms: C_15  and  S_16
REMARK    5  A    between atoms: S_16  and  N_19
REMARK    6  A    between atoms: N_19  and  C_20
REMARK                            x       y       z     vdW  Elec       q    Type
REMARK                         _______ _______ _______ _____ _____    ______ ____
ROOT
ATOM      1  C   UNL     1       9.476  10.670  19.717  0.00  0.00    +0.000 A 
ATOM      2  C   UNL     1       9.297  11.198  20.996  0.00  0.00    +0.000 A 
ATOM      3  C   UNL     1       9.781  12.469  21.321  0.00  0.00    +0.000 A 
ATOM      4  C   UNL     1      10.444  13.250  20.371  0.00  0.00    +0.000 A 
ATOM      5 CL   UNL     1      10.894  14.830  20.889  0.00  0.00    +0.000 Cl
ATOM      6  C   UNL     1      10.656  12.721  19.097  0.00  0.00    +0.000 A 
ATOM      7  C   UNL     1      10.204  11.417  18.788  0.00  0.00    +0.000 A 
ENDROOT
BRANCH   1  10
ATOM      8  C   UNL     1       8.175   9.209  18.178  0.00  0.00    +0.000 C 
ATOM      9  O   UNL     1       7.853  10.057  17.350  0.00  0.00    +0.000 OA
ATOM     10  N   UNL     1       8.935   9.429  19.319  0.00  0.00    +0.000 N 
ATOM     11  H   UNL     1       9.202   8.587  19.825  0.00  0.00    +0.000 HD
BRANCH   8  17
ATOM     12  C   UNL     1       5.745   5.933  15.496  0.00  0.00    +0.000 C 
ATOM     13  C   UNL     1       6.622   6.231  16.677  0.00  0.00    +0.000 A 
ATOM     14  C   UNL     1       7.051   5.194  17.507  0.00  0.00    +0.000 A 
ATOM     15  C   UNL     1       7.870   5.490  18.591  0.00  0.00    +0.000 A 
ATOM     16  C   UNL     1       8.245   6.807  18.814  0.00  0.00    +0.000 A 
ATOM     17  C   UNL     1       7.780   7.784  17.939  0.00  0.00    +0.000 A 
ATOM     18  N   UNL     1       6.965   7.531  16.877  0.00  0.00    +0.000 NA
ENDBRANCH   8  17
ENDBRANCH   1  10
BRANCH   6  19
ATOM     19  S   UNL     1      11.526  13.588  17.814  0.00  0.00    +0.000 S 
ATOM     20  O   UNL     1      12.271  14.692  18.379  0.00  0.00    +0.000 OA
ATOM     21  O   UNL     1      12.202  12.592  17.006  0.00  0.00    +0.000 OA
BRANCH  19  22
ATOM     22  N   UNL     1      10.269  14.282  16.904  0.00  0.00    +0.000 N 
ATOM     23  H   UNL     1       9.784  13.532  16.401  0.00  0.00    +0.000 HD
BRANCH  22  24
ATOM     24  C   UNL     1       9.410  15.215  17.579  0.00  0.00    +0.000 A 
ATOM     25  C   UNL     1       9.940  16.452  17.953  0.00  0.00    +0.000 A 
ATOM     26  C   UNL     1       9.152  17.370  18.649  0.00  0.00    +0.000 A 
ATOM     27  C   UNL     1       7.834  17.058  18.980  0.00  0.00    +0.000 A 
ATOM     28  C   UNL     1       7.296  15.821  18.611  0.00  0.00    +0.000 A 
ATOM     29  C   UNL     1       8.082  14.900  17.914  0.00  0.00    +0.000 A 
ATOM     30 CL   UNL     1       7.370  13.396  17.454  0.00  0.00    +0.000 Cl
ENDBRANCH  22  24
ENDBRANCH  19  22
ENDBRANCH   6  19
TORSDOF 5
ENDMDL
MODEL 6
REMARK VINA RESULT:      -7.8      5.113      8.933
REMARK  Name = 
REMARK  6 active torsions:
REMARK  status: ('A' for Active; 'I' for Inactive)
REMARK    1  A    between atoms: C_1  and  C_2
REMARK    2  A    between atoms: C_6  and  C_7
REMARK    3  A    between atoms: N_9  and  C_10
REMARK    4  A    between atoms: C_15  and  S_16
REMARK    5  A    between atoms: S_16  and  N_19
REMARK    6  A    between atoms: N_19  and  C_20
REMARK                            x       y       z     vdW  Elec       q    Type
REMARK                         _______ _______ _______ _____ _____    ______ ____
ROOT
ATOM      1  C   UNL     1       1.547   8.382  20.576  0.00  0.00    +0.000 A 
ATOM      2  C   UNL     1       1.584   8.456  21.968  0.00  0.00    +0.000 A 
ATOM      3  C   UNL     1       0.778   9.366  22.659  0.00  0.00    +0.000 A 
ATOM      4  C   UNL     1      -0.096  10.215  21.976  0.00  0.00    +0.000 A 
ATOM      5 CL   UNL     1      -1.095  11.210  22.966  0.00  0.00    +0.000 Cl
ATOM      6  C   UNL     1      -0.120  10.172  20.581  0.00  0.00    +0.000 A 
ATOM      7  C   UNL     1       0.731   9.281  19.886  0.00  0.00    +0.000 A 
ENDROOT
BRANCH   1  10
ATOM      8  C   UNL     1       2.172   6.048  19.977  0.00  0.00    +0.000 C 
ATOM      9  O   UNL     1       1.433   5.455  20.758  0.00  0.00    +0.000 OA
ATOM     10  N   UNL     1       2.280   7.426  19.841  0.00  0.00    +0.000 N 
ATOM     11  H   UNL     1       2.856   7.735  19.061  0.00  0.00    +0.000 HD
BRANCH   8  17
ATOM     12  C   UNL     1       3.470   1.691  18.199  0.00  0.00    +0.000 C 
ATOM     13  C   UNL     1       3.631   3.182  18.189  0.00  0.00    +0.000 A 
ATOM     14  C   UNL     1       4.529   3.782  17.305  0.00  0.00    +0.000 A 
ATOM     15  C   UNL     1       4.658   5.166  17.306  0.00  0.00    +0.000 A 
ATOM     16  C   UNL     1       3.883   5.916  18.178  0.00  0.00    +0.000 A 
ATOM     17  C   UNL     1       3.006   5.246  19.026  0.00  0.00    +0.000 A 
ATOM     18  N   UNL     1       2.867   3.891  19.062  0.00  0.00    +0.000 NA
ENDBRANCH   8  17
ENDBRANCH   1  10
BRANCH   6  19
ATOM     19  S   UNL     1      -1.147  11.230  19.591  0.00  0.00    +0.000 S 
ATOM     20  O   UNL     1      -1.810  12.204  20.429  0.00  0.00    +0.000 OA
ATOM     21  O   UNL     1      -0.350  11.665  18.460  0.00  0.00    +0.000 OA
BRANCH  19  22
ATOM     22  N   UNL     1      -2.361  10.174  19.040  0.00  0.00    +0.000 N 
ATOM     23  H   UNL     1      -3.075  10.096  19.772  0.00  0.00    +0.000 HD
BRANCH  22  24
ATOM     24  C   UNL     1      -2.871  10.397  17.716  0.00  0.00    +0.000 A 
ATOM     25  C   UNL     1      -2.236   9.760  16.647  0.00  0.00    +0.000 A 
ATOM     26  C   UNL     1      -2.673   9.983  15.340  0.00  0.00    +0.000 A 
ATOM     27  C   UNL     1      -3.740  10.845  15.092  0.00  0.00    +0.000 A 
ATOM     28  C   UNL     1      -4.381  11.487  16.156  0.00  0.00    +0.000 A 
ATOM     29  C   UNL     1      -3.946  11.266  17.466  0.00  0.00    +0.000 A 
ATOM     30 CL   UNL     1      -4.783  12.058  18.752  0.00  0.00    +0.000 Cl
ENDBRANCH  22  24
ENDBRANCH  19  22
ENDBRANCH   6  19
TORSDOF 5
ENDMDL
MODEL 7
REMARK VINA RESULT:      -7.8      2.164      2.763
REMARK  Name = 
REMARK  6 active torsions:
REMARK  status: ('A' for Active; 'I' for Inactive)
REMARK    1  A    between atoms: C_1  and  C_2
REMARK    2  A    between atoms: C_6  and  C_7
REMARK    3  A    between atoms: N_9  and  C_10
REMARK    4  A    between atoms: C_15  and  S_16
REMARK    5  A    between atoms: S_16  and  N_19
REMARK    6  A    between atoms: N_19  and  C_20
REMARK                            x       y       z     vdW  Elec       q    Type
REMARK                         _______ _______ _______ _____ _____    ______ ____
ROOT
ATOM      1  C   UNL     1       2.302   6.397  20.113  0.00  0.00    +0.000 A 
ATOM      2  C   UNL     1       1.703   5.171  20.406  0.00  0.00    +0.000 A 
ATOM      3  C   UNL     1       2.417   3.976  20.279  0.00  0.00    +0.000 A 
ATOM      4  C   UNL     1       3.752   3.977  19.869  0.00  0.00    +0.000 A 
ATOM      5 CL   UNL     1       4.528   2.438  19.854  0.00  0.00    +0.000 Cl
ATOM      6  C   UNL     1       4.354   5.193  19.544  0.00  0.00    +0.000 A 
ATOM      7  C   UNL     1       3.612   6.395  19.630  0.00  0.00    +0.000 A 
ENDROOT
BRANCH   1  10
ATOM      8  C   UNL     1       1.476   8.613  19.336  0.00  0.00    +0.000 C 
ATOM      9  O   UNL     1       1.869   8.558  18.175  0.00  0.00    +0.000 OA
ATOM     10  N   UNL     1       1.649   7.633  20.305  0.00  0.00    +0.000 N 
ATOM     11  H   UNL     1       1.152   7.801  21.178  0.00  0.00    +0.000 HD
BRANCH   8  17
ATOM     12  C   UNL     1      -0.606  12.886  18.223  0.00  0.00    +0.000 C 
ATOM     13  C   UNL     1      -0.297  11.836  19.249  0.00  0.00    +0.000 A 
ATOM     14  C   UNL     1      -0.755  11.983  20.559  0.00  0.00    +0.000 A 
ATOM     15  C   UNL     1      -0.466  10.995  21.493  0.00  0.00    +0.000 A 
ATOM     16  C   UNL     1       0.263   9.884  21.096  0.00  0.00    +0.000 A 
ATOM     17  C   UNL     1       0.681   9.806  19.771  0.00  0.00    +0.000 A 
ATOM     18  N   UNL     1       0.428  10.763  18.835  0.00  0.00    +0.000 NA
ENDBRANCH   8  17
ENDBRANCH   1  10
BRANCH   6  19
ATOM     19  S   UNL     1       6.027   5.330  18.963  0.00  0.00    +0.000 S 
ATOM     20  O   UNL     1       6.155   6.470  18.082  0.00  0.00    +0.000 OA
ATOM     21  O   UNL     1       6.894   5.203  20.118  0.00  0.00    +0.000 OA
BRANCH  19  22
ATOM     22  N   UNL     1       6.203   3.952  17.983  0.00  0.00    +0.000 N 
ATOM     23  H   UNL     1       5.569   3.225  18.331  0.00  0.00    +0.000 HD
BRANCH  22  24
ATOM     24  C   UNL     1       6.172   4.152  16.561  0.00  0.00    +0.000 A 
ATOM     25  C   UNL     1       7.357   4.517  15.918  0.00  0.00    +0.000 A 
ATOM     26  C   UNL     1       7.362   4.764  14.544  0.00  0.00    +0.000 A 
ATOM     27  C   UNL     1       6.185   4.653  13.805  0.00  0.00    +0.000 A 
ATOM     28  C   UNL     1       4.993   4.289  14.441  0.00  0.00    +0.000 A 
ATOM     29  C   UNL     1       4.986   4.042  15.817  0.00  0.00    +0.000 A 
ATOM     30 CL   UNL     1       3.499   3.569  16.556  0.00  0.00    +0.000 Cl
ENDBRANCH  22  24
ENDBRANCH  19  22
ENDBRANCH   6  19
TORSDOF 5
ENDMDL
MODEL 8
REMARK VINA RESULT:      -7.8      5.115      8.909
REMARK  Name = 
REMARK  6 active torsions:
REMARK  status: ('A' for Active; 'I' for Inactive)
REMARK    1  A    between atoms: C_1  and  C_2
REMARK    2  A    between atoms: C_6  and  C_7
REMARK    3  A    between atoms: N_9  and  C_10
REMARK    4  A    between atoms: C_15  and  S_16
REMARK    5  A    between atoms: S_16  and  N_19
REMARK    6  A    between atoms: N_19  and  C_20
REMARK                            x       y       z     vdW  Elec       q    Type
REMARK                         _______ _______ _______ _____ _____    ______ ____
ROOT
ATOM      1  C   UNL     1       1.350   8.707  20.475  0.00  0.00    +0.000 A 
ATOM      2  C   UNL     1       1.149   8.499  21.839  0.00  0.00    +0.000 A 
ATOM      3  C   UNL     1       0.353   9.372  22.588  0.00  0.00    +0.000 A 
ATOM      4  C   UNL     1      -0.272  10.468  21.988  0.00  0.00    +0.000 A 
ATOM      5 CL   UNL     1      -1.298  11.395  23.015  0.00  0.00    +0.000 Cl
ATOM      6  C   UNL     1      -0.054  10.705  20.630  0.00  0.00    +0.000 A 
ATOM      7  C   UNL     1       0.789   9.844  19.888  0.00  0.00    +0.000 A 
ENDROOT
BRANCH   1  10
ATOM      8  C   UNL     1       2.162   6.437  19.855  0.00  0.00    +0.000 C 
ATOM      9  O   UNL     1       1.629   5.799  20.759  0.00  0.00    +0.000 OA
ATOM     10  N   UNL     1       2.076   7.809  19.663  0.00  0.00    +0.000 N 
ATOM     11  H   UNL     1       2.484   8.147  18.794  0.00  0.00    +0.000 HD
BRANCH   8  17
ATOM     12  C   UNL     1       5.247   6.535  16.074  0.00  0.00    +0.000 C 
ATOM     13  C   UNL     1       4.389   5.738  17.011  0.00  0.00    +0.000 A 
ATOM     14  C   UNL     1       4.336   4.348  16.898  0.00  0.00    +0.000 A 
ATOM     15  C   UNL     1       3.540   3.627  17.781  0.00  0.00    +0.000 A 
ATOM     16  C   UNL     1       2.827   4.308  18.757  0.00  0.00    +0.000 A 
ATOM     17  C   UNL     1       2.935   5.694  18.809  0.00  0.00    +0.000 A 
ATOM     18  N   UNL     1       3.692   6.432  17.950  0.00  0.00    +0.000 NA
ENDBRANCH   8  17
ENDBRANCH   1  10
BRANCH   6  19
ATOM     19  S   UNL     1      -0.747  12.087  19.757  0.00  0.00    +0.000 S 
ATOM     20  O   UNL     1      -0.707  13.270  20.589  0.00  0.00    +0.000 OA
ATOM     21  O   UNL     1      -0.149  12.105  18.437  0.00  0.00    +0.000 OA
BRANCH  19  22
ATOM     22  N   UNL     1      -2.388  11.664  19.617  0.00  0.00    +0.000 N 
ATOM     23  H   UNL     1      -2.950  12.408  20.043  0.00  0.00    +0.000 HD
BRANCH  22  24
ATOM     24  C   UNL     1      -2.843  11.223  18.328  0.00  0.00    +0.000 A 
ATOM     25  C   UNL     1      -1.999  10.407  17.572  0.00  0.00    +0.000 A 
ATOM     26  C   UNL     1      -2.384   9.992  16.295  0.00  0.00    +0.000 A 
ATOM     27  C   UNL     1      -3.610  10.393  15.766  0.00  0.00    +0.000 A 
ATOM     28  C   UNL     1      -4.461  11.211  16.516  0.00  0.00    +0.000 A 
ATOM     29  C   UNL     1      -4.078  11.628  17.794  0.00  0.00    +0.000 A 
ATOM     30 CL   UNL     1      -5.170  12.615  18.695  0.00  0.00    +0.000 Cl
ENDBRANCH  22  24
ENDBRANCH  19  22
ENDBRANCH   6  19
TORSDOF 5
ENDMDL
MODEL 9
REMARK VINA RESULT:      -7.7      2.245      3.011
REMARK  Name = 
REMARK  6 active torsions:
REMARK  status: ('A' for Active; 'I' for Inactive)
REMARK    1  A    between atoms: C_1  and  C_2
REMARK    2  A    between atoms: C_6  and  C_7
REMARK    3  A    between atoms: N_9  and  C_10
REMARK    4  A    between atoms: C_15  and  S_16
REMARK    5  A    between atoms: S_16  and  N_19
REMARK    6  A    between atoms: N_19  and  C_20
REMARK                            x       y       z     vdW  Elec       q    Type
REMARK                         _______ _______ _______ _____ _____    ______ ____
ROOT
ATOM      1  C   UNL     1       2.007   6.816  20.005  0.00  0.00    +0.000 A 
ATOM      2  C   UNL     1       1.386   6.020  20.966  0.00  0.00    +0.000 A 
ATOM      3  C   UNL     1       1.762   4.686  21.144  0.00  0.00    +0.000 A 
ATOM      4  C   UNL     1       2.780   4.117  20.374  0.00  0.00    +0.000 A 
ATOM      5 CL   UNL     1       3.200   2.495  20.775  0.00  0.00    +0.000 Cl
ATOM      6  C   UNL     1       3.389   4.894  19.388  0.00  0.00    +0.000 A 
ATOM      7  C   UNL     1       2.971   6.230  19.182  0.00  0.00    +0.000 A 
ENDROOT
BRANCH   1  10
ATOM      8  C   UNL     1       1.626   8.858  18.631  0.00  0.00    +0.000 C 
ATOM      9  O   UNL     1       1.788   8.362  17.519  0.00  0.00    +0.000 OA
ATOM     10  N   UNL     1       1.719   8.189  19.844  0.00  0.00    +0.000 N 
ATOM     11  H   UNL     1       1.437   8.734  20.656  0.00  0.00    +0.000 HD
BRANCH   8  17
ATOM     12  C   UNL     1       2.829  13.562  18.132  0.00  0.00    +0.000 C 
ATOM     13  C   UNL     1       1.804  12.530  18.500  0.00  0.00    +0.000 A 
ATOM     14  C   UNL     1       0.530  12.926  18.908  0.00  0.00    +0.000 A 
ATOM     15  C   UNL     1      -0.408  11.954  19.237  0.00  0.00    +0.000 A 
ATOM     16  C   UNL     1      -0.055  10.616  19.144  0.00  0.00    +0.000 A 
ATOM     17  C   UNL     1       1.234  10.300  18.726  0.00  0.00    +0.000 A 
ATOM     18  N   UNL     1       2.182  11.227  18.411  0.00  0.00    +0.000 NA
ENDBRANCH   8  17
ENDBRANCH   1  10
BRANCH   6  19
ATOM     19  S   UNL     1       4.658   4.281  18.309  0.00  0.00    +0.000 S 
ATOM     20  O   UNL     1       5.944   4.346  18.968  0.00  0.00    +0.000 OA
ATOM     21  O   UNL     1       4.186   3.025  17.760  0.00  0.00    +0.000 OA
BRANCH  19  22
ATOM     22  N   UNL     1       4.702   5.446  17.071  0.00  0.00    +0.000 N 
ATOM     23  H   UNL     1       4.853   6.365  17.500  0.00  0.00    +0.000 HD
BRANCH  22  24
ATOM     24  C   UNL     1       5.533   5.164  15.935  0.00  0.00    +0.000 A 
ATOM     25  C   UNL     1       5.006   4.376  14.909  0.00  0.00    +0.000 A 
ATOM     26  C   UNL     1       5.795   4.042  13.806  0.00  0.00    +0.000 A 
ATOM     27  C   UNL     1       7.114   4.486  13.724  0.00  0.00    +0.000 A 
ATOM     28  C   UNL     1       7.650   5.274  14.747  0.00  0.00    +0.000 A 
ATOM     29  C   UNL     1       6.863   5.610  15.852  0.00  0.00    +0.000 A 
ATOM     30 CL   UNL     1       7.556   6.607  17.080  0.00  0.00    +0.000 Cl
ENDBRANCH  22  24
ENDBRANCH  19  22
ENDBRANCH   6  19
TORSDOF 5
ENDMDL
