MODEL 1
REMARK VINA RESULT:      -8.9      0.000      0.000
REMARK  Name = 
REMARK  5 active torsions:
REMARK  status: ('A' for Active; 'I' for Inactive)
REMARK    1  A    between atoms: C_1  and  C_2
REMARK    2  A    between atoms: C_8  and  C_9
REMARK    3  A    between atoms: C_9  and  N_10
REMARK    4  A    between atoms: C_14  and  C_15
REMARK    5  A    between atoms: C_14  and  C_16
REMARK                            x       y       z     vdW  Elec       q    Type
REMARK                         _______ _______ _______ _____ _____    ______ ____
ROOT
ATOM      1  N   UNL     1       3.566   2.653  18.343  0.00  0.00    +0.000 N 
ATOM      2  C   UNL     1       3.806   2.515  19.673  0.00  0.00    +0.000 C 
ATOM      3  O   UNL     1       4.859   2.227  20.223  0.00  0.00    +0.000 OA
ATOM      4  N   UNL     1       2.669   2.869  20.379  0.00  0.00    +0.000 N 
ATOM      5  C   UNL     1       1.785   3.640  19.540  0.00  0.00    +0.000 C 
ATOM      6  C   UNL     1       0.319   3.310  19.796  0.00  0.00    +0.000 C 
ATOM      7  C   UNL     1       2.302   3.157  18.155  0.00  0.00    +0.000 C 
ATOM      8  O   UNL     1       1.755   3.380  17.077  0.00  0.00    +0.000 OA
ATOM      9  H   UNL     1       2.752   3.003  21.375  0.00  0.00    +0.000 HD
ENDROOT
BRANCH   5  10
ATOM     10  C   UNL     1       2.068   5.155  19.594  0.00  0.00    +0.000 A 
ATOM     11  C   UNL     1       2.509   5.912  18.473  0.00  0.00    +0.000 A 
ATOM     12  C   UNL     1       2.435   7.310  18.467  0.00  0.00    +0.000 A 
ATOM     13  C   UNL     1       1.915   7.927  19.583  0.00  0.00    +0.000 A 
ATOM     14  C   UNL     1       1.573   7.213  20.705  0.00  0.00    +0.000 A 
ATOM     15  C   UNL     1       1.649   5.846  20.748  0.00  0.00    +0.000 A 
ATOM     16  O   UNL     1       1.033   7.991  21.680  0.00  0.00    +0.000 OA
ATOM     17  C   UNL     1       0.756   9.166  20.897  0.00  0.00    +0.000 C 
ATOM     18  O   UNL     1       1.579   9.241  19.710  0.00  0.00    +0.000 OA
ENDBRANCH   5  10
BRANCH   1  19
ATOM     19  C   UNL     1       4.603   2.805  17.356  0.00  0.00    +0.000 C 
BRANCH  19  27
ATOM     20  C   UNL     1       8.472   5.500  20.256  0.00  0.00    +0.000 C 
ATOM     21  C   UNL     1       7.847   6.106  19.026  0.00  0.00    +0.000 A 
ATOM     22  C   UNL     1       8.230   7.328  18.583  0.00  0.00    +0.000 A 
ATOM     23  C   UNL     1       7.651   7.950  17.400  0.00  0.00    +0.000 A 
ATOM     24  C   UNL     1       6.692   7.298  16.721  0.00  0.00    +0.000 A 
ATOM     25  N   UNL     1       6.285   6.048  17.171  0.00  0.00    +0.000 N 
ATOM     26  C   UNL     1       5.340   5.195  16.657  0.00  0.00    +0.000 A 
ATOM     27  C   UNL     1       5.343   4.089  17.478  0.00  0.00    +0.000 A 
ATOM     28  N   UNL     1       6.276   4.240  18.481  0.00  0.00    +0.000 NA
ATOM     29  C   UNL     1       6.823   5.421  18.287  0.00  0.00    +0.000 A 
ENDBRANCH  19  27
ENDBRANCH   1  19
TORSDOF 3
ENDMDL
MODEL 2
REMARK VINA RESULT:      -8.4      2.353      5.506
REMARK  Name = 
REMARK  5 active torsions:
REMARK  status: ('A' for Active; 'I' for Inactive)
REMARK    1  A    between atoms: C_1  and  C_2
REMARK    2  A    between atoms: C_8  and  C_9
REMARK    3  A    between atoms: C_9  and  N_10
REMARK    4  A    between atoms: C_14  and  C_15
REMARK    5  A    between atoms: C_14  and  C_16
REMARK                            x       y       z     vdW  Elec       q    Type
REMARK                         _______ _______ _______ _____ _____    ______ ____
ROOT
ATOM      1  N   UNL     1       2.314   3.294  20.328  0.00  0.00    +0.000 N 
ATOM      2  C   UNL     1       1.543   3.196  19.214  0.00  0.00    +0.000 C 
ATOM      3  O   UNL     1       0.488   3.764  18.976  0.00  0.00    +0.000 OA
ATOM      4  N   UNL     1       2.195   2.412  18.277  0.00  0.00    +0.000 N 
ATOM      5  C   UNL     1       3.596   2.312  18.605  0.00  0.00    +0.000 C 
ATOM      6  C   UNL     1       4.156   0.926  18.308  0.00  0.00    +0.000 C 
ATOM      7  C   UNL     1       3.502   2.636  20.123  0.00  0.00    +0.000 C 
ATOM      8  O   UNL     1       4.417   2.506  20.933  0.00  0.00    +0.000 OA
ATOM      9  H   UNL     1       1.840   2.407  17.334  0.00  0.00    +0.000 HD
ENDROOT
BRANCH   5  10
ATOM     10  C   UNL     1       4.445   3.439  17.981  0.00  0.00    +0.000 A 
ATOM     11  C   UNL     1       5.457   4.144  18.691  0.00  0.00    +0.000 A 
ATOM     12  C   UNL     1       6.416   4.909  18.017  0.00  0.00    +0.000 A 
ATOM     13  C   UNL     1       6.348   4.953  16.642  0.00  0.00    +0.000 A 
ATOM     14  C   UNL     1       5.322   4.353  15.955  0.00  0.00    +0.000 A 
ATOM     15  C   UNL     1       4.360   3.610  16.586  0.00  0.00    +0.000 A 
ATOM     16  O   UNL     1       5.456   4.464  14.606  0.00  0.00    +0.000 OA
ATOM     17  C   UNL     1       6.836   4.868  14.554  0.00  0.00    +0.000 C 
ATOM     18  O   UNL     1       7.279   5.471  15.792  0.00  0.00    +0.000 OA
ENDBRANCH   5  10
BRANCH   1  19
ATOM     19  C   UNL     1       2.183   4.348  21.301  0.00  0.00    +0.000 C 
BRANCH  19  27
ATOM     20  C   UNL     1       3.787   7.466  17.017  0.00  0.00    +0.000 C 
ATOM     21  C   UNL     1       2.811   7.982  18.043  0.00  0.00    +0.000 A 
ATOM     22  C   UNL     1       2.282   9.225  17.935  0.00  0.00    +0.000 A 
ATOM     23  C   UNL     1       1.337   9.761  18.904  0.00  0.00    +0.000 A 
ATOM     24  C   UNL     1       0.978   9.006  19.955  0.00  0.00    +0.000 A 
ATOM     25  N   UNL     1       1.521   7.732  20.081  0.00  0.00    +0.000 N 
ATOM     26  C   UNL     1       1.312   6.782  21.049  0.00  0.00    +0.000 A 
ATOM     27  C   UNL     1       2.084   5.699  20.688  0.00  0.00    +0.000 A 
ATOM     28  N   UNL     1       2.757   5.962  19.514  0.00  0.00    +0.000 NA
ATOM     29  C   UNL     1       2.414   7.185  19.171  0.00  0.00    +0.000 A 
ENDBRANCH  19  27
ENDBRANCH   1  19
TORSDOF 3
ENDMDL
MODEL 3
REMARK VINA RESULT:      -8.3      3.125      6.782
REMARK  Name = 
REMARK  5 active torsions:
REMARK  status: ('A' for Active; 'I' for Inactive)
REMARK    1  A    between atoms: C_1  and  C_2
REMARK    2  A    between atoms: C_8  and  C_9
REMARK    3  A    between atoms: C_9  and  N_10
REMARK    4  A    between atoms: C_14  and  C_15
REMARK    5  A    between atoms: C_14  and  C_16
REMARK                            x       y       z     vdW  Elec       q    Type
REMARK                         _______ _______ _______ _____ _____    ______ ____
ROOT
ATOM      1  N   UNL     1       4.052   5.852  18.639  0.00  0.00    +0.000 N 
ATOM      2  C   UNL     1       4.362   4.705  19.297  0.00  0.00    +0.000 C 
ATOM      3  O   UNL     1       3.597   3.861  19.742  0.00  0.00    +0.000 OA
ATOM      4  N   UNL     1       5.737   4.543  19.307  0.00  0.00    +0.000 N 
ATOM      5  C   UNL     1       6.340   5.378  18.297  0.00  0.00    +0.000 C 
ATOM      6  C   UNL     1       7.664   5.972  18.761  0.00  0.00    +0.000 C 
ATOM      7  C   UNL     1       5.200   6.426  18.153  0.00  0.00    +0.000 C 
ATOM      8  O   UNL     1       5.285   7.484  17.533  0.00  0.00    +0.000 OA
ATOM      9  H   UNL     1       6.107   3.649  19.587  0.00  0.00    +0.000 HD
ENDROOT
BRANCH   5  10
ATOM     10  C   UNL     1       6.452   4.681  16.926  0.00  0.00    +0.000 A 
ATOM     11  C   UNL     1       5.496   3.746  16.440  0.00  0.00    +0.000 A 
ATOM     12  C   UNL     1       5.448   3.395  15.085  0.00  0.00    +0.000 A 
ATOM     13  C   UNL     1       6.356   3.991  14.238  0.00  0.00    +0.000 A 
ATOM     14  C   UNL     1       7.341   4.822  14.711  0.00  0.00    +0.000 A 
ATOM     15  C   UNL     1       7.424   5.173  16.033  0.00  0.00    +0.000 A 
ATOM     16  O   UNL     1       8.106   5.350  13.719  0.00  0.00    +0.000 OA
ATOM     17  C   UNL     1       7.259   5.040  12.598  0.00  0.00    +0.000 C 
ATOM     18  O   UNL     1       6.361   3.941  12.876  0.00  0.00    +0.000 OA
ENDBRANCH   5  10
BRANCH   1  19
ATOM     19  C   UNL     1       2.761   6.115  18.057  0.00  0.00    +0.000 C 
BRANCH  19  27
ATOM     20  C   UNL     1       0.887   8.989  22.401  0.00  0.00    +0.000 C 
ATOM     21  C   UNL     1       1.002   9.615  21.035  0.00  0.00    +0.000 A 
ATOM     22  C   UNL     1       0.664  10.911  20.836  0.00  0.00    +0.000 A 
ATOM     23  C   UNL     1       0.759  11.554  19.532  0.00  0.00    +0.000 A 
ATOM     24  C   UNL     1       1.187  10.838  18.480  0.00  0.00    +0.000 A 
ATOM     25  N   UNL     1       1.529   9.504  18.671  0.00  0.00    +0.000 N 
ATOM     26  C   UNL     1       1.989   8.578  17.768  0.00  0.00    +0.000 A 
ATOM     27  C   UNL     1       2.182   7.417  18.484  0.00  0.00    +0.000 A 
ATOM     28  N   UNL     1       1.859   7.612  19.809  0.00  0.00    +0.000 NA
ATOM     29  C   UNL     1       1.462   8.864  19.901  0.00  0.00    +0.000 A 
ENDBRANCH  19  27
ENDBRANCH   1  19
TORSDOF 3
ENDMDL
MODEL 4
REMARK VINA RESULT:      -8.2      2.376      5.800
REMARK  Name = 
REMARK  5 active torsions:
REMARK  status: ('A' for Active; 'I' for Inactive)
REMARK    1  A    between atoms: C_1  and  C_2
REMARK    2  A    between atoms: C_8  and  C_9
REMARK    3  A    between atoms: C_9  and  N_10
REMARK    4  A    between atoms: C_14  and  C_15
REMARK    5  A    between atoms: C_14  and  C_16
REMARK                            x       y       z     vdW  Elec       q    Type
REMARK                         _______ _______ _______ _____ _____    ______ ____
ROOT
ATOM      1  N   UNL     1       2.458   3.496  20.059  0.00  0.00    +0.000 N 
ATOM      2  C   UNL     1       1.683   3.317  18.957  0.00  0.00    +0.000 C 
ATOM      3  O   UNL     1       0.620   3.855  18.688  0.00  0.00    +0.000 OA
ATOM      4  N   UNL     1       2.340   2.481  18.071  0.00  0.00    +0.000 N 
ATOM      5  C   UNL     1       3.744   2.419  18.396  0.00  0.00    +0.000 C 
ATOM      6  C   UNL     1       4.320   1.023  18.188  0.00  0.00    +0.000 C 
ATOM      7  C   UNL     1       3.652   2.841  19.891  0.00  0.00    +0.000 C 
ATOM      8  O   UNL     1       4.572   2.775  20.703  0.00  0.00    +0.000 OA
ATOM      9  H   UNL     1       1.981   2.409  17.132  0.00  0.00    +0.000 HD
ENDROOT
BRANCH   5  10
ATOM     10  C   UNL     1       4.576   3.512  17.696  0.00  0.00    +0.000 A 
ATOM     11  C   UNL     1       5.607   4.249  18.343  0.00  0.00    +0.000 A 
ATOM     12  C   UNL     1       6.548   4.980  17.608  0.00  0.00    +0.000 A 
ATOM     13  C   UNL     1       6.443   4.956  16.235  0.00  0.00    +0.000 A 
ATOM     14  C   UNL     1       5.400   4.325  15.605  0.00  0.00    +0.000 A 
ATOM     15  C   UNL     1       4.454   3.615  16.297  0.00  0.00    +0.000 A 
ATOM     16  O   UNL     1       5.498   4.369  14.249  0.00  0.00    +0.000 OA
ATOM     17  C   UNL     1       6.876   4.767  14.140  0.00  0.00    +0.000 C 
ATOM     18  O   UNL     1       7.351   5.429  15.335  0.00  0.00    +0.000 OA
ENDBRANCH   5  10
BRANCH   1  19
ATOM     19  C   UNL     1       2.318   4.610  20.961  0.00  0.00    +0.000 C 
BRANCH  19  27
ATOM     20  C   UNL     1       0.034   9.636  21.364  0.00  0.00    +0.000 C 
ATOM     21  C   UNL     1       0.902   9.259  20.192  0.00  0.00    +0.000 A 
ATOM     22  C   UNL     1       1.163  10.152  19.207  0.00  0.00    +0.000 A 
ATOM     23  C   UNL     1       1.996   9.828  18.056  0.00  0.00    +0.000 A 
ATOM     24  C   UNL     1       2.521   8.595  17.955  0.00  0.00    +0.000 A 
ATOM     25  N   UNL     1       2.252   7.669  18.956  0.00  0.00    +0.000 N 
ATOM     26  C   UNL     1       2.668   6.367  19.080  0.00  0.00    +0.000 A 
ATOM     27  C   UNL     1       2.127   5.908  20.261  0.00  0.00    +0.000 A 
ATOM     28  N   UNL     1       1.395   6.905  20.870  0.00  0.00    +0.000 NA
ATOM     29  C   UNL     1       1.474   7.947  20.071  0.00  0.00    +0.000 A 
ENDBRANCH  19  27
ENDBRANCH   1  19
TORSDOF 3
ENDMDL
MODEL 5
REMARK VINA RESULT:      -8.1      3.627      6.451
REMARK  Name = 
REMARK  5 active torsions:
REMARK  status: ('A' for Active; 'I' for Inactive)
REMARK    1  A    between atoms: C_1  and  C_2
REMARK    2  A    between atoms: C_8  and  C_9
REMARK    3  A    between atoms: C_9  and  N_10
REMARK    4  A    between atoms: C_14  and  C_15
REMARK    5  A    between atoms: C_14  and  C_16
REMARK                            x       y       z     vdW  Elec       q    Type
REMARK                         _______ _______ _______ _____ _____    ______ ____
ROOT
ATOM      1  N   UNL     1       1.375   8.524  19.683  0.00  0.00    +0.000 N 
ATOM      2  C   UNL     1       0.596   8.896  20.733  0.00  0.00    +0.000 C 
ATOM      3  O   UNL     1       0.651   8.502  21.888  0.00  0.00    +0.000 OA
ATOM      4  N   UNL     1      -0.246   9.920  20.334  0.00  0.00    +0.000 N 
ATOM      5  C   UNL     1       0.246  10.521  19.118  0.00  0.00    +0.000 C 
ATOM      6  C   UNL     1      -0.885  10.912  18.174  0.00  0.00    +0.000 C 
ATOM      7  C   UNL     1       1.106   9.331  18.605  0.00  0.00    +0.000 C 
ATOM      8  O   UNL     1       1.612   9.253  17.488  0.00  0.00    +0.000 OA
ATOM      9  H   UNL     1      -0.744  10.429  21.047  0.00  0.00    +0.000 HD
ENDROOT
BRANCH   5  10
ATOM     10  C   UNL     1       1.232  11.679  19.373  0.00  0.00    +0.000 A 
ATOM     11  C   UNL     1       1.946  12.344  18.337  0.00  0.00    +0.000 A 
ATOM     12  C   UNL     1       2.561  13.582  18.559  0.00  0.00    +0.000 A 
ATOM     13  C   UNL     1       2.445  14.136  19.815  0.00  0.00    +0.000 A 
ATOM     14  C   UNL     1       1.838  13.462  20.845  0.00  0.00    +0.000 A 
ATOM     15  C   UNL     1       1.241  12.242  20.664  0.00  0.00    +0.000 A 
ATOM     16  O   UNL     1       1.779  14.192  21.990  0.00  0.00    +0.000 OA
ATOM     17  C   UNL     1       2.081  15.488  21.442  0.00  0.00    +0.000 C 
ATOM     18  O   UNL     1       2.795  15.400  20.188  0.00  0.00    +0.000 OA
ENDBRANCH   5  10
BRANCH   1  19
ATOM     19  C   UNL     1       2.629   7.832  19.824  0.00  0.00    +0.000 C 
BRANCH  19  27
ATOM     20  C   UNL     1       1.366   2.734  21.574  0.00  0.00    +0.000 C 
ATOM     21  C   UNL     1       1.740   3.002  20.139  0.00  0.00    +0.000 A 
ATOM     22  C   UNL     1       1.760   1.999  19.228  0.00  0.00    +0.000 A 
ATOM     23  C   UNL     1       2.117   2.216  17.832  0.00  0.00    +0.000 A 
ATOM     24  C   UNL     1       2.450   3.452  17.427  0.00  0.00    +0.000 A 
ATOM     25  N   UNL     1       2.441   4.487  18.355  0.00  0.00    +0.000 N 
ATOM     26  C   UNL     1       2.735   5.817  18.188  0.00  0.00    +0.000 A 
ATOM     27  C   UNL     1       2.555   6.401  19.423  0.00  0.00    +0.000 A 
ATOM     28  N   UNL     1       2.149   5.459  20.343  0.00  0.00    +0.000 NA
ATOM     29  C   UNL     1       2.095   4.319  19.688  0.00  0.00    +0.000 A 
ENDBRANCH  19  27
ENDBRANCH   1  19
TORSDOF 3
ENDMDL
MODEL 6
REMARK VINA RESULT:      -8.1      1.907      5.059
REMARK  Name = 
REMARK  5 active torsions:
REMARK  status: ('A' for Active; 'I' for Inactive)
REMARK    1  A    between atoms: C_1  and  C_2
REMARK    2  A    between atoms: C_8  and  C_9
REMARK    3  A    between atoms: C_9  and  N_10
REMARK    4  A    between atoms: C_14  and  C_15
REMARK    5  A    between atoms: C_14  and  C_16
REMARK                            x       y       z     vdW  Elec       q    Type
REMARK                         _______ _______ _______ _____ _____    ______ ____
ROOT
ATOM      1  N   UNL     1       5.860   4.186  16.386  0.00  0.00    +0.000 N 
ATOM      2  C   UNL     1       5.590   4.935  15.285  0.00  0.00    +0.000 C 
ATOM      3  O   UNL     1       5.127   4.563  14.216  0.00  0.00    +0.000 OA
ATOM      4  N   UNL     1       5.814   6.269  15.576  0.00  0.00    +0.000 N 
ATOM      5  C   UNL     1       5.846   6.466  17.005  0.00  0.00    +0.000 C 
ATOM      6  C   UNL     1       6.890   7.496  17.417  0.00  0.00    +0.000 C 
ATOM      7  C   UNL     1       6.200   5.012  17.429  0.00  0.00    +0.000 C 
ATOM      8  O   UNL     1       6.529   4.665  18.561  0.00  0.00    +0.000 OA
ATOM      9  H   UNL     1       5.475   6.960  14.925  0.00  0.00    +0.000 HD
ENDROOT
BRANCH   5  10
ATOM     10  C   UNL     1       4.456   6.757  17.606  0.00  0.00    +0.000 A 
ATOM     11  C   UNL     1       3.975   6.151  18.800  0.00  0.00    +0.000 A 
ATOM     12  C   UNL     1       2.874   6.676  19.488  0.00  0.00    +0.000 A 
ATOM     13  C   UNL     1       2.276   7.803  18.969  0.00  0.00    +0.000 A 
ATOM     14  C   UNL     1       2.674   8.341  17.771  0.00  0.00    +0.000 A 
ATOM     15  C   UNL     1       3.737   7.841  17.066  0.00  0.00    +0.000 A 
ATOM     16  O   UNL     1       1.997   9.477  17.453  0.00  0.00    +0.000 OA
ATOM     17  C   UNL     1       1.421   9.759  18.740  0.00  0.00    +0.000 C 
ATOM     18  O   UNL     1       1.329   8.578  19.570  0.00  0.00    +0.000 OA
ENDBRANCH   5  10
BRANCH   1  19
ATOM     19  C   UNL     1       5.336   2.862  16.600  0.00  0.00    +0.000 C 
BRANCH  19  27
ATOM     20  C   UNL     1       3.308   2.083  21.692  0.00  0.00    +0.000 C 
ATOM     21  C   UNL     1       2.427   2.532  20.555  0.00  0.00    +0.000 A 
ATOM     22  C   UNL     1       1.109   2.776  20.753  0.00  0.00    +0.000 A 
ATOM     23  C   UNL     1       0.223   3.210  19.682  0.00  0.00    +0.000 A 
ATOM     24  C   UNL     1       0.721   3.368  18.444  0.00  0.00    +0.000 A 
ATOM     25  N   UNL     1       2.070   3.112  18.228  0.00  0.00    +0.000 N 
ATOM     26  C   UNL     1       2.805   3.201  17.072  0.00  0.00    +0.000 A 
ATOM     27  C   UNL     1       4.092   2.850  17.415  0.00  0.00    +0.000 A 
ATOM     28  N   UNL     1       4.165   2.555  18.759  0.00  0.00    +0.000 NA
ATOM     29  C   UNL     1       2.945   2.708  19.227  0.00  0.00    +0.000 A 
ENDBRANCH  19  27
ENDBRANCH   1  19
TORSDOF 3
ENDMDL
MODEL 7
REMARK VINA RESULT:      -8.0      3.290      7.389
REMARK  Name = 
REMARK  5 active torsions:
REMARK  status: ('A' for Active; 'I' for Inactive)
REMARK    1  A    between atoms: C_1  and  C_2
REMARK    2  A    between atoms: C_8  and  C_9
REMARK    3  A    between atoms: C_9  and  N_10
REMARK    4  A    between atoms: C_14  and  C_15
REMARK    5  A    between atoms: C_14  and  C_16
REMARK                            x       y       z     vdW  Elec       q    Type
REMARK                         _______ _______ _______ _____ _____    ______ ____
ROOT
ATOM      1  N   UNL     1       4.303   6.250  17.580  0.00  0.00    +0.000 N 
ATOM      2  C   UNL     1       3.962   4.935  17.605  0.00  0.00    +0.000 C 
ATOM      3  O   UNL     1       2.843   4.446  17.575  0.00  0.00    +0.000 OA
ATOM      4  N   UNL     1       5.112   4.166  17.556  0.00  0.00    +0.000 N 
ATOM      5  C   UNL     1       6.220   4.961  17.085  0.00  0.00    +0.000 C 
ATOM      6  C   UNL     1       7.520   4.612  17.798  0.00  0.00    +0.000 C 
ATOM      7  C   UNL     1       5.665   6.368  17.450  0.00  0.00    +0.000 C 
ATOM      8  O   UNL     1       6.310   7.413  17.420  0.00  0.00    +0.000 OA
ATOM      9  H   UNL     1       5.016   3.179  17.374  0.00  0.00    +0.000 HD
ENDROOT
BRANCH   5  10
ATOM     10  C   UNL     1       6.364   4.947  15.550  0.00  0.00    +0.000 A 
ATOM     11  C   UNL     1       7.541   5.366  14.868  0.00  0.00    +0.000 A 
ATOM     12  C   UNL     1       7.760   5.032  13.526  0.00  0.00    +0.000 A 
ATOM     13  C   UNL     1       6.798   4.278  12.890  0.00  0.00    +0.000 A 
ATOM     14  C   UNL     1       5.619   3.948  13.510  0.00  0.00    +0.000 A 
ATOM     15  C   UNL     1       5.367   4.273  14.817  0.00  0.00    +0.000 A 
ATOM     16  O   UNL     1       4.821   3.161  12.740  0.00  0.00    +0.000 OA
ATOM     17  C   UNL     1       5.790   2.761  11.754  0.00  0.00    +0.000 C 
ATOM     18  O   UNL     1       6.897   3.688  11.666  0.00  0.00    +0.000 OA
ENDBRANCH   5  10
BRANCH   1  19
ATOM     19  C   UNL     1       3.404   7.300  17.179  0.00  0.00    +0.000 C 
BRANCH  19  27
ATOM     20  C   UNL     1      -0.054  11.358  18.671  0.00  0.00    +0.000 C 
ATOM     21  C   UNL     1       0.308  10.245  19.620  0.00  0.00    +0.000 A 
ATOM     22  C   UNL     1      -0.220  10.197  20.867  0.00  0.00    +0.000 A 
ATOM     23  C   UNL     1       0.104   9.140  21.815  0.00  0.00    +0.000 A 
ATOM     24  C   UNL     1       0.967   8.177  21.451  0.00  0.00    +0.000 A 
ATOM     25  N   UNL     1       1.522   8.221  20.178  0.00  0.00    +0.000 N 
ATOM     26  C   UNL     1       2.412   7.365  19.579  0.00  0.00    +0.000 A 
ATOM     27  C   UNL     1       2.620   7.863  18.311  0.00  0.00    +0.000 A 
ATOM     28  N   UNL     1       1.870   9.002  18.116  0.00  0.00    +0.000 NA
ATOM     29  C   UNL     1       1.226   9.206  19.245  0.00  0.00    +0.000 A 
ENDBRANCH  19  27
ENDBRANCH   1  19
TORSDOF 3
ENDMDL
MODEL 8
REMARK VINA RESULT:      -7.9      3.121      7.056
REMARK  Name = 
REMARK  5 active torsions:
REMARK  status: ('A' for Active; 'I' for Inactive)
REMARK    1  A    between atoms: C_1  and  C_2
REMARK    2  A    between atoms: C_8  and  C_9
REMARK    3  A    between atoms: C_9  and  N_10
REMARK    4  A    between atoms: C_14  and  C_15
REMARK    5  A    between atoms: C_14  and  C_16
REMARK                            x       y       z     vdW  Elec       q    Type
REMARK                         _______ _______ _______ _____ _____    ______ ____
ROOT
ATOM      1  N   UNL     1       4.257   5.891  18.702  0.00  0.00    +0.000 N 
ATOM      2  C   UNL     1       4.420   4.666  19.266  0.00  0.00    +0.000 C 
ATOM      3  O   UNL     1       3.555   3.899  19.663  0.00  0.00    +0.000 OA
ATOM      4  N   UNL     1       5.761   4.324  19.233  0.00  0.00    +0.000 N 
ATOM      5  C   UNL     1       6.458   5.147  18.275  0.00  0.00    +0.000 C 
ATOM      6  C   UNL     1       7.855   5.524  18.752  0.00  0.00    +0.000 C 
ATOM      7  C   UNL     1       5.466   6.344  18.235  0.00  0.00    +0.000 C 
ATOM      8  O   UNL     1       5.684   7.426  17.693  0.00  0.00    +0.000 OA
ATOM      9  H   UNL     1       6.012   3.370  19.437  0.00  0.00    +0.000 HD
ENDROOT
BRANCH   5  10
ATOM     10  C   UNL     1       6.460   4.549  16.853  0.00  0.00    +0.000 A 
ATOM     11  C   UNL     1       5.384   3.785  16.322  0.00  0.00    +0.000 A 
ATOM     12  C   UNL     1       5.272   3.548  14.946  0.00  0.00    +0.000 A 
ATOM     13  C   UNL     1       6.238   4.085  14.125  0.00  0.00    +0.000 A 
ATOM     14  C   UNL     1       7.329   4.744  14.635  0.00  0.00    +0.000 A 
ATOM     15  C   UNL     1       7.476   4.979  15.977  0.00  0.00    +0.000 A 
ATOM     16  O   UNL     1       8.143   5.243  13.667  0.00  0.00    +0.000 OA
ATOM     17  C   UNL     1       7.248   5.132  12.546  0.00  0.00    +0.000 C 
ATOM     18  O   UNL     1       6.218   4.140  12.763  0.00  0.00    +0.000 OA
ENDBRANCH   5  10
BRANCH   1  19
ATOM     19  C   UNL     1       3.007   6.366  18.170  0.00  0.00    +0.000 C 
BRANCH  19  27
ATOM     20  C   UNL     1       0.752  11.411  18.499  0.00  0.00    +0.000 C 
ATOM     21  C   UNL     1       0.676  10.440  19.649  0.00  0.00    +0.000 A 
ATOM     22  C   UNL     1       0.035  10.771  20.795  0.00  0.00    +0.000 A 
ATOM     23  C   UNL     1      -0.061   9.862  21.930  0.00  0.00    +0.000 A 
ATOM     24  C   UNL     1       0.516   8.652  21.848  0.00  0.00    +0.000 A 
ATOM     25  N   UNL     1       1.184   8.305  20.680  0.00  0.00    +0.000 N 
ATOM     26  C   UNL     1       1.841   7.144  20.357  0.00  0.00    +0.000 A 
ATOM     27  C   UNL     1       2.312   7.321  19.074  0.00  0.00    +0.000 A 
ATOM     28  N   UNL     1       1.950   8.563  18.599  0.00  0.00    +0.000 NA
ATOM     29  C   UNL     1       1.284   9.140  19.576  0.00  0.00    +0.000 A 
ENDBRANCH  19  27
ENDBRANCH   1  19
TORSDOF 3
ENDMDL
MODEL 9
REMARK VINA RESULT:      -7.8      3.650      6.521
REMARK  Name = 
REMARK  5 active torsions:
REMARK  status: ('A' for Active; 'I' for Inactive)
REMARK    1  A    between atoms: C_1  and  C_2
REMARK    2  A    between atoms: C_8  and  C_9
REMARK    3  A    between atoms: C_9  and  N_10
REMARK    4  A    between atoms: C_14  and  C_15
REMARK    5  A    between atoms: C_14  and  C_16
REMARK                            x       y       z     vdW  Elec       q    Type
REMARK                         _______ _______ _______ _____ _____    ______ ____
ROOT
ATOM      1  N   UNL     1       1.060   8.553  20.062  0.00  0.00    +0.000 N 
ATOM      2  C   UNL     1       0.265   9.108  21.014  0.00  0.00    +0.000 C 
ATOM      3  O   UNL     1       0.210   8.834  22.203  0.00  0.00    +0.000 OA
ATOM      4  N   UNL     1      -0.441  10.161  20.458  0.00  0.00    +0.000 N 
ATOM      5  C   UNL     1       0.182  10.580  19.227  0.00  0.00    +0.000 C 
ATOM      6  C   UNL     1      -0.844  10.979  18.173  0.00  0.00    +0.000 C 
ATOM      7  C   UNL     1       0.941   9.264  18.894  0.00  0.00    +0.000 C 
ATOM      8  O   UNL     1       1.501   9.020  17.827  0.00  0.00    +0.000 OA
ATOM      9  H   UNL     1      -0.924  10.789  21.082  0.00  0.00    +0.000 HD
ENDROOT
BRANCH   5  10
ATOM     10  C   UNL     1       1.266  11.656  19.434  0.00  0.00    +0.000 A 
ATOM     11  C   UNL     1       2.031  12.214  18.371  0.00  0.00    +0.000 A 
ATOM     12  C   UNL     1       2.753  13.401  18.543  0.00  0.00    +0.000 A 
ATOM     13  C   UNL     1       2.693  14.013  19.775  0.00  0.00    +0.000 A 
ATOM     14  C   UNL     1       2.035  13.436  20.833  0.00  0.00    +0.000 A 
ATOM     15  C   UNL     1       1.332  12.267  20.701  0.00  0.00    +0.000 A 
ATOM     16  O   UNL     1       2.046  14.213  21.948  0.00  0.00    +0.000 OA
ATOM     17  C   UNL     1       2.457  15.454  21.349  0.00  0.00    +0.000 C 
ATOM     18  O   UNL     1       3.155  15.254  20.097  0.00  0.00    +0.000 OA
ENDBRANCH   5  10
BRANCH   1  19
ATOM     19  C   UNL     1       2.225   7.759  20.357  0.00  0.00    +0.000 C 
BRANCH  19  27
ATOM     20  C   UNL     1       4.065   3.926  16.813  0.00  0.00    +0.000 C 
ATOM     21  C   UNL     1       3.086   3.581  17.905  0.00  0.00    +0.000 A 
ATOM     22  C   UNL     1       2.641   2.311  18.061  0.00  0.00    +0.000 A 
ATOM     23  C   UNL     1       1.694   1.936  19.103  0.00  0.00    +0.000 A 
ATOM     24  C   UNL     1       1.233   2.881  19.939  0.00  0.00    +0.000 A 
ATOM     25  N   UNL     1       1.677   4.189  19.782  0.00  0.00    +0.000 N 
ATOM     26  C   UNL     1       1.359   5.314  20.500  0.00  0.00    +0.000 A 
ATOM     27  C   UNL     1       2.087   6.339  19.936  0.00  0.00    +0.000 A 
ATOM     28  N   UNL     1       2.851   5.865  18.892  0.00  0.00    +0.000 NA
ATOM     29  C   UNL     1       2.586   4.579  18.809  0.00  0.00    +0.000 A 
ENDBRANCH  19  27
ENDBRANCH   1  19
TORSDOF 3
ENDMDL
