MODEL 1
REMARK VINA RESULT:      -8.0      0.000      0.000
REMARK  Name = 
REMARK  6 active torsions:
REMARK  status: ('A' for Active; 'I' for Inactive)
REMARK    1  A    between atoms: C_1  and  C_2
REMARK    2  A    between atoms: C_2  and  C_3
REMARK    3  A    between atoms: C_3  and  C_5
REMARK    4  A    between atoms: C_5  and  C_6
REMARK    5  A    between atoms: C_10  and  N_11
REMARK    6  A    between atoms: C_18  and  C_19
REMARK                            x       y       z     vdW  Elec       q    Type
REMARK                         _______ _______ _______ _____ _____    ______ ____
ROOT
ATOM      1  N   UNL     1       3.299   5.937  20.126  0.00  0.00    +0.000 N 
ATOM      2  C   UNL     1       4.455   5.643  19.247  0.00  0.00    +0.000 C 
ATOM      3  C   UNL     1       3.993   4.419  18.518  0.00  0.00    +0.000 A 
ATOM      4  C   UNL     1       3.087   3.758  19.352  0.00  0.00    +0.000 A 
ATOM      5  C   UNL     1       2.357   2.657  18.948  0.00  0.00    +0.000 A 
ATOM      6  C   UNL     1       2.541   2.217  17.640  0.00  0.00    +0.000 A 
ATOM      7  C   UNL     1       3.430   2.889  16.776  0.00  0.00    +0.000 A 
ATOM      8  C   UNL     1       4.179   4.009  17.204  0.00  0.00    +0.000 A 
ATOM      9  C   UNL     1       2.754   4.674  20.470  0.00  0.00    +0.000 C 
ATOM     10  O   UNL     1       1.994   4.393  21.378  0.00  0.00    +0.000 OA
ENDROOT
BRANCH   1  15
ATOM     11  C   UNL     1       1.186   8.918  19.890  0.00  0.00    +0.000 A 
ATOM     12  C   UNL     1       1.678   9.416  18.675  0.00  0.00    +0.000 A 
ATOM     13  C   UNL     1       2.352   8.588  17.786  0.00  0.00    +0.000 A 
ATOM     14  C   UNL     1       2.655   7.285  18.156  0.00  0.00    +0.000 A 
ATOM     15  C   UNL     1       2.382   6.853  19.463  0.00  0.00    +0.000 A 
ATOM     16  C   UNL     1       1.523   7.614  20.269  0.00  0.00    +0.000 A 
BRANCH  11  17
ATOM     17  C   UNL     1       0.417   9.818  20.829  0.00  0.00    +0.000 C 
BRANCH  17  18
ATOM     18  C   UNL     1      -0.030   9.096  22.102  0.00  0.00    +0.000 C 
ATOM     19  F   UNL     1      -0.981   8.168  21.782  0.00  0.00    +0.000 F 
BRANCH  18  21
ATOM     20  C   UNL     1      -0.741  11.458  22.527  0.00  0.00    +0.000 C 
ATOM     21  C   UNL     1      -0.668  10.053  23.102  0.00  0.00    +0.000 C 
ENDBRANCH  18  21
ENDBRANCH  17  18
ENDBRANCH  11  17
ENDBRANCH   1  15
BRANCH   8  22
ATOM     22  C   UNL     1       5.005   4.761  16.201  0.00  0.00    +0.000 C 
ATOM     23  F   UNL     1       6.334   4.814  16.495  0.00  0.00    +0.000 F 
ATOM     24  F   UNL     1       4.938   4.196  14.962  0.00  0.00    +0.000 F 
ATOM     25  F   UNL     1       4.607   6.052  16.038  0.00  0.00    +0.000 F 
ENDBRANCH   8  22
TORSDOF 5
ENDMDL
MODEL 2
REMARK VINA RESULT:      -8.0      2.166      3.068
REMARK  Name = 
REMARK  6 active torsions:
REMARK  status: ('A' for Active; 'I' for Inactive)
REMARK    1  A    between atoms: C_1  and  C_2
REMARK    2  A    between atoms: C_2  and  C_3
REMARK    3  A    between atoms: C_3  and  C_5
REMARK    4  A    between atoms: C_5  and  C_6
REMARK    5  A    between atoms: C_10  and  N_11
REMARK    6  A    between atoms: C_18  and  C_19
REMARK                            x       y       z     vdW  Elec       q    Type
REMARK                         _______ _______ _______ _____ _____    ______ ____
ROOT
ATOM      1  N   UNL     1       4.172   4.519  19.138  0.00  0.00    +0.000 N 
ATOM      2  C   UNL     1       5.514   5.138  19.240  0.00  0.00    +0.000 C 
ATOM      3  C   UNL     1       6.021   5.026  17.835  0.00  0.00    +0.000 A 
ATOM      4  C   UNL     1       5.393   3.919  17.256  0.00  0.00    +0.000 A 
ATOM      5  C   UNL     1       5.522   3.595  15.919  0.00  0.00    +0.000 A 
ATOM      6  C   UNL     1       6.306   4.435  15.133  0.00  0.00    +0.000 A 
ATOM      7  C   UNL     1       6.923   5.571  15.695  0.00  0.00    +0.000 A 
ATOM      8  C   UNL     1       6.793   5.888  17.067  0.00  0.00    +0.000 A 
ATOM      9  C   UNL     1       4.299   3.496  18.164  0.00  0.00    +0.000 C 
ATOM     10  O   UNL     1       3.564   2.550  17.951  0.00  0.00    +0.000 OA
ENDROOT
BRANCH   1  15
ATOM     11  C   UNL     1       1.849   7.220  19.985  0.00  0.00    +0.000 A 
ATOM     12  C   UNL     1       2.261   8.148  19.017  0.00  0.00    +0.000 A 
ATOM     13  C   UNL     1       2.958   7.738  17.887  0.00  0.00    +0.000 A 
ATOM     14  C   UNL     1       3.364   6.416  17.772  0.00  0.00    +0.000 A 
ATOM     15  C   UNL     1       3.169   5.535  18.848  0.00  0.00    +0.000 A 
ATOM     16  C   UNL     1       2.290   5.897  19.878  0.00  0.00    +0.000 A 
BRANCH  11  17
ATOM     17  C   UNL     1       1.055   7.673  21.187  0.00  0.00    +0.000 C 
BRANCH  17  18
ATOM     18  C   UNL     1       1.286   9.149  21.522  0.00  0.00    +0.000 C 
ATOM     19  F   UNL     1       1.980   9.240  22.696  0.00  0.00    +0.000 F 
BRANCH  18  21
ATOM     20  C   UNL     1      -0.485   9.783  23.175  0.00  0.00    +0.000 C 
ATOM     21  C   UNL     1      -0.027   9.895  21.729  0.00  0.00    +0.000 C 
ENDBRANCH  18  21
ENDBRANCH  17  18
ENDBRANCH  11  17
ENDBRANCH   1  15
BRANCH   8  22
ATOM     22  C   UNL     1       7.361   7.181  17.575  0.00  0.00    +0.000 C 
ATOM     23  F   UNL     1       6.428   8.132  17.857  0.00  0.00    +0.000 F 
ATOM     24  F   UNL     1       8.055   7.010  18.736  0.00  0.00    +0.000 F 
ATOM     25  F   UNL     1       8.234   7.761  16.707  0.00  0.00    +0.000 F 
ENDBRANCH   8  22
TORSDOF 5
ENDMDL
MODEL 3
REMARK VINA RESULT:      -7.8      1.824      2.534
REMARK  Name = 
REMARK  6 active torsions:
REMARK  status: ('A' for Active; 'I' for Inactive)
REMARK    1  A    between atoms: C_1  and  C_2
REMARK    2  A    between atoms: C_2  and  C_3
REMARK    3  A    between atoms: C_3  and  C_5
REMARK    4  A    between atoms: C_5  and  C_6
REMARK    5  A    between atoms: C_10  and  N_11
REMARK    6  A    between atoms: C_18  and  C_19
REMARK                            x       y       z     vdW  Elec       q    Type
REMARK                         _______ _______ _______ _____ _____    ______ ____
ROOT
ATOM      1  N   UNL     1       3.570   4.691  19.366  0.00  0.00    +0.000 N 
ATOM      2  C   UNL     1       4.977   5.153  19.390  0.00  0.00    +0.000 C 
ATOM      3  C   UNL     1       5.397   4.959  17.965  0.00  0.00    +0.000 A 
ATOM      4  C   UNL     1       4.619   3.921  17.443  0.00  0.00    +0.000 A 
ATOM      5  C   UNL     1       4.644   3.560  16.109  0.00  0.00    +0.000 A 
ATOM      6  C   UNL     1       5.478   4.291  15.268  0.00  0.00    +0.000 A 
ATOM      7  C   UNL     1       6.247   5.359  15.772  0.00  0.00    +0.000 A 
ATOM      8  C   UNL     1       6.222   5.713  17.141  0.00  0.00    +0.000 A 
ATOM      9  C   UNL     1       3.531   3.643  18.411  0.00  0.00    +0.000 C 
ATOM     10  O   UNL     1       2.684   2.783  18.256  0.00  0.00    +0.000 OA
ENDROOT
BRANCH   1  15
ATOM     11  C   UNL     1       1.873   7.838  20.157  0.00  0.00    +0.000 A 
ATOM     12  C   UNL     1       2.188   8.535  18.981  0.00  0.00    +0.000 A 
ATOM     13  C   UNL     1       2.563   7.857  17.828  0.00  0.00    +0.000 A 
ATOM     14  C   UNL     1       2.752   6.482  17.871  0.00  0.00    +0.000 A 
ATOM     15  C   UNL     1       2.676   5.809  19.100  0.00  0.00    +0.000 A 
ATOM     16  C   UNL     1       2.097   6.458  20.200  0.00  0.00    +0.000 A 
BRANCH  11  17
ATOM     17  C   UNL     1       1.426   8.586  21.391  0.00  0.00    +0.000 C 
BRANCH  17  18
ATOM     18  C   UNL     1      -0.098   8.683  21.499  0.00  0.00    +0.000 C 
ATOM     19  F   UNL     1      -0.563   9.539  20.541  0.00  0.00    +0.000 F 
BRANCH  18  21
ATOM     20  C   UNL     1      -0.798  10.743  22.737  0.00  0.00    +0.000 C 
ATOM     21  C   UNL     1      -0.535   9.249  22.845  0.00  0.00    +0.000 C 
ENDBRANCH  18  21
ENDBRANCH  17  18
ENDBRANCH  11  17
ENDBRANCH   1  15
BRANCH   8  22
ATOM     22  C   UNL     1       6.959   6.941  17.591  0.00  0.00    +0.000 C 
ATOM     23  F   UNL     1       7.912   7.375  16.721  0.00  0.00    +0.000 F 
ATOM     24  F   UNL     1       6.120   8.004  17.757  0.00  0.00    +0.000 F 
ATOM     25  F   UNL     1       7.589   6.781  18.786  0.00  0.00    +0.000 F 
ENDBRANCH   8  22
TORSDOF 5
ENDMDL
MODEL 4
REMARK VINA RESULT:      -7.8      3.162      4.118
REMARK  Name = 
REMARK  6 active torsions:
REMARK  status: ('A' for Active; 'I' for Inactive)
REMARK    1  A    between atoms: C_1  and  C_2
REMARK    2  A    between atoms: C_2  and  C_3
REMARK    3  A    between atoms: C_3  and  C_5
REMARK    4  A    between atoms: C_5  and  C_6
REMARK    5  A    between atoms: C_10  and  N_11
REMARK    6  A    between atoms: C_18  and  C_19
REMARK                            x       y       z     vdW  Elec       q    Type
REMARK                         _______ _______ _______ _____ _____    ______ ____
ROOT
ATOM      1  N   UNL     1       2.655   6.360  17.560  0.00  0.00    +0.000 N 
ATOM      2  C   UNL     1       1.750   5.211  17.794  0.00  0.00    +0.000 C 
ATOM      3  C   UNL     1       2.626   4.273  18.567  0.00  0.00    +0.000 A 
ATOM      4  C   UNL     1       3.947   4.538  18.194  0.00  0.00    +0.000 A 
ATOM      5  C   UNL     1       5.035   3.951  18.810  0.00  0.00    +0.000 A 
ATOM      6  C   UNL     1       4.775   3.070  19.857  0.00  0.00    +0.000 A 
ATOM      7  C   UNL     1       3.450   2.814  20.265  0.00  0.00    +0.000 A 
ATOM      8  C   UNL     1       2.343   3.413  19.620  0.00  0.00    +0.000 A 
ATOM      9  C   UNL     1       3.950   5.801  17.417  0.00  0.00    +0.000 C 
ATOM     10  O   UNL     1       4.949   6.304  16.937  0.00  0.00    +0.000 OA
ENDROOT
BRANCH   1  15
ATOM     11  C   UNL     1       1.206   9.302  19.190  0.00  0.00    +0.000 A 
ATOM     12  C   UNL     1       0.937   8.726  20.440  0.00  0.00    +0.000 A 
ATOM     13  C   UNL     1       1.592   7.570  20.848  0.00  0.00    +0.000 A 
ATOM     14  C   UNL     1       2.428   6.905  19.962  0.00  0.00    +0.000 A 
ATOM     15  C   UNL     1       2.513   7.339  18.629  0.00  0.00    +0.000 A 
ATOM     16  C   UNL     1       2.024   8.609  18.291  0.00  0.00    +0.000 A 
BRANCH  11  17
ATOM     17  C   UNL     1       0.519  10.583  18.776  0.00  0.00    +0.000 C 
BRANCH  17  18
ATOM     18  C   UNL     1      -0.944  10.364  18.381  0.00  0.00    +0.000 C 
ATOM     19  F   UNL     1      -0.995   9.576  17.266  0.00  0.00    +0.000 F 
BRANCH  18  21
ATOM     20  C   UNL     1      -2.974  11.407  17.353  0.00  0.00    +0.000 C 
ATOM     21  C   UNL     1      -1.637  11.673  18.026  0.00  0.00    +0.000 C 
ENDBRANCH  18  21
ENDBRANCH  17  18
ENDBRANCH  11  17
ENDBRANCH   1  15
BRANCH   8  22
ATOM     22  C   UNL     1       0.968   3.205  20.186  0.00  0.00    +0.000 C 
ATOM     23  F   UNL     1       0.942   2.503  21.353  0.00  0.00    +0.000 F 
ATOM     24  F   UNL     1       0.351   4.387  20.469  0.00  0.00    +0.000 F 
ATOM     25  F   UNL     1       0.132   2.548  19.337  0.00  0.00    +0.000 F 
ENDBRANCH   8  22
TORSDOF 5
ENDMDL
MODEL 5
REMARK VINA RESULT:      -7.8      4.228      6.461
REMARK  Name = 
REMARK  6 active torsions:
REMARK  status: ('A' for Active; 'I' for Inactive)
REMARK    1  A    between atoms: C_1  and  C_2
REMARK    2  A    between atoms: C_2  and  C_3
REMARK    3  A    between atoms: C_3  and  C_5
REMARK    4  A    between atoms: C_5  and  C_6
REMARK    5  A    between atoms: C_10  and  N_11
REMARK    6  A    between atoms: C_18  and  C_19
REMARK                            x       y       z     vdW  Elec       q    Type
REMARK                         _______ _______ _______ _____ _____    ______ ____
ROOT
ATOM      1  N   UNL     1       6.054   5.410  15.642  0.00  0.00    +0.000 N 
ATOM      2  C   UNL     1       4.851   6.254  15.829  0.00  0.00    +0.000 C 
ATOM      3  C   UNL     1       4.080   5.480  16.853  0.00  0.00    +0.000 A 
ATOM      4  C   UNL     1       4.433   4.135  16.707  0.00  0.00    +0.000 A 
ATOM      5  C   UNL     1       4.014   3.148  17.578  0.00  0.00    +0.000 A 
ATOM      6  C   UNL     1       3.217   3.541  18.650  0.00  0.00    +0.000 A 
ATOM      7  C   UNL     1       2.875   4.897  18.828  0.00  0.00    +0.000 A 
ATOM      8  C   UNL     1       3.301   5.897  17.925  0.00  0.00    +0.000 A 
ATOM      9  C   UNL     1       5.610   4.074  15.808  0.00  0.00    +0.000 C 
ATOM     10  O   UNL     1       6.158   3.041  15.470  0.00  0.00    +0.000 OA
ENDROOT
BRANCH   1  15
ATOM     11  C   UNL     1       7.794   7.772  17.834  0.00  0.00    +0.000 A 
ATOM     12  C   UNL     1       7.932   6.940  18.955  0.00  0.00    +0.000 A 
ATOM     13  C   UNL     1       7.844   5.558  18.832  0.00  0.00    +0.000 A 
ATOM     14  C   UNL     1       7.490   4.998  17.612  0.00  0.00    +0.000 A 
ATOM     15  C   UNL     1       7.112   5.833  16.548  0.00  0.00    +0.000 A 
ATOM     16  C   UNL     1       7.406   7.203  16.617  0.00  0.00    +0.000 A 
BRANCH  11  17
ATOM     17  C   UNL     1       7.934   9.270  17.975  0.00  0.00    +0.000 C 
BRANCH  17  18
ATOM     18  C   UNL     1       9.220   9.675  18.699  0.00  0.00    +0.000 C 
ATOM     19  F   UNL     1       8.940   9.901  20.017  0.00  0.00    +0.000 F 
BRANCH  18  21
ATOM     20  C   UNL     1      10.942  11.463  19.017  0.00  0.00    +0.000 C 
ATOM     21  C   UNL     1       9.799  10.970  18.144  0.00  0.00    +0.000 C 
ENDBRANCH  18  21
ENDBRANCH  17  18
ENDBRANCH  11  17
ENDBRANCH   1  15
BRANCH   8  22
ATOM     22  C   UNL     1       3.017   7.337  18.243  0.00  0.00    +0.000 C 
ATOM     23  F   UNL     1       1.979   7.872  17.542  0.00  0.00    +0.000 F 
ATOM     24  F   UNL     1       2.689   7.512  19.554  0.00  0.00    +0.000 F 
ATOM     25  F   UNL     1       4.080   8.156  18.017  0.00  0.00    +0.000 F 
ENDBRANCH   8  22
TORSDOF 5
ENDMDL
MODEL 6
REMARK VINA RESULT:      -7.8      2.657      4.224
REMARK  Name = 
REMARK  6 active torsions:
REMARK  status: ('A' for Active; 'I' for Inactive)
REMARK    1  A    between atoms: C_1  and  C_2
REMARK    2  A    between atoms: C_2  and  C_3
REMARK    3  A    between atoms: C_3  and  C_5
REMARK    4  A    between atoms: C_5  and  C_6
REMARK    5  A    between atoms: C_10  and  N_11
REMARK    6  A    between atoms: C_18  and  C_19
REMARK                            x       y       z     vdW  Elec       q    Type
REMARK                         _______ _______ _______ _____ _____    ______ ____
ROOT
ATOM      1  N   UNL     1       4.022   3.167  18.731  0.00  0.00    +0.000 N 
ATOM      2  C   UNL     1       5.492   3.334  18.819  0.00  0.00    +0.000 C 
ATOM      3  C   UNL     1       5.743   4.431  17.831  0.00  0.00    +0.000 A 
ATOM      4  C   UNL     1       4.728   4.366  16.872  0.00  0.00    +0.000 A 
ATOM      5  C   UNL     1       4.568   5.314  15.880  0.00  0.00    +0.000 A 
ATOM      6  C   UNL     1       5.463   6.381  15.868  0.00  0.00    +0.000 A 
ATOM      7  C   UNL     1       6.475   6.477  16.845  0.00  0.00    +0.000 A 
ATOM      8  C   UNL     1       6.636   5.495  17.850  0.00  0.00    +0.000 A 
ATOM      9  C   UNL     1       3.690   3.437  17.379  0.00  0.00    +0.000 C 
ATOM     10  O   UNL     1       2.673   3.153  16.773  0.00  0.00    +0.000 OA
ENDROOT
BRANCH   1  15
ATOM     11  C   UNL     1       2.364   6.212  19.909  0.00  0.00    +0.000 A 
ATOM     12  C   UNL     1       1.232   5.614  20.482  0.00  0.00    +0.000 A 
ATOM     13  C   UNL     1       1.237   4.270  20.836  0.00  0.00    +0.000 A 
ATOM     14  C   UNL     1       2.327   3.478  20.505  0.00  0.00    +0.000 A 
ATOM     15  C   UNL     1       3.359   4.011  19.716  0.00  0.00    +0.000 A 
ATOM     16  C   UNL     1       3.445   5.400  19.550  0.00  0.00    +0.000 A 
BRANCH  11  17
ATOM     17  C   UNL     1       2.359   7.684  19.568  0.00  0.00    +0.000 C 
BRANCH  17  18
ATOM     18  C   UNL     1       2.049   7.945  18.092  0.00  0.00    +0.000 C 
ATOM     19  F   UNL     1       3.220   8.013  17.392  0.00  0.00    +0.000 F 
BRANCH  18  21
ATOM     20  C   UNL     1       0.738   9.769  19.197  0.00  0.00    +0.000 C 
ATOM     21  C   UNL     1       1.337   9.277  17.889  0.00  0.00    +0.000 C 
ENDBRANCH  18  21
ENDBRANCH  17  18
ENDBRANCH  11  17
ENDBRANCH   1  15
BRANCH   8  22
ATOM     22  C   UNL     1       7.645   5.724  18.938  0.00  0.00    +0.000 C 
ATOM     23  F   UNL     1       8.307   6.910  18.850  0.00  0.00    +0.000 F 
ATOM     24  F   UNL     1       7.066   5.732  20.173  0.00  0.00    +0.000 F 
ATOM     25  F   UNL     1       8.606   4.762  18.989  0.00  0.00    +0.000 F 
ENDBRANCH   8  22
TORSDOF 5
ENDMDL
MODEL 7
REMARK VINA RESULT:      -7.7      3.425      6.967
REMARK  Name = 
REMARK  6 active torsions:
REMARK  status: ('A' for Active; 'I' for Inactive)
REMARK    1  A    between atoms: C_1  and  C_2
REMARK    2  A    between atoms: C_2  and  C_3
REMARK    3  A    between atoms: C_3  and  C_5
REMARK    4  A    between atoms: C_5  and  C_6
REMARK    5  A    between atoms: C_10  and  N_11
REMARK    6  A    between atoms: C_18  and  C_19
REMARK                            x       y       z     vdW  Elec       q    Type
REMARK                         _______ _______ _______ _____ _____    ______ ____
ROOT
ATOM      1  N   UNL     1       4.149   6.109  19.066  0.00  0.00    +0.000 N 
ATOM      2  C   UNL     1       3.466   5.619  20.286  0.00  0.00    +0.000 C 
ATOM      3  C   UNL     1       2.428   4.700  19.719  0.00  0.00    +0.000 A 
ATOM      4  C   UNL     1       2.125   5.161  18.435  0.00  0.00    +0.000 A 
ATOM      5  C   UNL     1       1.302   4.475  17.563  0.00  0.00    +0.000 A 
ATOM      6  C   UNL     1       0.776   3.264  18.005  0.00  0.00    +0.000 A 
ATOM      7  C   UNL     1       1.094   2.770  19.287  0.00  0.00    +0.000 A 
ATOM      8  C   UNL     1       1.930   3.486  20.174  0.00  0.00    +0.000 A 
ATOM      9  C   UNL     1       3.142   6.178  18.070  0.00  0.00    +0.000 C 
ATOM     10  O   UNL     1       3.154   6.781  17.013  0.00  0.00    +0.000 OA
ENDROOT
BRANCH   1  15
ATOM     11  C   UNL     1       6.365   4.241  16.829  0.00  0.00    +0.000 A 
ATOM     12  C   UNL     1       7.589   4.747  17.292  0.00  0.00    +0.000 A 
ATOM     13  C   UNL     1       7.688   5.333  18.548  0.00  0.00    +0.000 A 
ATOM     14  C   UNL     1       6.542   5.536  19.304  0.00  0.00    +0.000 A 
ATOM     15  C   UNL     1       5.285   5.256  18.747  0.00  0.00    +0.000 A 
ATOM     16  C   UNL     1       5.211   4.478  17.582  0.00  0.00    +0.000 A 
BRANCH  11  17
ATOM     17  C   UNL     1       6.280   3.567  15.479  0.00  0.00    +0.000 C 
BRANCH  17  18
ATOM     18  C   UNL     1       6.094   4.567  14.334  0.00  0.00    +0.000 C 
ATOM     19  F   UNL     1       5.336   5.616  14.772  0.00  0.00    +0.000 F 
BRANCH  18  21
ATOM     20  C   UNL     1       6.326   3.295  12.191  0.00  0.00    +0.000 C 
ATOM     21  C   UNL     1       5.351   3.948  13.157  0.00  0.00    +0.000 C 
ENDBRANCH  18  21
ENDBRANCH  17  18
ENDBRANCH  11  17
ENDBRANCH   1  15
BRANCH   8  22
ATOM     22  C   UNL     1       2.338   2.846  21.470  0.00  0.00    +0.000 C 
ATOM     23  F   UNL     1       2.407   3.706  22.523  0.00  0.00    +0.000 F 
ATOM     24  F   UNL     1       1.459   1.879  21.858  0.00  0.00    +0.000 F 
ATOM     25  F   UNL     1       3.552   2.235  21.407  0.00  0.00    +0.000 F 
ENDBRANCH   8  22
TORSDOF 5
ENDMDL
MODEL 8
REMARK VINA RESULT:      -7.7      0.768      1.164
REMARK  Name = 
REMARK  6 active torsions:
REMARK  status: ('A' for Active; 'I' for Inactive)
REMARK    1  A    between atoms: C_1  and  C_2
REMARK    2  A    between atoms: C_2  and  C_3
REMARK    3  A    between atoms: C_3  and  C_5
REMARK    4  A    between atoms: C_5  and  C_6
REMARK    5  A    between atoms: C_10  and  N_11
REMARK    6  A    between atoms: C_18  and  C_19
REMARK                            x       y       z     vdW  Elec       q    Type
REMARK                         _______ _______ _______ _____ _____    ______ ____
ROOT
ATOM      1  N   UNL     1       3.192   5.937  20.184  0.00  0.00    +0.000 N 
ATOM      2  C   UNL     1       4.366   5.615  19.339  0.00  0.00    +0.000 C 
ATOM      3  C   UNL     1       3.896   4.402  18.597  0.00  0.00    +0.000 A 
ATOM      4  C   UNL     1       2.951   3.763  19.404  0.00  0.00    +0.000 A 
ATOM      5  C   UNL     1       2.207   2.680  18.979  0.00  0.00    +0.000 A 
ATOM      6  C   UNL     1       2.418   2.235  17.676  0.00  0.00    +0.000 A 
ATOM      7  C   UNL     1       3.347   2.885  16.839  0.00  0.00    +0.000 A 
ATOM      8  C   UNL     1       4.111   3.987  17.289  0.00  0.00    +0.000 A 
ATOM      9  C   UNL     1       2.607   4.688  20.512  0.00  0.00    +0.000 C 
ATOM     10  O   UNL     1       1.815   4.425  21.398  0.00  0.00    +0.000 OA
ENDROOT
BRANCH   1  15
ATOM     11  C   UNL     1       1.474   9.137  19.717  0.00  0.00    +0.000 A 
ATOM     12  C   UNL     1       1.847   9.371  18.385  0.00  0.00    +0.000 A 
ATOM     13  C   UNL     1       2.274   8.329  17.570  0.00  0.00    +0.000 A 
ATOM     14  C   UNL     1       2.454   7.064  18.111  0.00  0.00    +0.000 A 
ATOM     15  C   UNL     1       2.317   6.874  19.495  0.00  0.00    +0.000 A 
ATOM     16  C   UNL     1       1.689   7.866  20.262  0.00  0.00    +0.000 A 
BRANCH  11  17
ATOM     17  C   UNL     1       0.972  10.271  20.580  0.00  0.00    +0.000 C 
BRANCH  17  18
ATOM     18  C   UNL     1      -0.487  10.085  21.005  0.00  0.00    +0.000 C 
ATOM     19  F   UNL     1      -1.280  10.913  20.262  0.00  0.00    +0.000 F 
BRANCH  18  21
ATOM     20  C   UNL     1       0.007   9.479  23.383  0.00  0.00    +0.000 C 
ATOM     21  C   UNL     1      -0.703  10.461  22.465  0.00  0.00    +0.000 C 
ENDBRANCH  18  21
ENDBRANCH  17  18
ENDBRANCH  11  17
ENDBRANCH   1  15
BRANCH   8  22
ATOM     22  C   UNL     1       4.984   4.719  16.310  0.00  0.00    +0.000 C 
ATOM     23  F   UNL     1       4.635   6.020  16.112  0.00  0.00    +0.000 F 
ATOM     24  F   UNL     1       6.283   4.758  16.720  0.00  0.00    +0.000 F 
ATOM     25  F   UNL     1       5.004   4.145  15.077  0.00  0.00    +0.000 F 
ENDBRANCH   8  22
TORSDOF 5
ENDMDL
MODEL 9
REMARK VINA RESULT:      -7.7      3.106      4.045
REMARK  Name = 
REMARK  6 active torsions:
REMARK  status: ('A' for Active; 'I' for Inactive)
REMARK    1  A    between atoms: C_1  and  C_2
REMARK    2  A    between atoms: C_2  and  C_3
REMARK    3  A    between atoms: C_3  and  C_5
REMARK    4  A    between atoms: C_5  and  C_6
REMARK    5  A    between atoms: C_10  and  N_11
REMARK    6  A    between atoms: C_18  and  C_19
REMARK                            x       y       z     vdW  Elec       q    Type
REMARK                         _______ _______ _______ _____ _____    ______ ____
ROOT
ATOM      1  N   UNL     1       2.592   6.372  17.573  0.00  0.00    +0.000 N 
ATOM      2  C   UNL     1       1.701   5.218  17.834  0.00  0.00    +0.000 C 
ATOM      3  C   UNL     1       2.610   4.278  18.565  0.00  0.00    +0.000 A 
ATOM      4  C   UNL     1       3.914   4.550  18.141  0.00  0.00    +0.000 A 
ATOM      5  C   UNL     1       5.028   3.962  18.708  0.00  0.00    +0.000 A 
ATOM      6  C   UNL     1       4.813   3.073  19.758  0.00  0.00    +0.000 A 
ATOM      7  C   UNL     1       3.507   2.809  20.217  0.00  0.00    +0.000 A 
ATOM      8  C   UNL     1       2.373   3.409  19.622  0.00  0.00    +0.000 A 
ATOM      9  C   UNL     1       3.882   5.818  17.373  0.00  0.00    +0.000 C 
ATOM     10  O   UNL     1       4.859   6.328  16.857  0.00  0.00    +0.000 OA
ENDROOT
BRANCH   1  15
ATOM     11  C   UNL     1       1.382   9.435  19.175  0.00  0.00    +0.000 A 
ATOM     12  C   UNL     1       0.963   8.873  20.389  0.00  0.00    +0.000 A 
ATOM     13  C   UNL     1       1.451   7.641  20.811  0.00  0.00    +0.000 A 
ATOM     14  C   UNL     1       2.264   6.899  19.966  0.00  0.00    +0.000 A 
ATOM     15  C   UNL     1       2.490   7.343  18.654  0.00  0.00    +0.000 A 
ATOM     16  C   UNL     1       2.175   8.666  18.316  0.00  0.00    +0.000 A 
BRANCH  11  17
ATOM     17  C   UNL     1       0.877  10.793  18.748  0.00  0.00    +0.000 C 
BRANCH  17  18
ATOM     18  C   UNL     1      -0.650  10.855  18.671  0.00  0.00    +0.000 C 
ATOM     19  F   UNL     1      -1.179  10.390  19.842  0.00  0.00    +0.000 F 
BRANCH  18  21
ATOM     20  C   UNL     1      -2.710   9.855  17.659  0.00  0.00    +0.000 C 
ATOM     21  C   UNL     1      -1.197   9.967  17.560  0.00  0.00    +0.000 C 
ENDBRANCH  18  21
ENDBRANCH  17  18
ENDBRANCH  11  17
ENDBRANCH   1  15
BRANCH   8  22
ATOM     22  C   UNL     1       1.023   3.192  20.241  0.00  0.00    +0.000 C 
ATOM     23  F   UNL     1       0.365   4.338  20.570  0.00  0.00    +0.000 F 
ATOM     24  F   UNL     1       0.180   2.527  19.401  0.00  0.00    +0.000 F 
ATOM     25  F   UNL     1       1.068   2.448  21.380  0.00  0.00    +0.000 F 
ENDBRANCH   8  22
TORSDOF 5
ENDMDL
