MODEL 1
REMARK VINA RESULT:      -9.2      0.000      0.000
REMARK  Name = 
REMARK  6 active torsions:
REMARK  status: ('A' for Active; 'I' for Inactive)
REMARK    1  A    between atoms: C_1  and  C_2
REMARK    2  A    between atoms: C_2  and  N_3
REMARK    3  A    between atoms: C_2  and  C_19
REMARK    4  A    between atoms: C_10  and  C_11
REMARK    5  A    between atoms: C_23  and  S_24
REMARK    6  A    between atoms: S_24  and  N_25
REMARK                            x       y       z     vdW  Elec       q    Type
REMARK                         _______ _______ _______ _____ _____    ______ ____
ROOT
ATOM      1  N   UNL     1       3.980   4.144  19.125  0.00  0.00    +0.000 N 
ATOM      2  C   UNL     1       5.258   4.624  18.943  0.00  0.00    +0.000 A 
ATOM      3  N   UNL     1       5.943   5.097  19.956  0.00  0.00    +0.000 NA
ATOM      4  C   UNL     1       7.244   5.521  19.744  0.00  0.00    +0.000 A 
ATOM      5  C   UNL     1       7.864   5.467  18.553  0.00  0.00    +0.000 A 
ATOM      6  N   UNL     1       7.162   4.993  17.465  0.00  0.00    +0.000 N 
ATOM      7  N   UNL     1       7.575   4.865  16.180  0.00  0.00    +0.000 NA
ATOM      8  C   UNL     1       6.490   4.459  15.500  0.00  0.00    +0.000 A 
ATOM      9  C   UNL     1       5.392   4.262  16.376  0.00  0.00    +0.000 A 
ATOM     10  C   UNL     1       5.856   4.589  17.623  0.00  0.00    +0.000 A 
ATOM     11  H   UNL     1       3.518   3.874  18.268  0.00  0.00    +0.000 HD
ENDROOT
BRANCH   8  12
ATOM     12  C   UNL     1       6.506   4.263  14.049  0.00  0.00    +0.000 A 
ATOM     13  C   UNL     1       5.569   3.425  13.430  0.00  0.00    +0.000 A 
ATOM     14  C   UNL     1       5.580   3.253  12.042  0.00  0.00    +0.000 A 
ATOM     15  C   UNL     1       6.530   3.910  11.263  0.00  0.00    +0.000 A 
ATOM     16  C   UNL     1       7.471   4.741  11.867  0.00  0.00    +0.000 A 
ATOM     17  C   UNL     1       7.459   4.917  13.253  0.00  0.00    +0.000 A 
ENDBRANCH   8  12
BRANCH   1  19
ATOM     18  C   UNL     1       1.907   3.683  20.352  0.00  0.00    +0.000 C 
ATOM     19  C   UNL     1       3.059   4.661  20.128  0.00  0.00    +0.000 C 
BRANCH  19  20
ATOM     20  C   UNL     1       2.553   6.003  19.617  0.00  0.00    +0.000 A 
ATOM     21  C   UNL     1       2.812   6.433  18.299  0.00  0.00    +0.000 A 
ATOM     22  C   UNL     1       2.462   7.716  17.876  0.00  0.00    +0.000 A 
ATOM     23  C   UNL     1       1.857   8.593  18.766  0.00  0.00    +0.000 A 
ATOM     24  C   UNL     1       1.578   8.166  20.067  0.00  0.00    +0.000 A 
ATOM     25  C   UNL     1       1.909   6.880  20.497  0.00  0.00    +0.000 A 
BRANCH  24  26
ATOM     26  S   UNL     1       0.818   9.290  21.193  0.00  0.00    +0.000 S 
ATOM     27  O   UNL     1       0.910  10.632  20.667  0.00  0.00    +0.000 OA
ATOM     28  O   UNL     1      -0.422   8.721  21.664  0.00  0.00    +0.000 OA
BRANCH  26  29
ATOM     29  N   UNL     1       1.905   9.201  22.465  0.00  0.00    +0.000 NA
ATOM     30  H   UNL     1       2.679   8.578  22.242  0.00  0.00    +0.000 HD
ATOM     31  H   UNL     1       2.168  10.131  22.789  0.00  0.00    +0.000 HD
ENDBRANCH  26  29
ENDBRANCH  24  26
ENDBRANCH  19  20
ENDBRANCH   1  19
TORSDOF 5
ENDMDL
MODEL 2
REMARK VINA RESULT:      -9.1      0.762      1.006
REMARK  Name = 
REMARK  6 active torsions:
REMARK  status: ('A' for Active; 'I' for Inactive)
REMARK    1  A    between atoms: C_1  and  C_2
REMARK    2  A    between atoms: C_2  and  N_3
REMARK    3  A    between atoms: C_2  and  C_19
REMARK    4  A    between atoms: C_10  and  C_11
REMARK    5  A    between atoms: C_23  and  S_24
REMARK    6  A    between atoms: S_24  and  N_25
REMARK                            x       y       z     vdW  Elec       q    Type
REMARK                         _______ _______ _______ _____ _____    ______ ____
ROOT
ATOM      1  N   UNL     1       3.995   4.397  19.163  0.00  0.00    +0.000 N 
ATOM      2  C   UNL     1       5.306   4.771  18.968  0.00  0.00    +0.000 A 
ATOM      3  N   UNL     1       6.036   5.193  19.973  0.00  0.00    +0.000 NA
ATOM      4  C   UNL     1       7.365   5.509  19.748  0.00  0.00    +0.000 A 
ATOM      5  C   UNL     1       7.969   5.399  18.553  0.00  0.00    +0.000 A 
ATOM      6  N   UNL     1       7.221   4.978  17.473  0.00  0.00    +0.000 N 
ATOM      7  N   UNL     1       7.612   4.809  16.186  0.00  0.00    +0.000 NA
ATOM      8  C   UNL     1       6.492   4.488  15.517  0.00  0.00    +0.000 A 
ATOM      9  C   UNL     1       5.389   4.386  16.402  0.00  0.00    +0.000 A 
ATOM     10  C   UNL     1       5.889   4.681  17.644  0.00  0.00    +0.000 A 
ATOM     11  H   UNL     1       3.506   4.161  18.311  0.00  0.00    +0.000 HD
ENDROOT
BRANCH   8  12
ATOM     12  C   UNL     1       6.480   4.284  14.067  0.00  0.00    +0.000 A 
ATOM     13  C   UNL     1       5.492   3.495  13.464  0.00  0.00    +0.000 A 
ATOM     14  C   UNL     1       5.477   3.315  12.077  0.00  0.00    +0.000 A 
ATOM     15  C   UNL     1       6.451   3.914  11.283  0.00  0.00    +0.000 A 
ATOM     16  C   UNL     1       7.444   4.695  11.871  0.00  0.00    +0.000 A 
ATOM     17  C   UNL     1       7.458   4.880  13.256  0.00  0.00    +0.000 A 
ENDBRANCH   8  12
BRANCH   1  19
ATOM     18  C   UNL     1       1.994   4.036  20.534  0.00  0.00    +0.000 C 
ATOM     19  C   UNL     1       3.127   4.993  20.170  0.00  0.00    +0.000 C 
BRANCH  19  20
ATOM     20  C   UNL     1       2.588   6.290  19.582  0.00  0.00    +0.000 A 
ATOM     21  C   UNL     1       2.958   6.721  18.290  0.00  0.00    +0.000 A 
ATOM     22  C   UNL     1       2.568   7.970  17.807  0.00  0.00    +0.000 A 
ATOM     23  C   UNL     1       1.810   8.814  18.610  0.00  0.00    +0.000 A 
ATOM     24  C   UNL     1       1.422   8.383  19.882  0.00  0.00    +0.000 A 
ATOM     25  C   UNL     1       1.793   7.129  20.369  0.00  0.00    +0.000 A 
BRANCH  24  26
ATOM     26  S   UNL     1       0.469   9.464  20.897  0.00  0.00    +0.000 S 
ATOM     27  O   UNL     1      -0.436   8.687  21.709  0.00  0.00    +0.000 OA
ATOM     28  O   UNL     1       1.336  10.479  21.449  0.00  0.00    +0.000 OA
BRANCH  26  29
ATOM     29  N   UNL     1      -0.465  10.212  19.723  0.00  0.00    +0.000 NA
ATOM     30  H   UNL     1      -1.228   9.608  19.424  0.00  0.00    +0.000 HD
ATOM     31  H   UNL     1      -0.734  11.151  20.013  0.00  0.00    +0.000 HD
ENDBRANCH  26  29
ENDBRANCH  24  26
ENDBRANCH  19  20
ENDBRANCH   1  19
TORSDOF 5
ENDMDL
MODEL 3
REMARK VINA RESULT:      -9.0      0.718      1.231
REMARK  Name = 
REMARK  6 active torsions:
REMARK  status: ('A' for Active; 'I' for Inactive)
REMARK    1  A    between atoms: C_1  and  C_2
REMARK    2  A    between atoms: C_2  and  N_3
REMARK    3  A    between atoms: C_2  and  C_19
REMARK    4  A    between atoms: C_10  and  C_11
REMARK    5  A    between atoms: C_23  and  S_24
REMARK    6  A    between atoms: S_24  and  N_25
REMARK                            x       y       z     vdW  Elec       q    Type
REMARK                         _______ _______ _______ _____ _____    ______ ____
ROOT
ATOM      1  N   UNL     1       3.919   4.305  19.116  0.00  0.00    +0.000 N 
ATOM      2  C   UNL     1       5.220   4.720  18.931  0.00  0.00    +0.000 A 
ATOM      3  N   UNL     1       5.929   5.163  19.941  0.00  0.00    +0.000 NA
ATOM      4  C   UNL     1       7.250   5.519  19.726  0.00  0.00    +0.000 A 
ATOM      5  C   UNL     1       7.866   5.429  18.534  0.00  0.00    +0.000 A 
ATOM      6  N   UNL     1       7.139   4.986  17.449  0.00  0.00    +0.000 N 
ATOM      7  N   UNL     1       7.543   4.830  16.165  0.00  0.00    +0.000 NA
ATOM      8  C   UNL     1       6.439   4.476  15.488  0.00  0.00    +0.000 A 
ATOM      9  C   UNL     1       5.333   4.339  16.365  0.00  0.00    +0.000 A 
ATOM     10  C   UNL     1       5.815   4.648  17.610  0.00  0.00    +0.000 A 
ATOM     11  H   UNL     1       3.444   4.055  18.261  0.00  0.00    +0.000 HD
ENDROOT
BRANCH   8  12
ATOM     12  C   UNL     1       6.443   4.273  14.038  0.00  0.00    +0.000 A 
ATOM     13  C   UNL     1       7.455   4.825  13.240  0.00  0.00    +0.000 A 
ATOM     14  C   UNL     1       7.462   4.616  11.858  0.00  0.00    +0.000 A 
ATOM     15  C   UNL     1       6.456   3.860  11.259  0.00  0.00    +0.000 A 
ATOM     16  C   UNL     1       5.441   3.312  12.040  0.00  0.00    +0.000 A 
ATOM     17  C   UNL     1       5.434   3.516  13.422  0.00  0.00    +0.000 A 
ENDBRANCH   8  12
BRANCH   1  19
ATOM     18  C   UNL     1       1.874   3.916  20.412  0.00  0.00    +0.000 C 
ATOM     19  C   UNL     1       3.027   4.873  20.117  0.00  0.00    +0.000 C 
BRANCH  19  20
ATOM     20  C   UNL     1       2.518   6.196  19.560  0.00  0.00    +0.000 A 
ATOM     21  C   UNL     1       2.759   6.572  18.222  0.00  0.00    +0.000 A 
ATOM     22  C   UNL     1       2.407   7.838  17.753  0.00  0.00    +0.000 A 
ATOM     23  C   UNL     1       1.818   8.752  18.616  0.00  0.00    +0.000 A 
ATOM     24  C   UNL     1       1.556   8.378  19.937  0.00  0.00    +0.000 A 
ATOM     25  C   UNL     1       1.890   7.109  20.413  0.00  0.00    +0.000 A 
BRANCH  24  26
ATOM     26  S   UNL     1       0.816   9.550  21.027  0.00  0.00    +0.000 S 
ATOM     27  O   UNL     1      -0.611   9.339  21.061  0.00  0.00    +0.000 OA
ATOM     28  O   UNL     1       1.618   9.652  22.224  0.00  0.00    +0.000 OA
BRANCH  26  29
ATOM     29  N   UNL     1       1.070  10.957  20.153  0.00  0.00    +0.000 NA
ATOM     30  H   UNL     1       0.244  11.553  20.171  0.00  0.00    +0.000 HD
ATOM     31  H   UNL     1       1.944  11.406  20.426  0.00  0.00    +0.000 HD
ENDBRANCH  26  29
ENDBRANCH  24  26
ENDBRANCH  19  20
ENDBRANCH   1  19
TORSDOF 5
ENDMDL
MODEL 4
REMARK VINA RESULT:      -7.9      4.310      6.628
REMARK  Name = 
REMARK  6 active torsions:
REMARK  status: ('A' for Active; 'I' for Inactive)
REMARK    1  A    between atoms: C_1  and  C_2
REMARK    2  A    between atoms: C_2  and  N_3
REMARK    3  A    between atoms: C_2  and  C_19
REMARK    4  A    between atoms: C_10  and  C_11
REMARK    5  A    between atoms: C_23  and  S_24
REMARK    6  A    between atoms: S_24  and  N_25
REMARK                            x       y       z     vdW  Elec       q    Type
REMARK                         _______ _______ _______ _____ _____    ______ ____
ROOT
ATOM      1  N   UNL     1       0.704  10.701  18.303  0.00  0.00    +0.000 N 
ATOM      2  C   UNL     1       0.962   9.779  19.293  0.00  0.00    +0.000 A 
ATOM      3  N   UNL     1       0.489   9.951  20.504  0.00  0.00    +0.000 NA
ATOM      4  C   UNL     1       0.724   8.975  21.458  0.00  0.00    +0.000 A 
ATOM      5  C   UNL     1       1.405   7.841  21.219  0.00  0.00    +0.000 A 
ATOM      6  N   UNL     1       1.932   7.643  19.960  0.00  0.00    +0.000 N 
ATOM      7  N   UNL     1       2.659   6.595  19.501  0.00  0.00    +0.000 NA
ATOM      8  C   UNL     1       3.015   6.933  18.251  0.00  0.00    +0.000 A 
ATOM      9  C   UNL     1       2.451   8.183  17.888  0.00  0.00    +0.000 A 
ATOM     10  C   UNL     1       1.749   8.600  18.988  0.00  0.00    +0.000 A 
ATOM     11  H   UNL     1       1.178  10.509  17.432  0.00  0.00    +0.000 HD
ENDROOT
BRANCH   8  12
ATOM     12  C   UNL     1       3.872   6.080  17.425  0.00  0.00    +0.000 A 
ATOM     13  C   UNL     1       3.774   4.684  17.496  0.00  0.00    +0.000 A 
ATOM     14  C   UNL     1       4.585   3.874  16.695  0.00  0.00    +0.000 A 
ATOM     15  C   UNL     1       5.506   4.451  15.823  0.00  0.00    +0.000 A 
ATOM     16  C   UNL     1       5.618   5.838  15.748  0.00  0.00    +0.000 A 
ATOM     17  C   UNL     1       4.805   6.648  16.545  0.00  0.00    +0.000 A 
ENDBRANCH   8  12
BRANCH   1  19
ATOM     18  C   UNL     1       1.472  12.595  19.659  0.00  0.00    +0.000 C 
ATOM     19  C   UNL     1       0.530  12.125  18.553  0.00  0.00    +0.000 C 
BRANCH  19  20
ATOM     20  C   UNL     1      -0.927  12.333  18.942  0.00  0.00    +0.000 A 
ATOM     21  C   UNL     1      -1.282  12.938  20.167  0.00  0.00    +0.000 A 
ATOM     22  C   UNL     1      -2.612  13.008  20.579  0.00  0.00    +0.000 A 
ATOM     23  C   UNL     1      -3.611  12.465  19.780  0.00  0.00    +0.000 A 
ATOM     24  C   UNL     1      -3.268  11.884  18.556  0.00  0.00    +0.000 A 
ATOM     25  C   UNL     1      -1.942  11.823  18.126  0.00  0.00    +0.000 A 
BRANCH  24  26
ATOM     26  S   UNL     1      -4.541  11.190  17.553  0.00  0.00    +0.000 S 
ATOM     27  O   UNL     1      -3.973  10.719  16.313  0.00  0.00    +0.000 OA
ATOM     28  O   UNL     1      -5.398  10.370  18.378  0.00  0.00    +0.000 OA
BRANCH  26  29
ATOM     29  N   UNL     1      -5.407  12.577  17.186  0.00  0.00    +0.000 NA
ATOM     30  H   UNL     1      -4.783  13.341  16.932  0.00  0.00    +0.000 HD
ATOM     31  H   UNL     1      -6.153  12.378  16.520  0.00  0.00    +0.000 HD
ENDBRANCH  26  29
ENDBRANCH  24  26
ENDBRANCH  19  20
ENDBRANCH   1  19
TORSDOF 5
ENDMDL
MODEL 5
REMARK VINA RESULT:      -7.7      2.013      2.685
REMARK  Name = 
REMARK  6 active torsions:
REMARK  status: ('A' for Active; 'I' for Inactive)
REMARK    1  A    between atoms: C_1  and  C_2
REMARK    2  A    between atoms: C_2  and  N_3
REMARK    3  A    between atoms: C_2  and  C_19
REMARK    4  A    between atoms: C_10  and  C_11
REMARK    5  A    between atoms: C_23  and  S_24
REMARK    6  A    between atoms: S_24  and  N_25
REMARK                            x       y       z     vdW  Elec       q    Type
REMARK                         _______ _______ _______ _____ _____    ______ ____
ROOT
ATOM      1  N   UNL     1       2.560   6.187  18.767  0.00  0.00    +0.000 N 
ATOM      2  C   UNL     1       3.059   4.903  18.754  0.00  0.00    +0.000 A 
ATOM      3  N   UNL     1       2.784   4.070  19.729  0.00  0.00    +0.000 NA
ATOM      4  C   UNL     1       3.259   2.772  19.654  0.00  0.00    +0.000 A 
ATOM      5  C   UNL     1       3.983   2.297  18.627  0.00  0.00    +0.000 A 
ATOM      6  N   UNL     1       4.306   3.155  17.596  0.00  0.00    +0.000 N 
ATOM      7  N   UNL     1       5.031   2.903  16.479  0.00  0.00    +0.000 NA
ATOM      8  C   UNL     1       5.141   4.087  15.855  0.00  0.00    +0.000 A 
ATOM      9  C   UNL     1       4.420   5.091  16.551  0.00  0.00    +0.000 A 
ATOM     10  C   UNL     1       3.880   4.463  17.643  0.00  0.00    +0.000 A 
ATOM     11  H   UNL     1       2.895   6.763  18.007  0.00  0.00    +0.000 HD
ENDROOT
BRANCH   8  12
ATOM     12  C   UNL     1       5.916   4.252  14.624  0.00  0.00    +0.000 A 
ATOM     13  C   UNL     1       7.039   5.090  14.592  0.00  0.00    +0.000 A 
ATOM     14  C   UNL     1       7.784   5.233  13.418  0.00  0.00    +0.000 A 
ATOM     15  C   UNL     1       7.411   4.547  12.264  0.00  0.00    +0.000 A 
ATOM     16  C   UNL     1       6.292   3.716  12.281  0.00  0.00    +0.000 A 
ATOM     17  C   UNL     1       5.549   3.569  13.455  0.00  0.00    +0.000 A 
ENDBRANCH   8  12
BRANCH   1  19
ATOM     18  C   UNL     1       1.321   6.201  20.882  0.00  0.00    +0.000 C 
ATOM     19  C   UNL     1       2.310   6.942  19.986  0.00  0.00    +0.000 C 
BRANCH  19  20
ATOM     20  C   UNL     1       1.763   8.299  19.564  0.00  0.00    +0.000 A 
ATOM     21  C   UNL     1       1.974   8.805  18.264  0.00  0.00    +0.000 A 
ATOM     22  C   UNL     1       1.587  10.101  17.921  0.00  0.00    +0.000 A 
ATOM     23  C   UNL     1       0.991  10.916  18.875  0.00  0.00    +0.000 A 
ATOM     24  C   UNL     1       0.759  10.414  20.158  0.00  0.00    +0.000 A 
ATOM     25  C   UNL     1       1.128   9.113  20.507  0.00  0.00    +0.000 A 
BRANCH  24  26
ATOM     26  S   UNL     1       0.012  11.459  21.365  0.00  0.00    +0.000 S 
ATOM     27  O   UNL     1       0.860  12.604  21.600  0.00  0.00    +0.000 OA
ATOM     28  O   UNL     1      -1.398  11.581  21.076  0.00  0.00    +0.000 OA
BRANCH  26  29
ATOM     29  N   UNL     1       0.146  10.479  22.718  0.00  0.00    +0.000 NA
ATOM     30  H   UNL     1      -0.738  10.014  22.921  0.00  0.00    +0.000 HD
ATOM     31  H   UNL     1       0.959   9.869  22.649  0.00  0.00    +0.000 HD
ENDBRANCH  26  29
ENDBRANCH  24  26
ENDBRANCH  19  20
ENDBRANCH   1  19
TORSDOF 5
ENDMDL
MODEL 6
REMARK VINA RESULT:      -7.6      3.047      4.476
REMARK  Name = 
REMARK  6 active torsions:
REMARK  status: ('A' for Active; 'I' for Inactive)
REMARK    1  A    between atoms: C_1  and  C_2
REMARK    2  A    between atoms: C_2  and  N_3
REMARK    3  A    between atoms: C_2  and  C_19
REMARK    4  A    between atoms: C_10  and  C_11
REMARK    5  A    between atoms: C_23  and  S_24
REMARK    6  A    between atoms: S_24  and  N_25
REMARK                            x       y       z     vdW  Elec       q    Type
REMARK                         _______ _______ _______ _____ _____    ______ ____
ROOT
ATOM      1  N   UNL     1       1.721   8.040  19.423  0.00  0.00    +0.000 N 
ATOM      2  C   UNL     1       2.096   6.757  19.754  0.00  0.00    +0.000 A 
ATOM      3  N   UNL     1       1.639   6.189  20.844  0.00  0.00    +0.000 NA
ATOM      4  C   UNL     1       1.996   4.878  21.115  0.00  0.00    +0.000 A 
ATOM      5  C   UNL     1       2.782   4.136  20.317  0.00  0.00    +0.000 A 
ATOM      6  N   UNL     1       3.294   4.714  19.175  0.00  0.00    +0.000 N 
ATOM      7  N   UNL     1       4.112   4.166  18.242  0.00  0.00    +0.000 NA
ATOM      8  C   UNL     1       4.400   5.168  17.395  0.00  0.00    +0.000 A 
ATOM      9  C   UNL     1       3.703   6.349  17.756  0.00  0.00    +0.000 A 
ATOM     10  C   UNL     1       2.991   6.023  18.880  0.00  0.00    +0.000 A 
ATOM     11  H   UNL     1       2.189   8.405  18.605  0.00  0.00    +0.000 HD
ENDROOT
BRANCH   8  12
ATOM     12  C   UNL     1       5.318   4.997  16.267  0.00  0.00    +0.000 A 
ATOM     13  C   UNL     1       4.908   4.332  15.104  0.00  0.00    +0.000 A 
ATOM     14  C   UNL     1       5.785   4.184  14.025  0.00  0.00    +0.000 A 
ATOM     15  C   UNL     1       7.080   4.692  14.100  0.00  0.00    +0.000 A 
ATOM     16  C   UNL     1       7.502   5.349  15.254  0.00  0.00    +0.000 A 
ATOM     17  C   UNL     1       6.626   5.502  16.332  0.00  0.00    +0.000 A 
ENDBRANCH   8  12
BRANCH   1  19
ATOM     18  C   UNL     1       0.471   8.518  21.477  0.00  0.00    +0.000 C 
ATOM     19  C   UNL     1       1.409   9.068  20.405  0.00  0.00    +0.000 C 
BRANCH  19  20
ATOM     20  C   UNL     1       0.768  10.225  19.651  0.00  0.00    +0.000 A 
ATOM     21  C   UNL     1       1.335  11.517  19.665  0.00  0.00    +0.000 A 
ATOM     22  C   UNL     1       0.677  12.601  19.084  0.00  0.00    +0.000 A 
ATOM     23  C   UNL     1      -0.564  12.415  18.489  0.00  0.00    +0.000 A 
ATOM     24  C   UNL     1      -1.121  11.134  18.452  0.00  0.00    +0.000 A 
ATOM     25  C   UNL     1      -0.465  10.039  19.016  0.00  0.00    +0.000 A 
BRANCH  24  26
ATOM     26  S   UNL     1      -2.701  10.910  17.703  0.00  0.00    +0.000 S 
ATOM     27  O   UNL     1      -2.980   9.498  17.584  0.00  0.00    +0.000 OA
ATOM     28  O   UNL     1      -3.637  11.843  18.285  0.00  0.00    +0.000 OA
BRANCH  26  29
ATOM     29  N   UNL     1      -2.367  11.462  16.156  0.00  0.00    +0.000 NA
ATOM     30  H   UNL     1      -1.445  11.155  15.850  0.00  0.00    +0.000 HD
ATOM     31  H   UNL     1      -3.135  11.255  15.518  0.00  0.00    +0.000 HD
ENDBRANCH  26  29
ENDBRANCH  24  26
ENDBRANCH  19  20
ENDBRANCH   1  19
TORSDOF 5
ENDMDL
MODEL 7
REMARK VINA RESULT:      -7.6      2.046      2.581
REMARK  Name = 
REMARK  6 active torsions:
REMARK  status: ('A' for Active; 'I' for Inactive)
REMARK    1  A    between atoms: C_1  and  C_2
REMARK    2  A    between atoms: C_2  and  N_3
REMARK    3  A    between atoms: C_2  and  C_19
REMARK    4  A    between atoms: C_10  and  C_11
REMARK    5  A    between atoms: C_23  and  S_24
REMARK    6  A    between atoms: S_24  and  N_25
REMARK                            x       y       z     vdW  Elec       q    Type
REMARK                         _______ _______ _______ _____ _____    ______ ____
ROOT
ATOM      1  N   UNL     1       2.569   6.174  18.777  0.00  0.00    +0.000 N 
ATOM      2  C   UNL     1       3.094   4.901  18.782  0.00  0.00    +0.000 A 
ATOM      3  N   UNL     1       2.845   4.081  19.775  0.00  0.00    +0.000 NA
ATOM      4  C   UNL     1       3.346   2.791  19.719  0.00  0.00    +0.000 A 
ATOM      5  C   UNL     1       4.071   2.313  18.693  0.00  0.00    +0.000 A 
ATOM      6  N   UNL     1       4.366   3.159  17.644  0.00  0.00    +0.000 N 
ATOM      7  N   UNL     1       5.087   2.902  16.525  0.00  0.00    +0.000 NA
ATOM      8  C   UNL     1       5.166   4.076  15.879  0.00  0.00    +0.000 A 
ATOM      9  C   UNL     1       4.431   5.078  16.563  0.00  0.00    +0.000 A 
ATOM     10  C   UNL     1       3.914   4.458  17.671  0.00  0.00    +0.000 A 
ATOM     11  H   UNL     1       2.884   6.743  18.004  0.00  0.00    +0.000 HD
ENDROOT
BRANCH   8  12
ATOM     12  C   UNL     1       5.927   4.235  14.638  0.00  0.00    +0.000 A 
ATOM     13  C   UNL     1       5.541   3.563  13.471  0.00  0.00    +0.000 A 
ATOM     14  C   UNL     1       6.262   3.729  12.285  0.00  0.00    +0.000 A 
ATOM     15  C   UNL     1       7.379   4.562  12.256  0.00  0.00    +0.000 A 
ATOM     16  C   UNL     1       7.777   5.231  13.412  0.00  0.00    +0.000 A 
ATOM     17  C   UNL     1       7.055   5.069  14.596  0.00  0.00    +0.000 A 
ENDBRANCH   8  12
BRANCH   1  19
ATOM     18  C   UNL     1       1.309   6.225  20.880  0.00  0.00    +0.000 C 
ATOM     19  C   UNL     1       2.313   6.947  19.984  0.00  0.00    +0.000 C 
BRANCH  19  20
ATOM     20  C   UNL     1       1.783   8.304  19.541  0.00  0.00    +0.000 A 
ATOM     21  C   UNL     1       2.037   8.805  18.247  0.00  0.00    +0.000 A 
ATOM     22  C   UNL     1       1.664  10.101  17.889  0.00  0.00    +0.000 A 
ATOM     23  C   UNL     1       1.040  10.920  18.820  0.00  0.00    +0.000 A 
ATOM     24  C   UNL     1       0.766  10.422  20.097  0.00  0.00    +0.000 A 
ATOM     25  C   UNL     1       1.121   9.122  20.461  0.00  0.00    +0.000 A 
BRANCH  24  26
ATOM     26  S   UNL     1      -0.017  11.473  21.276  0.00  0.00    +0.000 S 
ATOM     27  O   UNL     1      -1.230  12.013  20.707  0.00  0.00    +0.000 OA
ATOM     28  O   UNL     1       0.019  10.838  22.572  0.00  0.00    +0.000 OA
BRANCH  26  29
ATOM     29  N   UNL     1       1.090  12.730  21.321  0.00  0.00    +0.000 NA
ATOM     30  H   UNL     1       1.806  12.612  20.607  0.00  0.00    +0.000 HD
ATOM     31  H   UNL     1       0.618  13.634  21.327  0.00  0.00    +0.000 HD
ENDBRANCH  26  29
ENDBRANCH  24  26
ENDBRANCH  19  20
ENDBRANCH   1  19
TORSDOF 5
ENDMDL
MODEL 8
REMARK VINA RESULT:      -7.6      4.507      7.127
REMARK  Name = 
REMARK  6 active torsions:
REMARK  status: ('A' for Active; 'I' for Inactive)
REMARK    1  A    between atoms: C_1  and  C_2
REMARK    2  A    between atoms: C_2  and  N_3
REMARK    3  A    between atoms: C_2  and  C_19
REMARK    4  A    between atoms: C_10  and  C_11
REMARK    5  A    between atoms: C_23  and  S_24
REMARK    6  A    between atoms: S_24  and  N_25
REMARK                            x       y       z     vdW  Elec       q    Type
REMARK                         _______ _______ _______ _____ _____    ______ ____
ROOT
ATOM      1  N   UNL     1       0.200  10.995  18.829  0.00  0.00    +0.000 N 
ATOM      2  C   UNL     1       0.518  10.062  19.791  0.00  0.00    +0.000 A 
ATOM      3  N   UNL     1       0.069  10.189  21.017  0.00  0.00    +0.000 NA
ATOM      4  C   UNL     1       0.366   9.204  21.943  0.00  0.00    +0.000 A 
ATOM      5  C   UNL     1       1.084   8.103  21.662  0.00  0.00    +0.000 A 
ATOM      6  N   UNL     1       1.587   7.953  20.387  0.00  0.00    +0.000 N 
ATOM      7  N   UNL     1       2.343   6.944  19.887  0.00  0.00    +0.000 NA
ATOM      8  C   UNL     1       2.654   7.322  18.637  0.00  0.00    +0.000 A 
ATOM      9  C   UNL     1       2.033   8.557  18.315  0.00  0.00    +0.000 A 
ATOM     10  C   UNL     1       1.343   8.922  19.442  0.00  0.00    +0.000 A 
ATOM     11  H   UNL     1       0.659  10.840  17.942  0.00  0.00    +0.000 HD
ENDROOT
BRANCH   8  12
ATOM     12  C   UNL     1       3.523   6.522  17.773  0.00  0.00    +0.000 A 
ATOM     13  C   UNL     1       3.395   5.127  17.722  0.00  0.00    +0.000 A 
ATOM     14  C   UNL     1       4.218   4.369  16.885  0.00  0.00    +0.000 A 
ATOM     15  C   UNL     1       5.180   4.995  16.095  0.00  0.00    +0.000 A 
ATOM     16  C   UNL     1       5.323   6.381  16.141  0.00  0.00    +0.000 A 
ATOM     17  C   UNL     1       4.498   7.140  16.975  0.00  0.00    +0.000 A 
ENDBRANCH   8  12
BRANCH   1  19
ATOM     18  C   UNL     1      -1.259  12.912  18.371  0.00  0.00    +0.000 C 
ATOM     19  C   UNL     1      -0.024  12.404  19.114  0.00  0.00    +0.000 C 
BRANCH  19  20
ATOM     20  C   UNL     1       1.229  13.152  18.678  0.00  0.00    +0.000 A 
ATOM     21  C   UNL     1       2.389  12.463  18.265  0.00  0.00    +0.000 A 
ATOM     22  C   UNL     1       3.575  13.145  17.994  0.00  0.00    +0.000 A 
ATOM     23  C   UNL     1       3.625  14.526  18.139  0.00  0.00    +0.000 A 
ATOM     24  C   UNL     1       2.473  15.216  18.526  0.00  0.00    +0.000 A 
ATOM     25  C   UNL     1       1.276  14.545  18.785  0.00  0.00    +0.000 A 
BRANCH  24  26
ATOM     26  S   UNL     1       2.548  16.967  18.717  0.00  0.00    +0.000 S 
ATOM     27  O   UNL     1       1.317  17.439  19.305  0.00  0.00    +0.000 OA
ATOM     28  O   UNL     1       3.847  17.330  19.233  0.00  0.00    +0.000 OA
BRANCH  26  29
ATOM     29  N   UNL     1       2.519  17.433  17.108  0.00  0.00    +0.000 NA
ATOM     30  H   UNL     1       1.562  17.563  16.782  0.00  0.00    +0.000 HD
ATOM     31  H   UNL     1       3.151  18.215  16.941  0.00  0.00    +0.000 HD
ENDBRANCH  26  29
ENDBRANCH  24  26
ENDBRANCH  19  20
ENDBRANCH   1  19
TORSDOF 5
ENDMDL
MODEL 9
REMARK VINA RESULT:      -7.6      4.569      6.974
REMARK  Name = 
REMARK  6 active torsions:
REMARK  status: ('A' for Active; 'I' for Inactive)
REMARK    1  A    between atoms: C_1  and  C_2
REMARK    2  A    between atoms: C_2  and  N_3
REMARK    3  A    between atoms: C_2  and  C_19
REMARK    4  A    between atoms: C_10  and  C_11
REMARK    5  A    between atoms: C_23  and  S_24
REMARK    6  A    between atoms: S_24  and  N_25
REMARK                            x       y       z     vdW  Elec       q    Type
REMARK                         _______ _______ _______ _____ _____    ______ ____
ROOT
ATOM      1  N   UNL     1      -0.369  10.468  18.186  0.00  0.00    +0.000 N 
ATOM      2  C   UNL     1       0.198   9.832  19.269  0.00  0.00    +0.000 A 
ATOM      3  N   UNL     1      -0.154  10.153  20.491  0.00  0.00    +0.000 NA
ATOM      4  C   UNL     1       0.398   9.455  21.551  0.00  0.00    +0.000 A 
ATOM      5  C   UNL     1       1.275   8.446  21.409  0.00  0.00    +0.000 A 
ATOM      6  N   UNL     1       1.679   8.100  20.136  0.00  0.00    +0.000 N 
ATOM      7  N   UNL     1       2.556   7.137  19.758  0.00  0.00    +0.000 NA
ATOM      8  C   UNL     1       2.680   7.276  18.429  0.00  0.00    +0.000 A 
ATOM      9  C   UNL     1       1.820   8.296  17.946  0.00  0.00    +0.000 A 
ATOM     10  C   UNL     1       1.180   8.787  19.054  0.00  0.00    +0.000 A 
ATOM     11  H   UNL     1       0.029  10.196  17.298  0.00  0.00    +0.000 HD
ENDROOT
BRANCH   8  12
ATOM     12  C   UNL     1       3.597   6.451  17.640  0.00  0.00    +0.000 A 
ATOM     13  C   UNL     1       3.465   5.057  17.614  0.00  0.00    +0.000 A 
ATOM     14  C   UNL     1       4.335   4.275  16.848  0.00  0.00    +0.000 A 
ATOM     15  C   UNL     1       5.349   4.879  16.107  0.00  0.00    +0.000 A 
ATOM     16  C   UNL     1       5.496   6.264  16.130  0.00  0.00    +0.000 A 
ATOM     17  C   UNL     1       4.625   7.047  16.891  0.00  0.00    +0.000 A 
ENDBRANCH   8  12
BRANCH   1  19
ATOM     18  C   UNL     1      -0.101  12.631  19.311  0.00  0.00    +0.000 C 
ATOM     19  C   UNL     1      -0.816  11.854  18.208  0.00  0.00    +0.000 C 
BRANCH  19  20
ATOM     20  C   UNL     1      -2.322  11.831  18.435  0.00  0.00    +0.000 A 
ATOM     21  C   UNL     1      -3.219  11.526  17.389  0.00  0.00    +0.000 A 
ATOM     22  C   UNL     1      -4.598  11.636  17.566  0.00  0.00    +0.000 A 
ATOM     23  C   UNL     1      -5.104  12.060  18.788  0.00  0.00    +0.000 A 
ATOM     24  C   UNL     1      -4.222  12.343  19.835  0.00  0.00    +0.000 A 
ATOM     25  C   UNL     1      -2.841  12.222  19.674  0.00  0.00    +0.000 A 
BRANCH  24  26
ATOM     26  S   UNL     1      -4.874  12.890  21.378  0.00  0.00    +0.000 S 
ATOM     27  O   UNL     1      -4.048  12.392  22.453  0.00  0.00    +0.000 OA
ATOM     28  O   UNL     1      -5.250  14.280  21.266  0.00  0.00    +0.000 OA
BRANCH  26  29
ATOM     29  N   UNL     1      -6.296  12.006  21.421  0.00  0.00    +0.000 NA
ATOM     30  H   UNL     1      -7.102  12.599  21.229  0.00  0.00    +0.000 HD
ATOM     31  H   UNL     1      -6.223  11.165  20.848  0.00  0.00    +0.000 HD
ENDBRANCH  26  29
ENDBRANCH  24  26
ENDBRANCH  19  20
ENDBRANCH   1  19
TORSDOF 5
ENDMDL
