MODEL 1
REMARK VINA RESULT:      -9.4      0.000      0.000
REMARK  Name = 
REMARK  6 active torsions:
REMARK  status: ('A' for Active; 'I' for Inactive)
REMARK    1  A    between atoms: C_1  and  C_2
REMARK    2  A    between atoms: C_5  and  N_6
REMARK    3  A    between atoms: N_6  and  S_7
REMARK    4  A    between atoms: S_7  and  C_10
REMARK    5  A    between atoms: C_13  and  N_14
REMARK    6  A    between atoms: C_26  and  C_27
REMARK                            x       y       z     vdW  Elec       q    Type
REMARK                         _______ _______ _______ _____ _____    ______ ____
ROOT
ATOM      1  C   UNL     1       1.708   8.611  19.065  0.00  0.00    +0.000 A 
ATOM      2  C   UNL     1       1.788   7.546  19.957  0.00  0.00    +0.000 A 
ATOM      3  C   UNL     1       2.519   6.420  19.602  0.00  0.00    +0.000 A 
ATOM      4  C   UNL     1       3.063   6.318  18.309  0.00  0.00    +0.000 A 
ATOM      5  C   UNL     1       3.173   7.480  17.531  0.00  0.00    +0.000 A 
ATOM      6  C   UNL     1       2.470   8.630  17.897  0.00  0.00    +0.000 A 
ENDROOT
BRANCH   4   7
ATOM      7  N   UNL     1       3.132   5.008  17.660  0.00  0.00    +0.000 N 
ATOM      8  C   UNL     1       1.814   4.330  17.644  0.00  0.00    +0.000 C 
ATOM      9  C   UNL     1       1.826   3.628  18.961  0.00  0.00    +0.000 A 
ATOM     10  C   UNL     1       0.821   3.477  19.898  0.00  0.00    +0.000 A 
ATOM     11  C   UNL     1       1.185   3.051  21.180  0.00  0.00    +0.000 A 
ATOM     12  C   UNL     1       2.526   2.757  21.496  0.00  0.00    +0.000 A 
ATOM     13  C   UNL     1       3.535   2.908  20.541  0.00  0.00    +0.000 A 
ATOM     14  C   UNL     1       3.158   3.353  19.290  0.00  0.00    +0.000 A 
ATOM     15  C   UNL     1       4.004   4.077  18.304  0.00  0.00    +0.000 C 
ATOM     16  O   UNL     1       5.218   4.007  18.250  0.00  0.00    +0.000 OA
ENDBRANCH   4   7
BRANCH   1  17
ATOM     17  S   UNL     1       0.558   9.908  19.427  0.00  0.00    +0.000 S 
ATOM     18  O   UNL     1       1.325  11.102  19.687  0.00  0.00    +0.000 OA
ATOM     19  O   UNL     1      -0.394   9.372  20.383  0.00  0.00    +0.000 OA
BRANCH  17  20
ATOM     20  N   UNL     1      -0.252  10.013  17.934  0.00  0.00    +0.000 N 
ATOM     21  H   UNL     1      -0.356   9.061  17.601  0.00  0.00    +0.000 HD
BRANCH  20  26
ATOM     22  C   UNL     1      -4.920  11.742  17.363  0.00  0.00    +0.000 C 
ATOM     23  C   UNL     1      -3.554  11.425  17.843  0.00  0.00    +0.000 A 
ATOM     24  N   UNL     1      -3.103  11.954  18.986  0.00  0.00    +0.000 NA
ATOM     25  O   UNL     1      -1.834  11.435  19.161  0.00  0.00    +0.000 OA
ATOM     26  C   UNL     1      -1.522  10.635  18.111  0.00  0.00    +0.000 A 
ATOM     27  C   UNL     1      -2.588  10.573  17.240  0.00  0.00    +0.000 A 
ATOM     28  C   UNL     1      -2.752   9.777  16.001  0.00  0.00    +0.000 C 
ENDBRANCH  20  26
ENDBRANCH  17  20
ENDBRANCH   1  17
TORSDOF 4
ENDMDL
MODEL 2
REMARK VINA RESULT:      -9.1      4.773      7.339
REMARK  Name = 
REMARK  6 active torsions:
REMARK  status: ('A' for Active; 'I' for Inactive)
REMARK    1  A    between atoms: C_1  and  C_2
REMARK    2  A    between atoms: C_5  and  N_6
REMARK    3  A    between atoms: N_6  and  S_7
REMARK    4  A    between atoms: S_7  and  C_10
REMARK    5  A    between atoms: C_13  and  N_14
REMARK    6  A    between atoms: C_26  and  C_27
REMARK                            x       y       z     vdW  Elec       q    Type
REMARK                         _______ _______ _______ _____ _____    ______ ____
ROOT
ATOM      1  C   UNL     1       4.906   6.651  17.828  0.00  0.00    +0.000 A 
ATOM      2  C   UNL     1       3.656   7.235  17.649  0.00  0.00    +0.000 A 
ATOM      3  C   UNL     1       2.596   6.817  18.441  0.00  0.00    +0.000 A 
ATOM      4  C   UNL     1       2.763   5.734  19.322  0.00  0.00    +0.000 A 
ATOM      5  C   UNL     1       4.066   5.330  19.652  0.00  0.00    +0.000 A 
ATOM      6  C   UNL     1       5.146   5.772  18.884  0.00  0.00    +0.000 A 
ENDROOT
BRANCH   4   7
ATOM      7  N   UNL     1       1.645   4.820  19.558  0.00  0.00    +0.000 N 
ATOM      8  C   UNL     1       1.860   3.985  20.764  0.00  0.00    +0.000 C 
ATOM      9  C   UNL     1       2.621   2.834  20.195  0.00  0.00    +0.000 A 
ATOM     10  C   UNL     1       3.714   2.153  20.699  0.00  0.00    +0.000 A 
ATOM     11  C   UNL     1       4.426   1.327  19.824  0.00  0.00    +0.000 A 
ATOM     12  C   UNL     1       4.026   1.171  18.482  0.00  0.00    +0.000 A 
ATOM     13  C   UNL     1       2.917   1.859  17.982  0.00  0.00    +0.000 A 
ATOM     14  C   UNL     1       2.243   2.688  18.856  0.00  0.00    +0.000 A 
ATOM     15  C   UNL     1       1.421   3.878  18.507  0.00  0.00    +0.000 C 
ATOM     16  O   UNL     1       0.869   4.048  17.437  0.00  0.00    +0.000 OA
ENDBRANCH   4   7
BRANCH   1  17
ATOM     17  S   UNL     1       6.164   7.006  16.632  0.00  0.00    +0.000 S 
ATOM     18  O   UNL     1       7.057   7.973  17.223  0.00  0.00    +0.000 OA
ATOM     19  O   UNL     1       5.489   7.242  15.369  0.00  0.00    +0.000 OA
BRANCH  17  20
ATOM     20  N   UNL     1       6.905   5.478  16.516  0.00  0.00    +0.000 N 
ATOM     21  H   UNL     1       6.384   4.864  17.133  0.00  0.00    +0.000 HD
BRANCH  20  26
ATOM     22  C   UNL     1       5.785   3.100  12.252  0.00  0.00    +0.000 C 
ATOM     23  C   UNL     1       6.390   3.943  13.310  0.00  0.00    +0.000 A 
ATOM     24  N   UNL     1       7.490   4.659  13.053  0.00  0.00    +0.000 NA
ATOM     25  O   UNL     1       7.764   5.350  14.220  0.00  0.00    +0.000 OA
ATOM     26  C   UNL     1       6.856   5.015  15.171  0.00  0.00    +0.000 A 
ATOM     27  C   UNL     1       5.938   4.130  14.646  0.00  0.00    +0.000 A 
ATOM     28  C   UNL     1       4.728   3.544  15.268  0.00  0.00    +0.000 C 
ENDBRANCH  20  26
ENDBRANCH  17  20
ENDBRANCH   1  17
TORSDOF 4
ENDMDL
MODEL 3
REMARK VINA RESULT:      -9.1      0.929      1.196
REMARK  Name = 
REMARK  6 active torsions:
REMARK  status: ('A' for Active; 'I' for Inactive)
REMARK    1  A    between atoms: C_1  and  C_2
REMARK    2  A    between atoms: C_5  and  N_6
REMARK    3  A    between atoms: N_6  and  S_7
REMARK    4  A    between atoms: S_7  and  C_10
REMARK    5  A    between atoms: C_13  and  N_14
REMARK    6  A    between atoms: C_26  and  C_27
REMARK                            x       y       z     vdW  Elec       q    Type
REMARK                         _______ _______ _______ _____ _____    ______ ____
ROOT
ATOM      1  C   UNL     1       1.766   8.615  19.113  0.00  0.00    +0.000 A 
ATOM      2  C   UNL     1       1.864   7.545  19.997  0.00  0.00    +0.000 A 
ATOM      3  C   UNL     1       2.577   6.417  19.616  0.00  0.00    +0.000 A 
ATOM      4  C   UNL     1       3.084   6.317  18.308  0.00  0.00    +0.000 A 
ATOM      5  C   UNL     1       3.179   7.483  17.532  0.00  0.00    +0.000 A 
ATOM      6  C   UNL     1       2.494   8.635  17.923  0.00  0.00    +0.000 A 
ENDROOT
BRANCH   4   7
ATOM      7  N   UNL     1       3.126   5.010  17.651  0.00  0.00    +0.000 N 
ATOM      8  C   UNL     1       1.799   4.349  17.652  0.00  0.00    +0.000 C 
ATOM      9  C   UNL     1       1.822   3.640  18.965  0.00  0.00    +0.000 A 
ATOM     10  C   UNL     1       0.830   3.497  19.917  0.00  0.00    +0.000 A 
ATOM     11  C   UNL     1       1.209   3.059  21.190  0.00  0.00    +0.000 A 
ATOM     12  C   UNL     1       2.551   2.746  21.484  0.00  0.00    +0.000 A 
ATOM     13  C   UNL     1       3.547   2.889  20.514  0.00  0.00    +0.000 A 
ATOM     14  C   UNL     1       3.156   3.346  19.271  0.00  0.00    +0.000 A 
ATOM     15  C   UNL     1       3.996   4.064  18.276  0.00  0.00    +0.000 C 
ATOM     16  O   UNL     1       5.207   3.979  18.203  0.00  0.00    +0.000 OA
ENDBRANCH   4   7
BRANCH   1  17
ATOM     17  S   UNL     1       0.635   9.918  19.514  0.00  0.00    +0.000 S 
ATOM     18  O   UNL     1       1.403  10.987  20.104  0.00  0.00    +0.000 OA
ATOM     19  O   UNL     1      -0.491   9.303  20.194  0.00  0.00    +0.000 OA
BRANCH  17  20
ATOM     20  N   UNL     1       0.098  10.337  17.954  0.00  0.00    +0.000 N 
ATOM     21  H   UNL     1       0.361   9.567  17.348  0.00  0.00    +0.000 HD
BRANCH  20  26
ATOM     22  C   UNL     1      -4.563  12.000  18.733  0.00  0.00    +0.000 C 
ATOM     23  C   UNL     1      -3.360  11.232  18.334  0.00  0.00    +0.000 A 
ATOM     24  N   UNL     1      -3.488  10.070  17.684  0.00  0.00    +0.000 NA
ATOM     25  O   UNL     1      -2.198   9.642  17.430  0.00  0.00    +0.000 OA
ATOM     26  C   UNL     1      -1.314  10.524  17.959  0.00  0.00    +0.000 A 
ATOM     27  C   UNL     1      -1.994  11.574  18.538  0.00  0.00    +0.000 A 
ATOM     28  C   UNL     1      -1.469  12.808  19.169  0.00  0.00    +0.000 C 
ENDBRANCH  20  26
ENDBRANCH  17  20
ENDBRANCH   1  17
TORSDOF 4
ENDMDL
MODEL 4
REMARK VINA RESULT:      -8.9      2.739      3.754
REMARK  Name = 
REMARK  6 active torsions:
REMARK  status: ('A' for Active; 'I' for Inactive)
REMARK    1  A    between atoms: C_1  and  C_2
REMARK    2  A    between atoms: C_5  and  N_6
REMARK    3  A    between atoms: N_6  and  S_7
REMARK    4  A    between atoms: S_7  and  C_10
REMARK    5  A    between atoms: C_13  and  N_14
REMARK    6  A    between atoms: C_26  and  C_27
REMARK                            x       y       z     vdW  Elec       q    Type
REMARK                         _______ _______ _______ _____ _____    ______ ____
ROOT
ATOM      1  C   UNL     1       1.391   8.983  19.438  0.00  0.00    +0.000 A 
ATOM      2  C   UNL     1       1.394   8.313  20.657  0.00  0.00    +0.000 A 
ATOM      3  C   UNL     1       1.904   7.023  20.718  0.00  0.00    +0.000 A 
ATOM      4  C   UNL     1       2.296   6.369  19.536  0.00  0.00    +0.000 A 
ATOM      5  C   UNL     1       2.506   7.135  18.380  0.00  0.00    +0.000 A 
ATOM      6  C   UNL     1       2.028   8.446  18.320  0.00  0.00    +0.000 A 
ENDROOT
BRANCH   4   7
ATOM      7  N   UNL     1       2.098   4.923  19.416  0.00  0.00    +0.000 N 
ATOM      8  C   UNL     1       3.187   4.161  20.072  0.00  0.00    +0.000 C 
ATOM      9  C   UNL     1       4.190   4.071  18.971  0.00  0.00    +0.000 A 
ATOM     10  C   UNL     1       5.565   4.212  19.005  0.00  0.00    +0.000 A 
ATOM     11  C   UNL     1       6.231   4.394  17.789  0.00  0.00    +0.000 A 
ATOM     12  C   UNL     1       5.528   4.403  16.568  0.00  0.00    +0.000 A 
ATOM     13  C   UNL     1       4.139   4.255  16.542  0.00  0.00    +0.000 A 
ATOM     14  C   UNL     1       3.498   4.101  17.755  0.00  0.00    +0.000 A 
ATOM     15  C   UNL     1       2.085   4.441  18.071  0.00  0.00    +0.000 C 
ATOM     16  O   UNL     1       1.185   4.487  17.254  0.00  0.00    +0.000 OA
ENDBRANCH   4   7
BRANCH   1  17
ATOM     17  S   UNL     1       0.496  10.509  19.336  0.00  0.00    +0.000 S 
ATOM     18  O   UNL     1      -0.908  10.181  19.298  0.00  0.00    +0.000 OA
ATOM     19  O   UNL     1       1.137  11.303  18.303  0.00  0.00    +0.000 OA
BRANCH  17  20
ATOM     20  N   UNL     1       0.924  11.206  20.828  0.00  0.00    +0.000 N 
ATOM     21  H   UNL     1       1.638  11.897  20.623  0.00  0.00    +0.000 HD
BRANCH  20  26
ATOM     22  C   UNL     1      -3.150  12.206  23.567  0.00  0.00    +0.000 C 
ATOM     23  C   UNL     1      -2.027  12.233  22.601  0.00  0.00    +0.000 A 
ATOM     24  N   UNL     1      -1.902  13.251  21.742  0.00  0.00    +0.000 NA
ATOM     25  O   UNL     1      -0.750  12.992  21.023  0.00  0.00    +0.000 OA
ATOM     26  C   UNL     1      -0.217  11.812  21.428  0.00  0.00    +0.000 A 
ATOM     27  C   UNL     1      -0.979  11.283  22.448  0.00  0.00    +0.000 A 
ATOM     28  C   UNL     1      -0.759  10.061  23.257  0.00  0.00    +0.000 C 
ENDBRANCH  20  26
ENDBRANCH  17  20
ENDBRANCH   1  17
TORSDOF 4
ENDMDL
MODEL 5
REMARK VINA RESULT:      -8.9      2.452      2.806
REMARK  Name = 
REMARK  6 active torsions:
REMARK  status: ('A' for Active; 'I' for Inactive)
REMARK    1  A    between atoms: C_1  and  C_2
REMARK    2  A    between atoms: C_5  and  N_6
REMARK    3  A    between atoms: N_6  and  S_7
REMARK    4  A    between atoms: S_7  and  C_10
REMARK    5  A    between atoms: C_13  and  N_14
REMARK    6  A    between atoms: C_26  and  C_27
REMARK                            x       y       z     vdW  Elec       q    Type
REMARK                         _______ _______ _______ _____ _____    ______ ____
ROOT
ATOM      1  C   UNL     1       1.959   8.700  18.873  0.00  0.00    +0.000 A 
ATOM      2  C   UNL     1       1.796   7.652  19.773  0.00  0.00    +0.000 A 
ATOM      3  C   UNL     1       2.374   6.422  19.490  0.00  0.00    +0.000 A 
ATOM      4  C   UNL     1       3.007   6.214  18.252  0.00  0.00    +0.000 A 
ATOM      5  C   UNL     1       3.361   7.332  17.481  0.00  0.00    +0.000 A 
ATOM      6  C   UNL     1       2.814   8.582  17.778  0.00  0.00    +0.000 A 
ENDROOT
BRANCH   4   7
ATOM      7  N   UNL     1       2.931   4.897  17.617  0.00  0.00    +0.000 N 
ATOM      8  C   UNL     1       1.584   4.294  17.758  0.00  0.00    +0.000 C 
ATOM      9  C   UNL     1       1.706   3.603  19.075  0.00  0.00    +0.000 A 
ATOM     10  C   UNL     1       0.806   3.515  20.121  0.00  0.00    +0.000 A 
ATOM     11  C   UNL     1       1.288   3.080  21.360  0.00  0.00    +0.000 A 
ATOM     12  C   UNL     1       2.638   2.714  21.528  0.00  0.00    +0.000 A 
ATOM     13  C   UNL     1       3.540   2.800  20.464  0.00  0.00    +0.000 A 
ATOM     14  C   UNL     1       3.049   3.256  19.257  0.00  0.00    +0.000 A 
ATOM     15  C   UNL     1       3.818   3.924  18.172  0.00  0.00    +0.000 C 
ATOM     16  O   UNL     1       5.012   3.786  17.984  0.00  0.00    +0.000 OA
ENDBRANCH   4   7
BRANCH   1  17
ATOM     17  S   UNL     1       0.994  10.164  19.125  0.00  0.00    +0.000 S 
ATOM     18  O   UNL     1      -0.375   9.836  18.812  0.00  0.00    +0.000 OA
ATOM     19  O   UNL     1       1.702  11.251  18.473  0.00  0.00    +0.000 OA
BRANCH  17  20
ATOM     20  N   UNL     1       1.206  10.375  20.801  0.00  0.00    +0.000 N 
ATOM     21  H   UNL     1       2.095  10.850  20.916  0.00  0.00    +0.000 HD
BRANCH  20  26
ATOM     22  C   UNL     1      -2.737  12.053  23.398  0.00  0.00    +0.000 C 
ATOM     23  C   UNL     1      -1.616  11.872  22.445  0.00  0.00    +0.000 A 
ATOM     24  N   UNL     1      -1.379  12.790  21.501  0.00  0.00    +0.000 NA
ATOM     25  O   UNL     1      -0.261  12.344  20.821  0.00  0.00    +0.000 OA
ATOM     26  C   UNL     1       0.137  11.153  21.333  0.00  0.00    +0.000 A 
ATOM     27  C   UNL     1      -0.679  10.803  22.387  0.00  0.00    +0.000 A 
ATOM     28  C   UNL     1      -0.595   9.640  23.302  0.00  0.00    +0.000 C 
ENDBRANCH  20  26
ENDBRANCH  17  20
ENDBRANCH   1  17
TORSDOF 4
ENDMDL
MODEL 6
REMARK VINA RESULT:      -8.8      1.852      2.278
REMARK  Name = 
REMARK  6 active torsions:
REMARK  status: ('A' for Active; 'I' for Inactive)
REMARK    1  A    between atoms: C_1  and  C_2
REMARK    2  A    between atoms: C_5  and  N_6
REMARK    3  A    between atoms: N_6  and  S_7
REMARK    4  A    between atoms: S_7  and  C_10
REMARK    5  A    between atoms: C_13  and  N_14
REMARK    6  A    between atoms: C_26  and  C_27
REMARK                            x       y       z     vdW  Elec       q    Type
REMARK                         _______ _______ _______ _____ _____    ______ ____
ROOT
ATOM      1  C   UNL     1       1.531   8.504  19.835  0.00  0.00    +0.000 A 
ATOM      2  C   UNL     1       1.955   7.394  20.557  0.00  0.00    +0.000 A 
ATOM      3  C   UNL     1       2.661   6.392  19.905  0.00  0.00    +0.000 A 
ATOM      4  C   UNL     1       2.833   6.451  18.511  0.00  0.00    +0.000 A 
ATOM      5  C   UNL     1       2.612   7.672  17.856  0.00  0.00    +0.000 A 
ATOM      6  C   UNL     1       1.933   8.700  18.514  0.00  0.00    +0.000 A 
ENDROOT
BRANCH   4   7
ATOM      7  N   UNL     1       2.842   5.210  17.735  0.00  0.00    +0.000 N 
ATOM      8  C   UNL     1       1.534   4.515  17.789  0.00  0.00    +0.000 C 
ATOM      9  C   UNL     1       1.688   3.691  19.025  0.00  0.00    +0.000 A 
ATOM     10  C   UNL     1       0.787   3.435  20.042  0.00  0.00    +0.000 A 
ATOM     11  C   UNL     1       1.285   2.895  21.232  0.00  0.00    +0.000 A 
ATOM     12  C   UNL     1       2.654   2.595  21.378  0.00  0.00    +0.000 A 
ATOM     13  C   UNL     1       3.557   2.852  20.343  0.00  0.00    +0.000 A 
ATOM     14  C   UNL     1       3.048   3.408  19.186  0.00  0.00    +0.000 A 
ATOM     15  C   UNL     1       3.783   4.236  18.193  0.00  0.00    +0.000 C 
ATOM     16  O   UNL     1       4.984   4.192  18.008  0.00  0.00    +0.000 OA
ENDBRANCH   4   7
BRANCH   1  17
ATOM     17  S   UNL     1       0.409   9.626  20.624  0.00  0.00    +0.000 S 
ATOM     18  O   UNL     1       1.203  10.619  21.304  0.00  0.00    +0.000 OA
ATOM     19  O   UNL     1      -0.580   8.816  21.312  0.00  0.00    +0.000 OA
BRANCH  17  20
ATOM     20  N   UNL     1      -0.362  10.286  19.258  0.00  0.00    +0.000 N 
ATOM     21  H   UNL     1      -1.357  10.153  19.403  0.00  0.00    +0.000 HD
BRANCH  20  26
ATOM     22  C   UNL     1      -0.448  15.295  19.271  0.00  0.00    +0.000 C 
ATOM     23  C   UNL     1      -0.095  13.865  19.108  0.00  0.00    +0.000 A 
ATOM     24  N   UNL     1       1.055  13.519  18.519  0.00  0.00    +0.000 NA
ATOM     25  O   UNL     1       1.094  12.137  18.563  0.00  0.00    +0.000 OA
ATOM     26  C   UNL     1      -0.042  11.669  19.139  0.00  0.00    +0.000 A 
ATOM     27  C   UNL     1      -0.838  12.725  19.526  0.00  0.00    +0.000 A 
ATOM     28  C   UNL     1      -2.126  12.721  20.257  0.00  0.00    +0.000 C 
ENDBRANCH  20  26
ENDBRANCH  17  20
ENDBRANCH   1  17
TORSDOF 4
ENDMDL
MODEL 7
REMARK VINA RESULT:      -8.8      2.112      2.556
REMARK  Name = 
REMARK  6 active torsions:
REMARK  status: ('A' for Active; 'I' for Inactive)
REMARK    1  A    between atoms: C_1  and  C_2
REMARK    2  A    between atoms: C_5  and  N_6
REMARK    3  A    between atoms: N_6  and  S_7
REMARK    4  A    between atoms: S_7  and  C_10
REMARK    5  A    between atoms: C_13  and  N_14
REMARK    6  A    between atoms: C_26  and  C_27
REMARK                            x       y       z     vdW  Elec       q    Type
REMARK                         _______ _______ _______ _____ _____    ______ ____
ROOT
ATOM      1  C   UNL     1       1.881   8.452  18.893  0.00  0.00    +0.000 A 
ATOM      2  C   UNL     1       1.984   7.454  19.857  0.00  0.00    +0.000 A 
ATOM      3  C   UNL     1       2.801   6.359  19.612  0.00  0.00    +0.000 A 
ATOM      4  C   UNL     1       3.414   6.210  18.355  0.00  0.00    +0.000 A 
ATOM      5  C   UNL     1       3.488   7.325  17.506  0.00  0.00    +0.000 A 
ATOM      6  C   UNL     1       2.697   8.447  17.761  0.00  0.00    +0.000 A 
ENDROOT
BRANCH   4   7
ATOM      7  N   UNL     1       3.598   4.869  17.799  0.00  0.00    +0.000 N 
ATOM      8  C   UNL     1       2.303   4.188  17.563  0.00  0.00    +0.000 C 
ATOM      9  C   UNL     1       2.054   3.555  18.891  0.00  0.00    +0.000 A 
ATOM     10  C   UNL     1       0.886   3.450  19.623  0.00  0.00    +0.000 A 
ATOM     11  C   UNL     1       0.991   3.091  20.970  0.00  0.00    +0.000 A 
ATOM     12  C   UNL     1       2.244   2.818  21.555  0.00  0.00    +0.000 A 
ATOM     13  C   UNL     1       3.420   2.921  20.808  0.00  0.00    +0.000 A 
ATOM     14  C   UNL     1       3.295   3.300  19.486  0.00  0.00    +0.000 A 
ATOM     15  C   UNL     1       4.322   3.974  18.647  0.00  0.00    +0.000 C 
ATOM     16  O   UNL     1       5.522   3.906  18.833  0.00  0.00    +0.000 OA
ENDBRANCH   4   7
BRANCH   1  17
ATOM     17  S   UNL     1       0.635   9.691  19.114  0.00  0.00    +0.000 S 
ATOM     18  O   UNL     1       0.020   9.457  20.398  0.00  0.00    +0.000 OA
ATOM     19  O   UNL     1      -0.132   9.740  17.882  0.00  0.00    +0.000 OA
BRANCH  17  20
ATOM     20  N   UNL     1       1.606  11.088  19.144  0.00  0.00    +0.000 N 
ATOM     21  H   UNL     1       1.672  11.408  18.183  0.00  0.00    +0.000 HD
BRANCH  20  26
ATOM     22  C   UNL     1      -0.964  15.001  20.929  0.00  0.00    +0.000 C 
ATOM     23  C   UNL     1      -0.088  13.819  20.749  0.00  0.00    +0.000 A 
ATOM     24  N   UNL     1       0.614  13.339  21.782  0.00  0.00    +0.000 NA
ATOM     25  O   UNL     1       1.282  12.231  21.293  0.00  0.00    +0.000 OA
ATOM     26  C   UNL     1       1.008  12.080  19.973  0.00  0.00    +0.000 A 
ATOM     27  C   UNL     1       0.122  13.055  19.567  0.00  0.00    +0.000 A 
ATOM     28  C   UNL     1      -0.525  13.256  18.250  0.00  0.00    +0.000 C 
ENDBRANCH  20  26
ENDBRANCH  17  20
ENDBRANCH   1  17
TORSDOF 4
ENDMDL
MODEL 8
REMARK VINA RESULT:      -8.8      1.390      2.570
REMARK  Name = 
REMARK  6 active torsions:
REMARK  status: ('A' for Active; 'I' for Inactive)
REMARK    1  A    between atoms: C_1  and  C_2
REMARK    2  A    between atoms: C_5  and  N_6
REMARK    3  A    between atoms: N_6  and  S_7
REMARK    4  A    between atoms: S_7  and  C_10
REMARK    5  A    between atoms: C_13  and  N_14
REMARK    6  A    between atoms: C_26  and  C_27
REMARK                            x       y       z     vdW  Elec       q    Type
REMARK                         _______ _______ _______ _____ _____    ______ ____
ROOT
ATOM      1  C   UNL     1       1.410   8.912  19.223  0.00  0.00    +0.000 A 
ATOM      2  C   UNL     1       1.467   8.283  20.463  0.00  0.00    +0.000 A 
ATOM      3  C   UNL     1       2.028   7.016  20.554  0.00  0.00    +0.000 A 
ATOM      4  C   UNL     1       2.417   6.338  19.385  0.00  0.00    +0.000 A 
ATOM      5  C   UNL     1       2.571   7.073  18.200  0.00  0.00    +0.000 A 
ATOM      6  C   UNL     1       2.042   8.362  18.108  0.00  0.00    +0.000 A 
ENDROOT
BRANCH   4   7
ATOM      7  N   UNL     1       2.273   4.883  19.317  0.00  0.00    +0.000 N 
ATOM      8  C   UNL     1       3.429   4.185  19.928  0.00  0.00    +0.000 C 
ATOM      9  C   UNL     1       4.369   4.101  18.771  0.00  0.00    +0.000 A 
ATOM     10  C   UNL     1       5.736   4.297  18.720  0.00  0.00    +0.000 A 
ATOM     11  C   UNL     1       6.322   4.469  17.462  0.00  0.00    +0.000 A 
ATOM     12  C   UNL     1       5.549   4.414  16.285  0.00  0.00    +0.000 A 
ATOM     13  C   UNL     1       4.168   4.209  16.345  0.00  0.00    +0.000 A 
ATOM     14  C   UNL     1       3.606   4.067  17.599  0.00  0.00    +0.000 A 
ATOM     15  C   UNL     1       2.201   4.360  17.989  0.00  0.00    +0.000 C 
ATOM     16  O   UNL     1       1.254   4.345  17.226  0.00  0.00    +0.000 OA
ENDBRANCH   4   7
BRANCH   1  17
ATOM     17  S   UNL     1       0.455  10.398  19.092  0.00  0.00    +0.000 S 
ATOM     18  O   UNL     1       1.372  11.475  18.813  0.00  0.00    +0.000 OA
ATOM     19  O   UNL     1      -0.447  10.419  20.230  0.00  0.00    +0.000 OA
BRANCH  17  20
ATOM     20  N   UNL     1      -0.488  10.025  17.725  0.00  0.00    +0.000 N 
ATOM     21  H   UNL     1      -0.559   9.014  17.697  0.00  0.00    +0.000 HD
BRANCH  20  26
ATOM     22  C   UNL     1      -5.132  11.722  16.918  0.00  0.00    +0.000 C 
ATOM     23  C   UNL     1      -3.796  11.402  17.474  0.00  0.00    +0.000 A 
ATOM     24  N   UNL     1      -3.428  11.892  18.663  0.00  0.00    +0.000 NA
ATOM     25  O   UNL     1      -2.165  11.380  18.900  0.00  0.00    +0.000 OA
ATOM     26  C   UNL     1      -1.775  10.625  17.843  0.00  0.00    +0.000 A 
ATOM     27  C   UNL     1      -2.781  10.585  16.902  0.00  0.00    +0.000 A 
ATOM     28  C   UNL     1      -2.854   9.836  15.626  0.00  0.00    +0.000 C 
ENDBRANCH  20  26
ENDBRANCH  17  20
ENDBRANCH   1  17
TORSDOF 4
ENDMDL
MODEL 9
REMARK VINA RESULT:      -8.8      4.967      7.731
REMARK  Name = 
REMARK  6 active torsions:
REMARK  status: ('A' for Active; 'I' for Inactive)
REMARK    1  A    between atoms: C_1  and  C_2
REMARK    2  A    between atoms: C_5  and  N_6
REMARK    3  A    between atoms: N_6  and  S_7
REMARK    4  A    between atoms: S_7  and  C_10
REMARK    5  A    between atoms: C_13  and  N_14
REMARK    6  A    between atoms: C_26  and  C_27
REMARK                            x       y       z     vdW  Elec       q    Type
REMARK                         _______ _______ _______ _____ _____    ______ ____
ROOT
ATOM      1  C   UNL     1       5.594   6.135  17.608  0.00  0.00    +0.000 A 
ATOM      2  C   UNL     1       4.431   6.728  17.124  0.00  0.00    +0.000 A 
ATOM      3  C   UNL     1       3.265   6.637  17.871  0.00  0.00    +0.000 A 
ATOM      4  C   UNL     1       3.240   5.852  19.038  0.00  0.00    +0.000 A 
ATOM      5  C   UNL     1       4.459   5.473  19.620  0.00  0.00    +0.000 A 
ATOM      6  C   UNL     1       5.644   5.592  18.891  0.00  0.00    +0.000 A 
ENDROOT
BRANCH   4   7
ATOM      7  N   UNL     1       2.018   5.129  19.391  0.00  0.00    +0.000 N 
ATOM      8  C   UNL     1       2.186   4.336  20.632  0.00  0.00    +0.000 C 
ATOM      9  C   UNL     1       2.733   3.056  20.093  0.00  0.00    +0.000 A 
ATOM     10  C   UNL     1       3.744   2.246  20.576  0.00  0.00    +0.000 A 
ATOM     11  C   UNL     1       4.270   1.278  19.715  0.00  0.00    +0.000 A 
ATOM     12  C   UNL     1       3.766   1.114  18.409  0.00  0.00    +0.000 A 
ATOM     13  C   UNL     1       2.740   1.933  17.930  0.00  0.00    +0.000 A 
ATOM     14  C   UNL     1       2.252   2.898  18.788  0.00  0.00    +0.000 A 
ATOM     15  C   UNL     1       1.592   4.178  18.414  0.00  0.00    +0.000 C 
ATOM     16  O   UNL     1       1.003   4.372  17.368  0.00  0.00    +0.000 OA
ENDBRANCH   4   7
BRANCH   1  17
ATOM     17  S   UNL     1       6.986   6.034  16.517  0.00  0.00    +0.000 S 
ATOM     18  O   UNL     1       7.470   4.676  16.563  0.00  0.00    +0.000 OA
ATOM     19  O   UNL     1       7.836   7.173  16.814  0.00  0.00    +0.000 OA
BRANCH  17  20
ATOM     20  N   UNL     1       6.225   6.364  15.031  0.00  0.00    +0.000 N 
ATOM     21  H   UNL     1       6.772   7.094  14.589  0.00  0.00    +0.000 HD
BRANCH  20  26
ATOM     22  C   UNL     1       7.088   2.830  11.586  0.00  0.00    +0.000 C 
ATOM     23  C   UNL     1       6.550   3.657  12.692  0.00  0.00    +0.000 A 
ATOM     24  N   UNL     1       5.444   3.276  13.340  0.00  0.00    +0.000 NA
ATOM     25  O   UNL     1       5.240   4.230  14.320  0.00  0.00    +0.000 OA
ATOM     26  C   UNL     1       6.196   5.188  14.227  0.00  0.00    +0.000 A 
ATOM     27  C   UNL     1       7.076   4.872  13.215  0.00  0.00    +0.000 A 
ATOM     28  C   UNL     1       8.313   5.564  12.786  0.00  0.00    +0.000 C 
ENDBRANCH  20  26
ENDBRANCH  17  20
ENDBRANCH   1  17
TORSDOF 4
ENDMDL
