MODEL 1
REMARK VINA RESULT:      -7.9      0.000      0.000
REMARK  Name = 
REMARK  2 active torsions:
REMARK  status: ('A' for Active; 'I' for Inactive)
REMARK    1  A    between atoms: C_2  and  C_3
REMARK    2  A    between atoms: C_6  and  C_8
REMARK                            x       y       z     vdW  Elec       q    Type
REMARK                         _______ _______ _______ _____ _____    ______ ____
ROOT
ATOM      1  C   UNL     1      -0.074  12.203  19.364  0.00  0.00    +0.000 C 
ATOM      2  C   UNL     1      -1.172  11.688  20.264  0.00  0.00    +0.000 C 
ATOM      3  N   UNL     1      -0.623  10.779  21.284  0.00  0.00    +0.000 N 
ATOM      4  C   UNL     1      -0.774  10.958  22.676  0.00  0.00    +0.000 C 
ATOM      5  O   UNL     1      -0.266  10.231  23.535  0.00  0.00    +0.000 OA
ATOM      6  C   UNL     1       0.282   9.814  20.716  0.00  0.00    +0.000 A 
ATOM      7  C   UNL     1       0.695   8.660  21.386  0.00  0.00    +0.000 A 
ATOM      8  C   UNL     1       1.551   7.739  20.769  0.00  0.00    +0.000 A 
ATOM      9  C   UNL     1       2.013   7.953  19.474  0.00  0.00    +0.000 A 
ATOM     10  C   UNL     1       1.625   9.102  18.793  0.00  0.00    +0.000 A 
ATOM     11  C   UNL     1       0.776  10.021  19.410  0.00  0.00    +0.000 A 
ATOM     12  O   UNL     1       0.487  11.118  18.638  0.00  0.00    +0.000 OA
ENDROOT
BRANCH   4  13
ATOM     13  C   UNL     1      -1.534  12.142  23.201  0.00  0.00    +0.000 A 
ATOM     14  C   UNL     1      -2.887  12.006  23.482  0.00  0.00    +0.000 A 
ATOM     15  C   UNL     1      -3.563  13.112  23.989  0.00  0.00    +0.000 A 
ATOM     16  C   UNL     1      -2.866  14.307  24.223  0.00  0.00    +0.000 A 
ATOM     17  C   UNL     1      -3.493  15.454  24.737  0.00  0.00    +0.000 A 
ATOM     18  C   UNL     1      -2.761  16.623  24.951  0.00  0.00    +0.000 A 
ATOM     19  C   UNL     1      -1.396  16.641  24.689  0.00  0.00    +0.000 A 
ATOM     20  C   UNL     1      -0.774  15.500  24.179  0.00  0.00    +0.000 A 
ATOM     21  C   UNL     1      -1.497  14.347  23.914  0.00  0.00    +0.000 A 
ATOM     22  N   UNL     1      -0.861  13.306  23.363  0.00  0.00    +0.000 NA
ENDBRANCH   4  13
BRANCH   1  24
ATOM     23  O   UNL     1       1.899  12.642  20.737  0.00  0.00    +0.000 OA
ATOM     24  C   UNL     1       0.926  13.102  20.142  0.00  0.00    +0.000 C 
ATOM     25  N   UNL     1       0.611  14.456  20.200  0.00  0.00    +0.000 N 
ATOM     26  C   UNL     1      -0.563  15.081  19.603  0.00  0.00    +0.000 C 
ATOM     27  C   UNL     1      -0.152  16.187  18.638  0.00  0.00    +0.000 C 
ATOM     28  C   UNL     1       0.772  17.192  19.325  0.00  0.00    +0.000 C 
ATOM     29  C   UNL     1       1.955  16.498  20.002  0.00  0.00    +0.000 C 
ATOM     30  C   UNL     1       1.495  15.369  20.920  0.00  0.00    +0.000 C 
ENDBRANCH   1  24
TORSDOF 2
ENDMDL
MODEL 2
REMARK VINA RESULT:      -7.7      0.973      1.771
REMARK  Name = 
REMARK  2 active torsions:
REMARK  status: ('A' for Active; 'I' for Inactive)
REMARK    1  A    between atoms: C_2  and  C_3
REMARK    2  A    between atoms: C_6  and  C_8
REMARK                            x       y       z     vdW  Elec       q    Type
REMARK                         _______ _______ _______ _____ _____    ______ ____
ROOT
ATOM      1  C   UNL     1      -0.043  12.172  19.333  0.00  0.00    +0.000 C 
ATOM      2  C   UNL     1      -1.238  11.701  20.129  0.00  0.00    +0.000 C 
ATOM      3  N   UNL     1      -0.813  10.814  21.224  0.00  0.00    +0.000 N 
ATOM      4  C   UNL     1      -1.103  11.035  22.588  0.00  0.00    +0.000 C 
ATOM      5  O   UNL     1      -0.700  10.325  23.514  0.00  0.00    +0.000 OA
ATOM      6  C   UNL     1       0.126   9.817  20.779  0.00  0.00    +0.000 A 
ATOM      7  C   UNL     1       0.445   8.676  21.519  0.00  0.00    +0.000 A 
ATOM      8  C   UNL     1       1.342   7.723  21.018  0.00  0.00    +0.000 A 
ATOM      9  C   UNL     1       1.938   7.893  19.772  0.00  0.00    +0.000 A 
ATOM     10  C   UNL     1       1.645   9.027  19.024  0.00  0.00    +0.000 A 
ATOM     11  C   UNL     1       0.755   9.978  19.525  0.00  0.00    +0.000 A 
ATOM     12  O   UNL     1       0.568  11.057  18.698  0.00  0.00    +0.000 OA
ENDROOT
BRANCH   4  13
ATOM     13  C   UNL     1      -1.890  12.246  23.000  0.00  0.00    +0.000 A 
ATOM     14  C   UNL     1      -1.215  13.420  23.302  0.00  0.00    +0.000 A 
ATOM     15  C   UNL     1      -1.968  14.535  23.659  0.00  0.00    +0.000 A 
ATOM     16  C   UNL     1      -3.369  14.450  23.678  0.00  0.00    +0.000 A 
ATOM     17  C   UNL     1      -4.183  15.541  24.026  0.00  0.00    +0.000 A 
ATOM     18  C   UNL     1      -5.572  15.410  24.036  0.00  0.00    +0.000 A 
ATOM     19  C   UNL     1      -6.155  14.204  23.663  0.00  0.00    +0.000 A 
ATOM     20  C   UNL     1      -5.346  13.121  23.317  0.00  0.00    +0.000 A 
ATOM     21  C   UNL     1      -3.963  13.220  23.351  0.00  0.00    +0.000 A 
ATOM     22  N   UNL     1      -3.237  12.131  23.074  0.00  0.00    +0.000 NA
ENDBRANCH   4  13
BRANCH   1  24
ATOM     23  O   UNL     1       1.826  12.623  20.841  0.00  0.00    +0.000 OA
ATOM     24  C   UNL     1       0.890  13.076  20.185  0.00  0.00    +0.000 C 
ATOM     25  N   UNL     1       0.553  14.425  20.233  0.00  0.00    +0.000 N 
ATOM     26  C   UNL     1      -0.586  15.041  19.564  0.00  0.00    +0.000 C 
ATOM     27  C   UNL     1      -0.126  16.161  18.638  0.00  0.00    +0.000 C 
ATOM     28  C   UNL     1       0.735  17.171  19.396  0.00  0.00    +0.000 C 
ATOM     29  C   UNL     1       1.879  16.487  20.145  0.00  0.00    +0.000 C 
ATOM     30  C   UNL     1       1.373  15.342  21.020  0.00  0.00    +0.000 C 
ENDBRANCH   1  24
TORSDOF 2
ENDMDL
MODEL 3
REMARK VINA RESULT:      -6.7      2.100      6.421
REMARK  Name = 
REMARK  2 active torsions:
REMARK  status: ('A' for Active; 'I' for Inactive)
REMARK    1  A    between atoms: C_2  and  C_3
REMARK    2  A    between atoms: C_6  and  C_8
REMARK                            x       y       z     vdW  Elec       q    Type
REMARK                         _______ _______ _______ _____ _____    ______ ____
ROOT
ATOM      1  C   UNL     1      -0.834  15.600  22.942  0.00  0.00    +0.000 C 
ATOM      2  C   UNL     1      -1.105  14.263  23.591  0.00  0.00    +0.000 C 
ATOM      3  N   UNL     1      -2.498  13.846  23.357  0.00  0.00    +0.000 N 
ATOM      4  C   UNL     1      -2.875  12.632  22.743  0.00  0.00    +0.000 C 
ATOM      5  O   UNL     1      -4.039  12.305  22.493  0.00  0.00    +0.000 OA
ATOM      6  C   UNL     1      -3.431  14.912  23.613  0.00  0.00    +0.000 A 
ATOM      7  C   UNL     1      -4.804  14.711  23.773  0.00  0.00    +0.000 A 
ATOM      8  C   UNL     1      -5.659  15.785  24.055  0.00  0.00    +0.000 A 
ATOM      9  C   UNL     1      -5.161  17.078  24.179  0.00  0.00    +0.000 A 
ATOM     10  C   UNL     1      -3.799  17.304  24.012  0.00  0.00    +0.000 A 
ATOM     11  C   UNL     1      -2.948  16.235  23.727  0.00  0.00    +0.000 A 
ATOM     12  O   UNL     1      -1.634  16.596  23.566  0.00  0.00    +0.000 OA
ENDROOT
BRANCH   4  13
ATOM     13  C   UNL     1      -1.821  11.670  22.275  0.00  0.00    +0.000 A 
ATOM     14  C   UNL     1      -1.255  10.791  23.188  0.00  0.00    +0.000 A 
ATOM     15  C   UNL     1      -0.297   9.894  22.724  0.00  0.00    +0.000 A 
ATOM     16  C   UNL     1       0.048   9.886  21.364  0.00  0.00    +0.000 A 
ATOM     17  C   UNL     1       1.005   9.002  20.837  0.00  0.00    +0.000 A 
ATOM     18  C   UNL     1       1.319   9.032  19.478  0.00  0.00    +0.000 A 
ATOM     19  C   UNL     1       0.656   9.916  18.634  0.00  0.00    +0.000 A 
ATOM     20  C   UNL     1      -0.294  10.793  19.159  0.00  0.00    +0.000 A 
ATOM     21  C   UNL     1      -0.582  10.810  20.515  0.00  0.00    +0.000 A 
ATOM     22  N   UNL     1      -1.454  11.717  20.973  0.00  0.00    +0.000 NA
ENDBRANCH   4  13
BRANCH   1  24
ATOM     23  O   UNL     1      -1.867  15.991  20.763  0.00  0.00    +0.000 OA
ATOM     24  C   UNL     1      -0.926  15.512  21.394  0.00  0.00    +0.000 C 
ATOM     25  N   UNL     1       0.078  14.783  20.764  0.00  0.00    +0.000 N 
ATOM     26  C   UNL     1       1.182  14.107  21.432  0.00  0.00    +0.000 C 
ATOM     27  C   UNL     1       2.520  14.608  20.902  0.00  0.00    +0.000 C 
ATOM     28  C   UNL     1       2.581  14.485  19.380  0.00  0.00    +0.000 C 
ATOM     29  C   UNL     1       1.373  15.143  18.713  0.00  0.00    +0.000 C 
ATOM     30  C   UNL     1       0.060  14.644  19.311  0.00  0.00    +0.000 C 
ENDBRANCH   1  24
TORSDOF 2
ENDMDL
MODEL 4
REMARK VINA RESULT:      -6.7      3.475      8.293
REMARK  Name = 
REMARK  2 active torsions:
REMARK  status: ('A' for Active; 'I' for Inactive)
REMARK    1  A    between atoms: C_2  and  C_3
REMARK    2  A    between atoms: C_6  and  C_8
REMARK                            x       y       z     vdW  Elec       q    Type
REMARK                         _______ _______ _______ _____ _____    ______ ____
ROOT
ATOM      1  C   UNL     1       0.664  11.024  18.676  0.00  0.00    +0.000 C 
ATOM      2  C   UNL     1       1.804  10.278  19.330  0.00  0.00    +0.000 C 
ATOM      3  N   UNL     1       1.299   9.381  20.382  0.00  0.00    +0.000 N 
ATOM      4  C   UNL     1       1.529   7.988  20.421  0.00  0.00    +0.000 C 
ATOM      5  O   UNL     1       1.060   7.224  21.270  0.00  0.00    +0.000 OA
ATOM      6  C   UNL     1       0.352  10.038  21.244  0.00  0.00    +0.000 A 
ATOM      7  C   UNL     1      -0.039   9.532  22.486  0.00  0.00    +0.000 A 
ATOM      8  C   UNL     1      -0.940  10.234  23.297  0.00  0.00    +0.000 A 
ATOM      9  C   UNL     1      -1.470  11.452  22.882  0.00  0.00    +0.000 A 
ATOM     10  C   UNL     1      -1.105  11.970  21.644  0.00  0.00    +0.000 A 
ATOM     11  C   UNL     1      -0.211  11.267  20.836  0.00  0.00    +0.000 A 
ATOM     12  O   UNL     1       0.050  11.876  19.634  0.00  0.00    +0.000 OA
ENDROOT
BRANCH   4  13
ATOM     13  C   UNL     1       2.333   7.331  19.336  0.00  0.00    +0.000 A 
ATOM     14  C   UNL     1       2.961   8.124  18.385  0.00  0.00    +0.000 A 
ATOM     15  C   UNL     1       3.719   7.491  17.404  0.00  0.00    +0.000 A 
ATOM     16  C   UNL     1       3.846   6.094  17.416  0.00  0.00    +0.000 A 
ATOM     17  C   UNL     1       4.600   5.400  16.455  0.00  0.00    +0.000 A 
ATOM     18  C   UNL     1       4.697   4.009  16.504  0.00  0.00    +0.000 A 
ATOM     19  C   UNL     1       4.074   3.309  17.532  0.00  0.00    +0.000 A 
ATOM     20  C   UNL     1       3.326   3.999  18.486  0.00  0.00    +0.000 A 
ATOM     21  C   UNL     1       3.179   5.377  18.422  0.00  0.00    +0.000 A 
ATOM     22  N   UNL     1       2.396   5.979  19.325  0.00  0.00    +0.000 NA
ENDBRANCH   4  13
BRANCH   1  24
ATOM     23  O   UNL     1       0.075   8.942  17.542  0.00  0.00    +0.000 OA
ATOM     24  C   UNL     1      -0.279  10.063  17.904  0.00  0.00    +0.000 C 
ATOM     25  N   UNL     1      -1.528  10.575  17.565  0.00  0.00    +0.000 N 
ATOM     26  C   UNL     1      -2.006  11.918  17.870  0.00  0.00    +0.000 C 
ATOM     27  C   UNL     1      -3.298  11.860  18.675  0.00  0.00    +0.000 C 
ATOM     28  C   UNL     1      -4.344  11.004  17.961  0.00  0.00    +0.000 C 
ATOM     29  C   UNL     1      -3.790   9.628  17.591  0.00  0.00    +0.000 C 
ATOM     30  C   UNL     1      -2.472   9.739  16.829  0.00  0.00    +0.000 C 
ENDBRANCH   1  24
TORSDOF 2
ENDMDL
MODEL 5
REMARK VINA RESULT:      -6.6      3.371      6.785
REMARK  Name = 
REMARK  2 active torsions:
REMARK  status: ('A' for Active; 'I' for Inactive)
REMARK    1  A    between atoms: C_2  and  C_3
REMARK    2  A    between atoms: C_6  and  C_8
REMARK                            x       y       z     vdW  Elec       q    Type
REMARK                         _______ _______ _______ _____ _____    ______ ____
ROOT
ATOM      1  C   UNL     1      -1.586  13.391  23.292  0.00  0.00    +0.000 C 
ATOM      2  C   UNL     1      -3.003  13.202  23.780  0.00  0.00    +0.000 C 
ATOM      3  N   UNL     1      -3.717  14.489  23.807  0.00  0.00    +0.000 N 
ATOM      4  C   UNL     1      -4.924  14.746  23.121  0.00  0.00    +0.000 C 
ATOM      5  O   UNL     1      -5.496  15.839  23.094  0.00  0.00    +0.000 OA
ATOM      6  C   UNL     1      -2.934  15.529  24.421  0.00  0.00    +0.000 A 
ATOM      7  C   UNL     1      -3.472  16.743  24.854  0.00  0.00    +0.000 A 
ATOM      8  C   UNL     1      -2.665  17.705  25.476  0.00  0.00    +0.000 A 
ATOM      9  C   UNL     1      -1.307  17.475  25.674  0.00  0.00    +0.000 A 
ATOM     10  C   UNL     1      -0.747  16.279  25.240  0.00  0.00    +0.000 A 
ATOM     11  C   UNL     1      -1.551  15.323  24.617  0.00  0.00    +0.000 A 
ATOM     12  O   UNL     1      -0.872  14.198  24.219  0.00  0.00    +0.000 OA
ENDROOT
BRANCH   4  13
ATOM     13  C   UNL     1      -5.558  13.667  22.291  0.00  0.00    +0.000 A 
ATOM     14  C   UNL     1      -6.705  13.040  22.759  0.00  0.00    +0.000 A 
ATOM     15  C   UNL     1      -7.287  12.059  21.960  0.00  0.00    +0.000 A 
ATOM     16  C   UNL     1      -6.721  11.752  20.713  0.00  0.00    +0.000 A 
ATOM     17  C   UNL     1      -7.264  10.775  19.862  0.00  0.00    +0.000 A 
ATOM     18  C   UNL     1      -6.667  10.501  18.632  0.00  0.00    +0.000 A 
ATOM     19  C   UNL     1      -5.549  11.223  18.229  0.00  0.00    +0.000 A 
ATOM     20  C   UNL     1      -5.011  12.194  19.075  0.00  0.00    +0.000 A 
ATOM     21  C   UNL     1      -5.563  12.444  20.323  0.00  0.00    +0.000 A 
ATOM     22  N   UNL     1      -4.966  13.339  21.119  0.00  0.00    +0.000 NA
ENDBRANCH   4  13
BRANCH   1  24
ATOM     23  O   UNL     1      -1.791  15.009  21.472  0.00  0.00    +0.000 OA
ATOM     24  C   UNL     1      -1.549  13.851  21.808  0.00  0.00    +0.000 C 
ATOM     25  N   UNL     1      -1.312  12.854  20.867  0.00  0.00    +0.000 N 
ATOM     26  C   UNL     1      -1.103  11.442  21.160  0.00  0.00    +0.000 C 
ATOM     27  C   UNL     1       0.235  10.969  20.605  0.00  0.00    +0.000 C 
ATOM     28  C   UNL     1       0.349  11.291  19.115  0.00  0.00    +0.000 C 
ATOM     29  C   UNL     1       0.055  12.765  18.832  0.00  0.00    +0.000 C 
ATOM     30  C   UNL     1      -1.272  13.201  19.449  0.00  0.00    +0.000 C 
ENDBRANCH   1  24
TORSDOF 2
ENDMDL
MODEL 6
REMARK VINA RESULT:      -6.6      2.587      6.271
REMARK  Name = 
REMARK  2 active torsions:
REMARK  status: ('A' for Active; 'I' for Inactive)
REMARK    1  A    between atoms: C_2  and  C_3
REMARK    2  A    between atoms: C_6  and  C_8
REMARK                            x       y       z     vdW  Elec       q    Type
REMARK                         _______ _______ _______ _____ _____    ______ ____
ROOT
ATOM      1  C   UNL     1       0.354  14.761  21.718  0.00  0.00    +0.000 C 
ATOM      2  C   UNL     1      -0.128  13.336  21.863  0.00  0.00    +0.000 C 
ATOM      3  N   UNL     1      -1.512  13.305  22.362  0.00  0.00    +0.000 N 
ATOM      4  C   UNL     1      -2.585  12.670  21.700  0.00  0.00    +0.000 C 
ATOM      5  O   UNL     1      -3.757  12.690  22.086  0.00  0.00    +0.000 OA
ATOM      6  C   UNL     1      -1.702  14.190  23.482  0.00  0.00    +0.000 A 
ATOM      7  C   UNL     1      -2.808  14.127  24.333  0.00  0.00    +0.000 A 
ATOM      8  C   UNL     1      -2.922  14.994  25.428  0.00  0.00    +0.000 A 
ATOM      9  C   UNL     1      -1.936  15.939  25.692  0.00  0.00    +0.000 A 
ATOM     10  C   UNL     1      -0.832  16.028  24.852  0.00  0.00    +0.000 A 
ATOM     11  C   UNL     1      -0.722  15.168  23.759  0.00  0.00    +0.000 A 
ATOM     12  O   UNL     1       0.403  15.373  23.000  0.00  0.00    +0.000 OA
ENDROOT
BRANCH   4  13
ATOM     13  C   UNL     1      -2.349  11.968  20.394  0.00  0.00    +0.000 A 
ATOM     14  C   UNL     1      -1.216  11.181  20.244  0.00  0.00    +0.000 A 
ATOM     15  C   UNL     1      -1.032  10.523  19.031  0.00  0.00    +0.000 A 
ATOM     16  C   UNL     1      -1.995  10.650  18.018  0.00  0.00    +0.000 A 
ATOM     17  C   UNL     1      -1.866  10.008  16.775  0.00  0.00    +0.000 A 
ATOM     18  C   UNL     1      -2.847  10.166  15.795  0.00  0.00    +0.000 A 
ATOM     19  C   UNL     1      -3.975  10.933  16.063  0.00  0.00    +0.000 A 
ATOM     20  C   UNL     1      -4.101  11.570  17.298  0.00  0.00    +0.000 A 
ATOM     21  C   UNL     1      -3.112  11.464  18.264  0.00  0.00    +0.000 A 
ATOM     22  N   UNL     1      -3.255  12.150  19.404  0.00  0.00    +0.000 NA
ENDBRANCH   4  13
BRANCH   1  24
ATOM     23  O   UNL     1      -1.624  15.822  20.754  0.00  0.00    +0.000 OA
ATOM     24  C   UNL     1      -0.439  15.523  20.621  0.00  0.00    +0.000 C 
ATOM     25  N   UNL     1       0.247  15.773  19.436  0.00  0.00    +0.000 N 
ATOM     26  C   UNL     1       1.621  15.381  19.152  0.00  0.00    +0.000 C 
ATOM     27  C   UNL     1       2.465  16.597  18.791  0.00  0.00    +0.000 C 
ATOM     28  C   UNL     1       1.823  17.384  17.648  0.00  0.00    +0.000 C 
ATOM     29  C   UNL     1       0.361  17.719  17.947  0.00  0.00    +0.000 C 
ATOM     30  C   UNL     1      -0.430  16.477  18.350  0.00  0.00    +0.000 C 
ENDBRANCH   1  24
TORSDOF 2
ENDMDL
MODEL 7
REMARK VINA RESULT:      -6.5      2.591      4.561
REMARK  Name = 
REMARK  2 active torsions:
REMARK  status: ('A' for Active; 'I' for Inactive)
REMARK    1  A    between atoms: C_2  and  C_3
REMARK    2  A    between atoms: C_6  and  C_8
REMARK                            x       y       z     vdW  Elec       q    Type
REMARK                         _______ _______ _______ _____ _____    ______ ____
ROOT
ATOM      1  C   UNL     1      -0.248  15.881  20.837  0.00  0.00    +0.000 C 
ATOM      2  C   UNL     1      -1.245  15.141  19.976  0.00  0.00    +0.000 C 
ATOM      3  N   UNL     1      -0.755  13.789  19.663  0.00  0.00    +0.000 N 
ATOM      4  C   UNL     1      -1.456  12.599  19.956  0.00  0.00    +0.000 C 
ATOM      5  O   UNL     1      -1.024  11.462  19.747  0.00  0.00    +0.000 OA
ATOM      6  C   UNL     1       0.619  13.798  19.234  0.00  0.00    +0.000 A 
ATOM      7  C   UNL     1       1.230  12.721  18.587  0.00  0.00    +0.000 A 
ATOM      8  C   UNL     1       2.563  12.801  18.162  0.00  0.00    +0.000 A 
ATOM      9  C   UNL     1       3.310  13.954  18.376  0.00  0.00    +0.000 A 
ATOM     10  C   UNL     1       2.727  15.034  19.029  0.00  0.00    +0.000 A 
ATOM     11  C   UNL     1       1.401  14.953  19.456  0.00  0.00    +0.000 A 
ATOM     12  O   UNL     1       0.953  16.077  20.103  0.00  0.00    +0.000 OA
ENDROOT
BRANCH   4  13
ATOM     13  C   UNL     1      -2.793  12.666  20.637  0.00  0.00    +0.000 A 
ATOM     14  C   UNL     1      -3.944  12.721  19.863  0.00  0.00    +0.000 A 
ATOM     15  C   UNL     1      -5.171  12.759  20.518  0.00  0.00    +0.000 A 
ATOM     16  C   UNL     1      -5.213  12.715  21.920  0.00  0.00    +0.000 A 
ATOM     17  C   UNL     1      -6.421  12.747  22.637  0.00  0.00    +0.000 A 
ATOM     18  C   UNL     1      -6.415  12.705  24.031  0.00  0.00    +0.000 A 
ATOM     19  C   UNL     1      -5.209  12.594  24.714  0.00  0.00    +0.000 A 
ATOM     20  C   UNL     1      -4.010  12.563  24.001  0.00  0.00    +0.000 A 
ATOM     21  C   UNL     1      -3.996  12.654  22.617  0.00  0.00    +0.000 A 
ATOM     22  N   UNL     1      -2.814  12.686  21.990  0.00  0.00    +0.000 NA
ENDBRANCH   4  13
BRANCH   1  24
ATOM     23  O   UNL     1       0.851  14.500  22.526  0.00  0.00    +0.000 OA
ATOM     24  C   UNL     1      -0.101  15.222  22.235  0.00  0.00    +0.000 C 
ATOM     25  N   UNL     1      -1.157  15.424  23.119  0.00  0.00    +0.000 N 
ATOM     26  C   UNL     1      -2.365  16.188  22.837  0.00  0.00    +0.000 C 
ATOM     27  C   UNL     1      -2.543  17.311  23.852  0.00  0.00    +0.000 C 
ATOM     28  C   UNL     1      -2.505  16.762  25.279  0.00  0.00    +0.000 C 
ATOM     29  C   UNL     1      -1.260  15.907  25.521  0.00  0.00    +0.000 C 
ATOM     30  C   UNL     1      -1.101  14.830  24.452  0.00  0.00    +0.000 C 
ENDBRANCH   1  24
TORSDOF 2
ENDMDL
MODEL 8
REMARK VINA RESULT:      -6.4      2.445      6.484
REMARK  Name = 
REMARK  2 active torsions:
REMARK  status: ('A' for Active; 'I' for Inactive)
REMARK    1  A    between atoms: C_2  and  C_3
REMARK    2  A    between atoms: C_6  and  C_8
REMARK                            x       y       z     vdW  Elec       q    Type
REMARK                         _______ _______ _______ _____ _____    ______ ____
ROOT
ATOM      1  C   UNL     1       0.867  14.936  21.297  0.00  0.00    +0.000 C 
ATOM      2  C   UNL     1       0.166  13.749  21.915  0.00  0.00    +0.000 C 
ATOM      3  N   UNL     1      -1.170  13.571  21.323  0.00  0.00    +0.000 N 
ATOM      4  C   UNL     1      -1.613  12.388  20.694  0.00  0.00    +0.000 C 
ATOM      5  O   UNL     1      -2.711  12.254  20.146  0.00  0.00    +0.000 OA
ATOM      6  C   UNL     1      -1.898  14.811  21.250  0.00  0.00    +0.000 A 
ATOM      7  C   UNL     1      -3.275  14.883  21.029  0.00  0.00    +0.000 A 
ATOM      8  C   UNL     1      -3.935  16.119  21.001  0.00  0.00    +0.000 A 
ATOM      9  C   UNL     1      -3.233  17.304  21.190  0.00  0.00    +0.000 A 
ATOM     10  C   UNL     1      -1.859  17.258  21.399  0.00  0.00    +0.000 A 
ATOM     11  C   UNL     1      -1.202  16.028  21.422  0.00  0.00    +0.000 A 
ATOM     12  O   UNL     1       0.153  16.123  21.617  0.00  0.00    +0.000 OA
ENDROOT
BRANCH   4  13
ATOM     13  C   UNL     1      -0.693  11.204  20.593  0.00  0.00    +0.000 A 
ATOM     14  C   UNL     1      -0.516  10.389  21.702  0.00  0.00    +0.000 A 
ATOM     15  C   UNL     1       0.323   9.286  21.576  0.00  0.00    +0.000 A 
ATOM     16  C   UNL     1       0.938   9.017  20.343  0.00  0.00    +0.000 A 
ATOM     17  C   UNL     1       1.792   7.918  20.153  0.00  0.00    +0.000 A 
ATOM     18  C   UNL     1       2.385   7.692  18.911  0.00  0.00    +0.000 A 
ATOM     19  C   UNL     1       2.100   8.537  17.844  0.00  0.00    +0.000 A 
ATOM     20  C   UNL     1       1.252   9.629  18.034  0.00  0.00    +0.000 A 
ATOM     21  C   UNL     1       0.694   9.897  19.275  0.00  0.00    +0.000 A 
ATOM     22  N   UNL     1      -0.059  10.994  19.415  0.00  0.00    +0.000 NA
ENDBRANCH   4  13
BRANCH   1  24
ATOM     23  O   UNL     1       0.286  14.655  18.941  0.00  0.00    +0.000 OA
ATOM     24  C   UNL     1       1.171  14.700  19.793  0.00  0.00    +0.000 C 
ATOM     25  N   UNL     1       2.503  14.454  19.472  0.00  0.00    +0.000 N 
ATOM     26  C   UNL     1       3.609  14.399  20.419  0.00  0.00    +0.000 C 
ATOM     27  C   UNL     1       4.690  15.407  20.045  0.00  0.00    +0.000 C 
ATOM     28  C   UNL     1       5.137  15.209  18.597  0.00  0.00    +0.000 C 
ATOM     29  C   UNL     1       3.948  15.201  17.636  0.00  0.00    +0.000 C 
ATOM     30  C   UNL     1       2.873  14.212  18.080  0.00  0.00    +0.000 C 
ENDBRANCH   1  24
TORSDOF 2
ENDMDL
MODEL 9
REMARK VINA RESULT:      -6.4      1.921      6.484
REMARK  Name = 
REMARK  2 active torsions:
REMARK  status: ('A' for Active; 'I' for Inactive)
REMARK    1  A    between atoms: C_2  and  C_3
REMARK    2  A    between atoms: C_6  and  C_8
REMARK                            x       y       z     vdW  Elec       q    Type
REMARK                         _______ _______ _______ _____ _____    ______ ____
ROOT
ATOM      1  C   UNL     1      -2.067  12.307  20.983  0.00  0.00    +0.000 C 
ATOM      2  C   UNL     1      -1.627  13.731  20.736  0.00  0.00    +0.000 C 
ATOM      3  N   UNL     1      -1.196  14.365  21.993  0.00  0.00    +0.000 N 
ATOM      4  C   UNL     1       0.077  14.940  22.200  0.00  0.00    +0.000 C 
ATOM      5  O   UNL     1       0.462  15.421  23.270  0.00  0.00    +0.000 OA
ATOM      6  C   UNL     1      -2.129  14.132  23.064  0.00  0.00    +0.000 A 
ATOM      7  C   UNL     1      -2.132  14.862  24.255  0.00  0.00    +0.000 A 
ATOM      8  C   UNL     1      -3.087  14.612  25.249  0.00  0.00    +0.000 A 
ATOM      9  C   UNL     1      -4.055  13.628  25.074  0.00  0.00    +0.000 A 
ATOM     10  C   UNL     1      -4.064  12.880  23.901  0.00  0.00    +0.000 A 
ATOM     11  C   UNL     1      -3.109  13.127  22.914  0.00  0.00    +0.000 A 
ATOM     12  O   UNL     1      -3.217  12.308  21.818  0.00  0.00    +0.000 OA
ENDROOT
BRANCH   4  13
ATOM     13  C   UNL     1       1.095  14.925  21.097  0.00  0.00    +0.000 A 
ATOM     14  C   UNL     1       1.996  13.872  21.023  0.00  0.00    +0.000 A 
ATOM     15  C   UNL     1       2.915  13.869  19.977  0.00  0.00    +0.000 A 
ATOM     16  C   UNL     1       2.889  14.901  19.026  0.00  0.00    +0.000 A 
ATOM     17  C   UNL     1       3.788  14.951  17.948  0.00  0.00    +0.000 A 
ATOM     18  C   UNL     1       3.729  15.998  17.028  0.00  0.00    +0.000 A 
ATOM     19  C   UNL     1       2.751  16.978  17.158  0.00  0.00    +0.000 A 
ATOM     20  C   UNL     1       1.859  16.928  18.230  0.00  0.00    +0.000 A 
ATOM     21  C   UNL     1       1.936  15.921  19.181  0.00  0.00    +0.000 A 
ATOM     22  N   UNL     1       1.098  15.959  20.223  0.00  0.00    +0.000 NA
ENDBRANCH   4  13
BRANCH   1  24
ATOM     23  O   UNL     1      -0.701  11.119  22.624  0.00  0.00    +0.000 OA
ATOM     24  C   UNL     1      -0.881  11.416  21.445  0.00  0.00    +0.000 C 
ATOM     25  N   UNL     1       0.021  11.041  20.454  0.00  0.00    +0.000 N 
ATOM     26  C   UNL     1      -0.057  11.415  19.048  0.00  0.00    +0.000 C 
ATOM     27  C   UNL     1      -0.092  10.176  18.161  0.00  0.00    +0.000 C 
ATOM     28  C   UNL     1       1.090   9.257  18.466  0.00  0.00    +0.000 C 
ATOM     29  C   UNL     1       1.187   8.940  19.959  0.00  0.00    +0.000 C 
ATOM     30  C   UNL     1       1.170  10.210  20.806  0.00  0.00    +0.000 C 
ENDBRANCH   1  24
TORSDOF 2
ENDMDL
