MODEL 1
REMARK VINA RESULT:      -8.2      0.000      0.000
REMARK  Name = 
REMARK  8 active torsions:
REMARK  status: ('A' for Active; 'I' for Inactive)
REMARK    1  A    between atoms: C_1  and  C_2
REMARK    2  A    between atoms: C_5  and  S_6
REMARK    3  A    between atoms: S_6  and  C_7
REMARK    4  A    between atoms: C_7  and  C_8
REMARK    5  A    between atoms: N_10  and  C_11
REMARK    6  A    between atoms: C_15  and  C_16
REMARK    7  A    between atoms: N_18  and  C_19
REMARK    8  A    between atoms: N_23  and  C_24
REMARK                            x       y       z     vdW  Elec       q    Type
REMARK                         _______ _______ _______ _____ _____    ______ ____
ROOT
ATOM      1  C   UNL     1       1.519   7.976  20.886  0.00  0.00    +0.000 C 
ATOM      2  O   UNL     1       1.682   8.381  19.735  0.00  0.00    +0.000 OA
ATOM      3  N   UNL     1       1.547   6.645  21.288  0.00  0.00    +0.000 N 
ATOM      4  H   UNL     1       1.128   6.436  22.196  0.00  0.00    +0.000 HD
ENDROOT
BRANCH   3   5
ATOM      5  C   UNL     1       1.860   5.533  20.470  0.00  0.00    +0.000 A 
ATOM      6  C   UNL     1       1.011   4.430  20.339  0.00  0.00    +0.000 A 
ATOM      7  C   UNL     1       1.379   3.326  19.568  0.00  0.00    +0.000 A 
ATOM      8  C   UNL     1       2.596   3.321  18.894  0.00  0.00    +0.000 A 
ATOM      9  C   UNL     1       3.437   4.439  18.964  0.00  0.00    +0.000 A 
ATOM     10  C   UNL     1       3.068   5.541  19.758  0.00  0.00    +0.000 A 
BRANCH   9  11
ATOM     11  C   UNL     1       4.741   4.461  18.231  0.00  0.00    +0.000 C 
ATOM     12  O   UNL     1       4.871   3.831  17.188  0.00  0.00    +0.000 OA
ATOM     13  N   UNL     1       5.757   5.204  18.818  0.00  0.00    +0.000 N 
ATOM     14  H   UNL     1       5.629   5.550  19.759  0.00  0.00    +0.000 HD
BRANCH  13  15
ATOM     15  C   UNL     1       7.069   5.311  18.255  0.00  0.00    +0.000 C 
ATOM     16  C   UNL     1       7.945   6.490  18.596  0.00  0.00    +0.000 C 
ATOM     17  C   UNL     1       7.382   6.350  17.213  0.00  0.00    +0.000 C 
ENDBRANCH  13  15
ENDBRANCH   9  11
ENDBRANCH   3   5
BRANCH   1  18
ATOM     18  C   UNL     1       1.235   8.965  22.007  0.00  0.00    +0.000 C 
BRANCH  18  19
ATOM     19  S   UNL     1      -0.364   9.792  21.763  0.00  0.00    +0.000 S 
BRANCH  19  24
ATOM     20  C   UNL     1       0.364  13.930  18.541  0.00  0.00    +0.000 C 
ATOM     21  C   UNL     1       0.503  12.894  19.595  0.00  0.00    +0.000 A 
ATOM     22  N   UNL     1       1.368  12.993  20.588  0.00  0.00    +0.000 NA
ATOM     23  N   UNL     1       1.147  11.975  21.456  0.00  0.00    +0.000 NA
ATOM     24  C   UNL     1       0.147  11.258  20.993  0.00  0.00    +0.000 A 
ATOM     25  N   UNL     1      -0.319  11.779  19.791  0.00  0.00    +0.000 N 
BRANCH  25  26
ATOM     26  C   UNL     1      -1.399  11.336  18.965  0.00  0.00    +0.000 A 
ATOM     27  C   UNL     1      -1.219  10.300  18.037  0.00  0.00    +0.000 A 
ATOM     28  C   UNL     1      -2.281   9.865  17.238  0.00  0.00    +0.000 A 
ATOM     29  C   UNL     1      -3.540  10.443  17.367  0.00  0.00    +0.000 A 
ATOM     30  C   UNL     1      -3.735  11.469  18.285  0.00  0.00    +0.000 A 
ATOM     31  C   UNL     1      -2.670  11.921  19.073  0.00  0.00    +0.000 A 
ENDBRANCH  25  26
ENDBRANCH  19  24
ENDBRANCH  18  19
ENDBRANCH   1  18
TORSDOF 7
ENDMDL
MODEL 2
REMARK VINA RESULT:      -8.2      1.113      1.567
REMARK  Name = 
REMARK  8 active torsions:
REMARK  status: ('A' for Active; 'I' for Inactive)
REMARK    1  A    between atoms: C_1  and  C_2
REMARK    2  A    between atoms: C_5  and  S_6
REMARK    3  A    between atoms: S_6  and  C_7
REMARK    4  A    between atoms: C_7  and  C_8
REMARK    5  A    between atoms: N_10  and  C_11
REMARK    6  A    between atoms: C_15  and  C_16
REMARK    7  A    between atoms: N_18  and  C_19
REMARK    8  A    between atoms: N_23  and  C_24
REMARK                            x       y       z     vdW  Elec       q    Type
REMARK                         _______ _______ _______ _____ _____    ______ ____
ROOT
ATOM      1  C   UNL     1       1.541   8.025  20.841  0.00  0.00    +0.000 C 
ATOM      2  O   UNL     1       1.627   8.376  19.665  0.00  0.00    +0.000 OA
ATOM      3  N   UNL     1       1.620   6.716  21.305  0.00  0.00    +0.000 N 
ATOM      4  H   UNL     1       1.261   6.545  22.246  0.00  0.00    +0.000 HD
ENDROOT
BRANCH   3   5
ATOM      5  C   UNL     1       1.905   5.571  20.524  0.00  0.00    +0.000 A 
ATOM      6  C   UNL     1       1.034   4.481  20.437  0.00  0.00    +0.000 A 
ATOM      7  C   UNL     1       1.375   3.344  19.703  0.00  0.00    +0.000 A 
ATOM      8  C   UNL     1       2.587   3.291  19.021  0.00  0.00    +0.000 A 
ATOM      9  C   UNL     1       3.449   4.394  19.046  0.00  0.00    +0.000 A 
ATOM     10  C   UNL     1       3.108   5.531  19.804  0.00  0.00    +0.000 A 
BRANCH   9  11
ATOM     11  C   UNL     1       4.748   4.366  18.304  0.00  0.00    +0.000 C 
ATOM     12  O   UNL     1       5.757   3.930  18.847  0.00  0.00    +0.000 OA
ATOM     13  N   UNL     1       4.723   4.874  17.012  0.00  0.00    +0.000 N 
ATOM     14  H   UNL     1       3.901   5.371  16.698  0.00  0.00    +0.000 HD
BRANCH  13  15
ATOM     15  C   UNL     1       5.884   4.938  16.177  0.00  0.00    +0.000 C 
ATOM     16  C   UNL     1       5.735   5.032  14.680  0.00  0.00    +0.000 C 
ATOM     17  C   UNL     1       6.273   3.777  15.301  0.00  0.00    +0.000 C 
ENDBRANCH  13  15
ENDBRANCH   9  11
ENDBRANCH   3   5
BRANCH   1  18
ATOM     18  C   UNL     1       1.306   9.063  21.929  0.00  0.00    +0.000 C 
BRANCH  18  19
ATOM     19  S   UNL     1      -0.328   9.838  21.754  0.00  0.00    +0.000 S 
BRANCH  19  24
ATOM     20  C   UNL     1       0.200  14.049  18.589  0.00  0.00    +0.000 C 
ATOM     21  C   UNL     1       0.385  13.011  19.634  0.00  0.00    +0.000 A 
ATOM     22  N   UNL     1       1.230  13.148  20.640  0.00  0.00    +0.000 NA
ATOM     23  N   UNL     1       1.057  12.108  21.493  0.00  0.00    +0.000 NA
ATOM     24  C   UNL     1       0.107  11.340  21.008  0.00  0.00    +0.000 A 
ATOM     25  N   UNL     1      -0.373  11.848  19.805  0.00  0.00    +0.000 N 
BRANCH  25  26
ATOM     26  C   UNL     1      -1.414  11.353  18.959  0.00  0.00    +0.000 A 
ATOM     27  C   UNL     1      -2.716  11.867  19.043  0.00  0.00    +0.000 A 
ATOM     28  C   UNL     1      -3.729  11.385  18.207  0.00  0.00    +0.000 A 
ATOM     29  C   UNL     1      -3.453  10.400  17.265  0.00  0.00    +0.000 A 
ATOM     30  C   UNL     1      -2.165   9.883  17.168  0.00  0.00    +0.000 A 
ATOM     31  C   UNL     1      -1.153  10.348  18.015  0.00  0.00    +0.000 A 
ENDBRANCH  25  26
ENDBRANCH  19  24
ENDBRANCH  18  19
ENDBRANCH   1  18
TORSDOF 7
ENDMDL
MODEL 3
REMARK VINA RESULT:      -8.2      5.781      8.520
REMARK  Name = 
REMARK  8 active torsions:
REMARK  status: ('A' for Active; 'I' for Inactive)
REMARK    1  A    between atoms: C_1  and  C_2
REMARK    2  A    between atoms: C_5  and  S_6
REMARK    3  A    between atoms: S_6  and  C_7
REMARK    4  A    between atoms: C_7  and  C_8
REMARK    5  A    between atoms: N_10  and  C_11
REMARK    6  A    between atoms: C_15  and  C_16
REMARK    7  A    between atoms: N_18  and  C_19
REMARK    8  A    between atoms: N_23  and  C_24
REMARK                            x       y       z     vdW  Elec       q    Type
REMARK                         _______ _______ _______ _____ _____    ______ ____
ROOT
ATOM      1  C   UNL     1       7.839   8.014  17.846  0.00  0.00    +0.000 C 
ATOM      2  O   UNL     1       8.330   7.277  18.700  0.00  0.00    +0.000 OA
ATOM      3  N   UNL     1       6.860   7.650  16.927  0.00  0.00    +0.000 N 
ATOM      4  H   UNL     1       6.750   8.260  16.116  0.00  0.00    +0.000 HD
ENDROOT
BRANCH   3   5
ATOM      5  C   UNL     1       6.191   6.404  16.872  0.00  0.00    +0.000 A 
ATOM      6  C   UNL     1       6.665   5.325  16.120  0.00  0.00    +0.000 A 
ATOM      7  C   UNL     1       5.948   4.131  16.043  0.00  0.00    +0.000 A 
ATOM      8  C   UNL     1       4.753   3.989  16.741  0.00  0.00    +0.000 A 
ATOM      9  C   UNL     1       4.287   5.035  17.547  0.00  0.00    +0.000 A 
ATOM     10  C   UNL     1       5.006   6.244  17.605  0.00  0.00    +0.000 A 
BRANCH   9  11
ATOM     11  C   UNL     1       3.015   4.896  18.321  0.00  0.00    +0.000 C 
ATOM     12  O   UNL     1       1.941   5.159  17.792  0.00  0.00    +0.000 OA
ATOM     13  N   UNL     1       3.146   4.485  19.641  0.00  0.00    +0.000 N 
ATOM     14  H   UNL     1       4.068   4.456  20.055  0.00  0.00    +0.000 HD
BRANCH  13  15
ATOM     15  C   UNL     1       2.030   4.323  20.521  0.00  0.00    +0.000 C 
ATOM     16  C   UNL     1       2.096   3.331  21.655  0.00  0.00    +0.000 C 
ATOM     17  C   UNL     1       1.191   3.074  20.488  0.00  0.00    +0.000 C 
ENDBRANCH  13  15
ENDBRANCH   9  11
ENDBRANCH   3   5
BRANCH   1  18
ATOM     18  C   UNL     1       8.317   9.453  17.717  0.00  0.00    +0.000 C 
BRANCH  18  19
ATOM     19  S   UNL     1       9.115  10.019  19.247  0.00  0.00    +0.000 S 
BRANCH  19  24
ATOM     20  C   UNL     1      10.961  14.916  18.445  0.00  0.00    +0.000 C 
ATOM     21  C   UNL     1      10.586  13.487  18.306  0.00  0.00    +0.000 A 
ATOM     22  N   UNL     1      11.067  12.708  17.353  0.00  0.00    +0.000 NA
ATOM     23  N   UNL     1      10.655  11.437  17.586  0.00  0.00    +0.000 NA
ATOM     24  C   UNL     1       9.926  11.442  18.680  0.00  0.00    +0.000 A 
ATOM     25  N   UNL     1       9.825  12.728  19.201  0.00  0.00    +0.000 N 
BRANCH  25  26
ATOM     26  C   UNL     1       9.158  13.181  20.382  0.00  0.00    +0.000 A 
ATOM     27  C   UNL     1       9.596  12.786  21.654  0.00  0.00    +0.000 A 
ATOM     28  C   UNL     1       8.946  13.240  22.806  0.00  0.00    +0.000 A 
ATOM     29  C   UNL     1       7.863  14.108  22.705  0.00  0.00    +0.000 A 
ATOM     30  C   UNL     1       7.419  14.511  21.451  0.00  0.00    +0.000 A 
ATOM     31  C   UNL     1       8.055  14.044  20.295  0.00  0.00    +0.000 A 
ENDBRANCH  25  26
ENDBRANCH  19  24
ENDBRANCH  18  19
ENDBRANCH   1  18
TORSDOF 7
ENDMDL
MODEL 4
REMARK VINA RESULT:      -8.0      3.000      9.979
REMARK  Name = 
REMARK  8 active torsions:
REMARK  status: ('A' for Active; 'I' for Inactive)
REMARK    1  A    between atoms: C_1  and  C_2
REMARK    2  A    between atoms: C_5  and  S_6
REMARK    3  A    between atoms: S_6  and  C_7
REMARK    4  A    between atoms: C_7  and  C_8
REMARK    5  A    between atoms: N_10  and  C_11
REMARK    6  A    between atoms: C_15  and  C_16
REMARK    7  A    between atoms: N_18  and  C_19
REMARK    8  A    between atoms: N_23  and  C_24
REMARK                            x       y       z     vdW  Elec       q    Type
REMARK                         _______ _______ _______ _____ _____    ______ ____
ROOT
ATOM      1  C   UNL     1       1.201   9.217  18.589  0.00  0.00    +0.000 C 
ATOM      2  O   UNL     1       1.116   8.975  19.793  0.00  0.00    +0.000 OA
ATOM      3  N   UNL     1       0.340  10.034  17.864  0.00  0.00    +0.000 N 
ATOM      4  H   UNL     1       0.359   9.926  16.849  0.00  0.00    +0.000 HD
ENDROOT
BRANCH   3   5
ATOM      5  C   UNL     1      -0.724  10.802  18.394  0.00  0.00    +0.000 A 
ATOM      6  C   UNL     1      -0.623  11.500  19.602  0.00  0.00    +0.000 A 
ATOM      7  C   UNL     1      -1.712  12.200  20.121  0.00  0.00    +0.000 A 
ATOM      8  C   UNL     1      -2.917  12.234  19.426  0.00  0.00    +0.000 A 
ATOM      9  C   UNL     1      -3.024  11.591  18.186  0.00  0.00    +0.000 A 
ATOM     10  C   UNL     1      -1.927  10.870  17.676  0.00  0.00    +0.000 A 
BRANCH   9  11
ATOM     11  C   UNL     1      -4.303  11.631  17.412  0.00  0.00    +0.000 C 
ATOM     12  O   UNL     1      -4.435  10.945  16.405  0.00  0.00    +0.000 OA
ATOM     13  N   UNL     1      -5.280  12.492  17.894  0.00  0.00    +0.000 N 
ATOM     14  H   UNL     1      -5.036  13.150  18.621  0.00  0.00    +0.000 HD
BRANCH  13  15
ATOM     15  C   UNL     1      -6.551  12.663  17.258  0.00  0.00    +0.000 C 
ATOM     16  C   UNL     1      -6.980  14.026  16.777  0.00  0.00    +0.000 C 
ATOM     17  C   UNL     1      -7.671  13.393  17.948  0.00  0.00    +0.000 C 
ENDBRANCH  13  15
ENDBRANCH   9  11
ENDBRANCH   3   5
BRANCH   1  18
ATOM     18  C   UNL     1       2.308   8.581  17.762  0.00  0.00    +0.000 C 
BRANCH  18  19
ATOM     19  S   UNL     1       2.964   7.095  18.574  0.00  0.00    +0.000 S 
BRANCH  19  24
ATOM     20  C   UNL     1       5.850   4.093  15.305  0.00  0.00    +0.000 C 
ATOM     21  C   UNL     1       5.257   5.224  16.061  0.00  0.00    +0.000 A 
ATOM     22  N   UNL     1       5.436   6.487  15.720  0.00  0.00    +0.000 NA
ATOM     23  N   UNL     1       4.650   7.262  16.508  0.00  0.00    +0.000 NA
ATOM     24  C   UNL     1       3.991   6.471  17.325  0.00  0.00    +0.000 A 
ATOM     25  N   UNL     1       4.333   5.140  17.108  0.00  0.00    +0.000 N 
BRANCH  25  26
ATOM     26  C   UNL     1       3.841   3.959  17.746  0.00  0.00    +0.000 A 
ATOM     27  C   UNL     1       2.699   3.303  17.266  0.00  0.00    +0.000 A 
ATOM     28  C   UNL     1       2.228   2.142  17.888  0.00  0.00    +0.000 A 
ATOM     29  C   UNL     1       2.900   1.611  18.984  0.00  0.00    +0.000 A 
ATOM     30  C   UNL     1       4.036   2.249  19.470  0.00  0.00    +0.000 A 
ATOM     31  C   UNL     1       4.500   3.421  18.863  0.00  0.00    +0.000 A 
ENDBRANCH  25  26
ENDBRANCH  19  24
ENDBRANCH  18  19
ENDBRANCH   1  18
TORSDOF 7
ENDMDL
MODEL 5
REMARK VINA RESULT:      -8.0      2.547      9.636
REMARK  Name = 
REMARK  8 active torsions:
REMARK  status: ('A' for Active; 'I' for Inactive)
REMARK    1  A    between atoms: C_1  and  C_2
REMARK    2  A    between atoms: C_5  and  S_6
REMARK    3  A    between atoms: S_6  and  C_7
REMARK    4  A    between atoms: C_7  and  C_8
REMARK    5  A    between atoms: N_10  and  C_11
REMARK    6  A    between atoms: C_15  and  C_16
REMARK    7  A    between atoms: N_18  and  C_19
REMARK    8  A    between atoms: N_23  and  C_24
REMARK                            x       y       z     vdW  Elec       q    Type
REMARK                         _______ _______ _______ _____ _____    ______ ____
ROOT
ATOM      1  C   UNL     1       1.238   8.430  20.288  0.00  0.00    +0.000 C 
ATOM      2  O   UNL     1       0.455   8.621  21.218  0.00  0.00    +0.000 OA
ATOM      3  N   UNL     1       1.300   9.174  19.114  0.00  0.00    +0.000 N 
ATOM      4  H   UNL     1       1.792   8.744  18.329  0.00  0.00    +0.000 HD
ENDROOT
BRANCH   3   5
ATOM      5  C   UNL     1       0.543  10.334  18.822  0.00  0.00    +0.000 A 
ATOM      6  C   UNL     1       0.995  11.624  19.116  0.00  0.00    +0.000 A 
ATOM      7  C   UNL     1       0.197  12.741  18.865  0.00  0.00    +0.000 A 
ATOM      8  C   UNL     1      -1.061  12.585  18.291  0.00  0.00    +0.000 A 
ATOM      9  C   UNL     1      -1.511  11.307  17.934  0.00  0.00    +0.000 A 
ATOM     10  C   UNL     1      -0.708  10.183  18.207  0.00  0.00    +0.000 A 
BRANCH   9  11
ATOM     11  C   UNL     1      -2.851  11.119  17.298  0.00  0.00    +0.000 C 
ATOM     12  O   UNL     1      -2.994  10.303  16.394  0.00  0.00    +0.000 OA
ATOM     13  N   UNL     1      -3.873  11.928  17.777  0.00  0.00    +0.000 N 
ATOM     14  H   UNL     1      -3.641  12.693  18.396  0.00  0.00    +0.000 HD
BRANCH  13  15
ATOM     15  C   UNL     1      -5.207  11.887  17.261  0.00  0.00    +0.000 C 
ATOM     16  C   UNL     1      -6.283  12.749  17.873  0.00  0.00    +0.000 C 
ATOM     17  C   UNL     1      -6.324  11.261  18.051  0.00  0.00    +0.000 C 
ENDBRANCH  13  15
ENDBRANCH   9  11
ENDBRANCH   3   5
BRANCH   1  18
ATOM     18  C   UNL     1       2.235   7.282  20.356  0.00  0.00    +0.000 C 
BRANCH  18  19
ATOM     19  S   UNL     1       2.763   6.773  18.694  0.00  0.00    +0.000 S 
BRANCH  19  24
ATOM     20  C   UNL     1       3.407   1.525  18.406  0.00  0.00    +0.000 C 
ATOM     21  C   UNL     1       2.864   2.892  18.604  0.00  0.00    +0.000 A 
ATOM     22  N   UNL     1       1.741   3.130  19.257  0.00  0.00    +0.000 NA
ATOM     23  N   UNL     1       1.599   4.472  19.396  0.00  0.00    +0.000 NA
ATOM     24  C   UNL     1       2.635   5.050  18.830  0.00  0.00    +0.000 A 
ATOM     25  N   UNL     1       3.494   4.100  18.287  0.00  0.00    +0.000 N 
BRANCH  25  26
ATOM     26  C   UNL     1       4.741   4.282  17.611  0.00  0.00    +0.000 A 
ATOM     27  C   UNL     1       4.822   4.198  16.214  0.00  0.00    +0.000 A 
ATOM     28  C   UNL     1       6.043   4.386  15.557  0.00  0.00    +0.000 A 
ATOM     29  C   UNL     1       7.193   4.679  16.283  0.00  0.00    +0.000 A 
ATOM     30  C   UNL     1       7.127   4.768  17.670  0.00  0.00    +0.000 A 
ATOM     31  C   UNL     1       5.912   4.562  18.332  0.00  0.00    +0.000 A 
ENDBRANCH  25  26
ENDBRANCH  19  24
ENDBRANCH  18  19
ENDBRANCH   1  18
TORSDOF 7
ENDMDL
MODEL 6
REMARK VINA RESULT:      -8.0      5.609      8.302
REMARK  Name = 
REMARK  8 active torsions:
REMARK  status: ('A' for Active; 'I' for Inactive)
REMARK    1  A    between atoms: C_1  and  C_2
REMARK    2  A    between atoms: C_5  and  S_6
REMARK    3  A    between atoms: S_6  and  C_7
REMARK    4  A    between atoms: C_7  and  C_8
REMARK    5  A    between atoms: N_10  and  C_11
REMARK    6  A    between atoms: C_15  and  C_16
REMARK    7  A    between atoms: N_18  and  C_19
REMARK    8  A    between atoms: N_23  and  C_24
REMARK                            x       y       z     vdW  Elec       q    Type
REMARK                         _______ _______ _______ _____ _____    ______ ____
ROOT
ATOM      1  C   UNL     1       8.025   8.160  17.810  0.00  0.00    +0.000 C 
ATOM      2  O   UNL     1       8.442   7.495  18.758  0.00  0.00    +0.000 OA
ATOM      3  N   UNL     1       7.056   7.753  16.899  0.00  0.00    +0.000 N 
ATOM      4  H   UNL     1       7.010   8.275  16.022  0.00  0.00    +0.000 HD
ENDROOT
BRANCH   3   5
ATOM      5  C   UNL     1       6.313   6.550  16.953  0.00  0.00    +0.000 A 
ATOM      6  C   UNL     1       6.707   5.389  16.281  0.00  0.00    +0.000 A 
ATOM      7  C   UNL     1       5.918   4.238  16.311  0.00  0.00    +0.000 A 
ATOM      8  C   UNL     1       4.732   4.223  17.038  0.00  0.00    +0.000 A 
ATOM      9  C   UNL     1       4.347   5.356  17.766  0.00  0.00    +0.000 A 
ATOM     10  C   UNL     1       5.137   6.520  17.717  0.00  0.00    +0.000 A 
BRANCH   9  11
ATOM     11  C   UNL     1       3.085   5.355  18.570  0.00  0.00    +0.000 C 
ATOM     12  O   UNL     1       2.338   6.327  18.543  0.00  0.00    +0.000 OA
ATOM     13  N   UNL     1       2.850   4.221  19.335  0.00  0.00    +0.000 N 
ATOM     14  H   UNL     1       3.591   3.541  19.441  0.00  0.00    +0.000 HD
BRANCH  13  15
ATOM     15  C   UNL     1       1.701   4.071  20.175  0.00  0.00    +0.000 C 
ATOM     16  C   UNL     1       1.778   3.225  21.421  0.00  0.00    +0.000 C 
ATOM     17  C   UNL     1       0.962   2.763  20.251  0.00  0.00    +0.000 C 
ENDBRANCH  13  15
ENDBRANCH   9  11
ENDBRANCH   3   5
BRANCH   1  18
ATOM     18  C   UNL     1       8.595   9.545  17.544  0.00  0.00    +0.000 C 
BRANCH  18  19
ATOM     19  S   UNL     1       9.146  10.335  19.084  0.00  0.00    +0.000 S 
BRANCH  19  24
ATOM     20  C   UNL     1      11.193  14.863  17.256  0.00  0.00    +0.000 C 
ATOM     21  C   UNL     1      10.945  13.442  17.606  0.00  0.00    +0.000 A 
ATOM     22  N   UNL     1      11.878  12.510  17.524  0.00  0.00    +0.000 NA
ATOM     23  N   UNL     1      11.387  11.361  18.052  0.00  0.00    +0.000 NA
ATOM     24  C   UNL     1      10.158  11.594  18.456  0.00  0.00    +0.000 A 
ATOM     25  N   UNL     1       9.794  12.911  18.196  0.00  0.00    +0.000 N 
BRANCH  25  26
ATOM     26  C   UNL     1       8.572  13.592  18.492  0.00  0.00    +0.000 A 
ATOM     27  C   UNL     1       8.359  14.177  19.749  0.00  0.00    +0.000 A 
ATOM     28  C   UNL     1       7.166  14.850  20.031  0.00  0.00    +0.000 A 
ATOM     29  C   UNL     1       6.178  14.965  19.058  0.00  0.00    +0.000 A 
ATOM     30  C   UNL     1       6.377  14.393  17.806  0.00  0.00    +0.000 A 
ATOM     31  C   UNL     1       7.561  13.702  17.526  0.00  0.00    +0.000 A 
ENDBRANCH  25  26
ENDBRANCH  19  24
ENDBRANCH  18  19
ENDBRANCH   1  18
TORSDOF 7
ENDMDL
MODEL 7
REMARK VINA RESULT:      -7.9      2.582      9.624
REMARK  Name = 
REMARK  8 active torsions:
REMARK  status: ('A' for Active; 'I' for Inactive)
REMARK    1  A    between atoms: C_1  and  C_2
REMARK    2  A    between atoms: C_5  and  S_6
REMARK    3  A    between atoms: S_6  and  C_7
REMARK    4  A    between atoms: C_7  and  C_8
REMARK    5  A    between atoms: N_10  and  C_11
REMARK    6  A    between atoms: C_15  and  C_16
REMARK    7  A    between atoms: N_18  and  C_19
REMARK    8  A    between atoms: N_23  and  C_24
REMARK                            x       y       z     vdW  Elec       q    Type
REMARK                         _______ _______ _______ _____ _____    ______ ____
ROOT
ATOM      1  C   UNL     1       1.861   8.974  18.149  0.00  0.00    +0.000 C 
ATOM      2  O   UNL     1       2.169   9.811  17.302  0.00  0.00    +0.000 OA
ATOM      3  N   UNL     1       0.869   9.123  19.113  0.00  0.00    +0.000 N 
ATOM      4  H   UNL     1       0.909   8.483  19.908  0.00  0.00    +0.000 HD
ENDROOT
BRANCH   3   5
ATOM      5  C   UNL     1      -0.020  10.218  19.232  0.00  0.00    +0.000 A 
ATOM      6  C   UNL     1       0.118  11.198  20.220  0.00  0.00    +0.000 A 
ATOM      7  C   UNL     1      -0.811  12.232  20.342  0.00  0.00    +0.000 A 
ATOM      8  C   UNL     1      -1.883  12.315  19.460  0.00  0.00    +0.000 A 
ATOM      9  C   UNL     1      -2.009  11.377  18.426  0.00  0.00    +0.000 A 
ATOM     10  C   UNL     1      -1.079  10.326  18.320  0.00  0.00    +0.000 A 
BRANCH   9  11
ATOM     11  C   UNL     1      -3.144  11.460  17.454  0.00  0.00    +0.000 C 
ATOM     12  O   UNL     1      -2.968  11.161  16.278  0.00  0.00    +0.000 OA
ATOM     13  N   UNL     1      -4.354  11.906  17.967  0.00  0.00    +0.000 N 
ATOM     14  H   UNL     1      -4.376  12.297  18.899  0.00  0.00    +0.000 HD
BRANCH  13  15
ATOM     15  C   UNL     1      -5.530  12.061  17.165  0.00  0.00    +0.000 C 
ATOM     16  C   UNL     1      -6.369  13.309  17.284  0.00  0.00    +0.000 C 
ATOM     17  C   UNL     1      -6.901  11.998  17.782  0.00  0.00    +0.000 C 
ENDBRANCH  13  15
ENDBRANCH   9  11
ENDBRANCH   3   5
BRANCH   1  18
ATOM     18  C   UNL     1       2.606   7.648  18.215  0.00  0.00    +0.000 C 
BRANCH  18  19
ATOM     19  S   UNL     1       2.356   6.835  19.820  0.00  0.00    +0.000 S 
BRANCH  19  24
ATOM     20  C   UNL     1       3.563   2.054  17.891  0.00  0.00    +0.000 C 
ATOM     21  C   UNL     1       2.862   3.239  18.446  0.00  0.00    +0.000 A 
ATOM     22  N   UNL     1       1.641   3.181  18.946  0.00  0.00    +0.000 NA
ATOM     23  N   UNL     1       1.345   4.381  19.503  0.00  0.00    +0.000 NA
ATOM     24  C   UNL     1       2.386   5.169  19.344  0.00  0.00    +0.000 A 
ATOM     25  N   UNL     1       3.404   4.510  18.663  0.00  0.00    +0.000 N 
BRANCH  25  26
ATOM     26  C   UNL     1       4.708   4.975  18.304  0.00  0.00    +0.000 A 
ATOM     27  C   UNL     1       5.698   5.166  19.279  0.00  0.00    +0.000 A 
ATOM     28  C   UNL     1       6.975   5.613  18.921  0.00  0.00    +0.000 A 
ATOM     29  C   UNL     1       7.285   5.856  17.588  0.00  0.00    +0.000 A 
ATOM     30  C   UNL     1       6.315   5.668  16.610  0.00  0.00    +0.000 A 
ATOM     31  C   UNL     1       5.031   5.240  16.964  0.00  0.00    +0.000 A 
ENDBRANCH  25  26
ENDBRANCH  19  24
ENDBRANCH  18  19
ENDBRANCH   1  18
TORSDOF 7
ENDMDL
MODEL 8
REMARK VINA RESULT:      -7.8      2.596      9.699
REMARK  Name = 
REMARK  8 active torsions:
REMARK  status: ('A' for Active; 'I' for Inactive)
REMARK    1  A    between atoms: C_1  and  C_2
REMARK    2  A    between atoms: C_5  and  S_6
REMARK    3  A    between atoms: S_6  and  C_7
REMARK    4  A    between atoms: C_7  and  C_8
REMARK    5  A    between atoms: N_10  and  C_11
REMARK    6  A    between atoms: C_15  and  C_16
REMARK    7  A    between atoms: N_18  and  C_19
REMARK    8  A    between atoms: N_23  and  C_24
REMARK                            x       y       z     vdW  Elec       q    Type
REMARK                         _______ _______ _______ _____ _____    ______ ____
ROOT
ATOM      1  C   UNL     1       1.766   9.098  18.135  0.00  0.00    +0.000 C 
ATOM      2  O   UNL     1       2.209  10.008  17.435  0.00  0.00    +0.000 OA
ATOM      3  N   UNL     1       0.697   9.200  19.018  0.00  0.00    +0.000 N 
ATOM      4  H   UNL     1       0.617   8.465  19.723  0.00  0.00    +0.000 HD
ENDROOT
BRANCH   3   5
ATOM      5  C   UNL     1      -0.129  10.336  19.199  0.00  0.00    +0.000 A 
ATOM      6  C   UNL     1       0.220  11.396  20.041  0.00  0.00    +0.000 A 
ATOM      7  C   UNL     1      -0.645  12.472  20.239  0.00  0.00    +0.000 A 
ATOM      8  C   UNL     1      -1.867  12.516  19.576  0.00  0.00    +0.000 A 
ATOM      9  C   UNL     1      -2.213  11.494  18.683  0.00  0.00    +0.000 A 
ATOM     10  C   UNL     1      -1.344  10.402  18.502  0.00  0.00    +0.000 A 
BRANCH   9  11
ATOM     11  C   UNL     1      -3.514  11.532  17.945  0.00  0.00    +0.000 C 
ATOM     12  O   UNL     1      -3.622  10.969  16.861  0.00  0.00    +0.000 OA
ATOM     13  N   UNL     1      -4.538  12.246  18.551  0.00  0.00    +0.000 N 
ATOM     14  H   UNL     1      -4.324  12.824  19.352  0.00  0.00    +0.000 HD
BRANCH  13  15
ATOM     15  C   UNL     1      -5.836  12.396  17.965  0.00  0.00    +0.000 C 
ATOM     16  C   UNL     1      -7.025  12.723  18.833  0.00  0.00    +0.000 C 
ATOM     17  C   UNL     1      -6.912  11.370  18.196  0.00  0.00    +0.000 C 
ENDBRANCH  13  15
ENDBRANCH   9  11
ENDBRANCH   3   5
BRANCH   1  18
ATOM     18  C   UNL     1       2.416   7.722  18.094  0.00  0.00    +0.000 C 
BRANCH  18  19
ATOM     19  S   UNL     1       2.378   6.930  19.728  0.00  0.00    +0.000 S 
BRANCH  19  24
ATOM     20  C   UNL     1       3.625   2.128  17.878  0.00  0.00    +0.000 C 
ATOM     21  C   UNL     1       2.913   3.317  18.409  0.00  0.00    +0.000 A 
ATOM     22  N   UNL     1       1.687   3.261  18.897  0.00  0.00    +0.000 NA
ATOM     23  N   UNL     1       1.381   4.468  19.435  0.00  0.00    +0.000 NA
ATOM     24  C   UNL     1       2.420   5.257  19.276  0.00  0.00    +0.000 A 
ATOM     25  N   UNL     1       3.448   4.594  18.614  0.00  0.00    +0.000 N 
BRANCH  25  26
ATOM     26  C   UNL     1       4.754   5.059  18.262  0.00  0.00    +0.000 A 
ATOM     27  C   UNL     1       5.055   5.431  16.944  0.00  0.00    +0.000 A 
ATOM     28  C   UNL     1       6.331   5.895  16.607  0.00  0.00    +0.000 A 
ATOM     29  C   UNL     1       7.316   6.011  17.583  0.00  0.00    +0.000 A 
ATOM     30  C   UNL     1       7.031   5.649  18.895  0.00  0.00    +0.000 A 
ATOM     31  C   UNL     1       5.761   5.166  19.233  0.00  0.00    +0.000 A 
ENDBRANCH  25  26
ENDBRANCH  19  24
ENDBRANCH  18  19
ENDBRANCH   1  18
TORSDOF 7
ENDMDL
MODEL 9
REMARK VINA RESULT:      -7.8      1.257      1.399
REMARK  Name = 
REMARK  8 active torsions:
REMARK  status: ('A' for Active; 'I' for Inactive)
REMARK    1  A    between atoms: C_1  and  C_2
REMARK    2  A    between atoms: C_5  and  S_6
REMARK    3  A    between atoms: S_6  and  C_7
REMARK    4  A    between atoms: C_7  and  C_8
REMARK    5  A    between atoms: N_10  and  C_11
REMARK    6  A    between atoms: C_15  and  C_16
REMARK    7  A    between atoms: N_18  and  C_19
REMARK    8  A    between atoms: N_23  and  C_24
REMARK                            x       y       z     vdW  Elec       q    Type
REMARK                         _______ _______ _______ _____ _____    ______ ____
ROOT
ATOM      1  C   UNL     1       1.659   7.998  20.491  0.00  0.00    +0.000 C 
ATOM      2  O   UNL     1       1.821   8.257  19.299  0.00  0.00    +0.000 OA
ATOM      3  N   UNL     1       1.681   6.727  21.055  0.00  0.00    +0.000 N 
ATOM      4  H   UNL     1       1.264   6.634  21.982  0.00  0.00    +0.000 HD
ENDROOT
BRANCH   3   5
ATOM      5  C   UNL     1       1.986   5.521  20.379  0.00  0.00    +0.000 A 
ATOM      6  C   UNL     1       1.119   4.424  20.365  0.00  0.00    +0.000 A 
ATOM      7  C   UNL     1       1.478   3.231  19.737  0.00  0.00    +0.000 A 
ATOM      8  C   UNL     1       2.704   3.125  19.090  0.00  0.00    +0.000 A 
ATOM      9  C   UNL     1       3.565   4.229  19.041  0.00  0.00    +0.000 A 
ATOM     10  C   UNL     1       3.205   5.424  19.692  0.00  0.00    +0.000 A 
BRANCH   9  11
ATOM     11  C   UNL     1       4.880   4.143  18.333  0.00  0.00    +0.000 C 
ATOM     12  O   UNL     1       5.925   4.151  18.974  0.00  0.00    +0.000 OA
ATOM     13  N   UNL     1       4.823   4.080  16.947  0.00  0.00    +0.000 N 
ATOM     14  H   UNL     1       3.940   4.253  16.485  0.00  0.00    +0.000 HD
BRANCH  13  15
ATOM     15  C   UNL     1       5.990   4.015  16.121  0.00  0.00    +0.000 C 
ATOM     16  C   UNL     1       6.512   5.259  15.448  0.00  0.00    +0.000 C 
ATOM     17  C   UNL     1       5.891   4.167  14.627  0.00  0.00    +0.000 C 
ENDBRANCH  13  15
ENDBRANCH   9  11
ENDBRANCH   3   5
BRANCH   1  18
ATOM     18  C   UNL     1       1.384   9.119  21.483  0.00  0.00    +0.000 C 
BRANCH  18  19
ATOM     19  S   UNL     1      -0.312   9.748  21.308  0.00  0.00    +0.000 S 
BRANCH  19  24
ATOM     20  C   UNL     1      -0.291  14.737  19.537  0.00  0.00    +0.000 C 
ATOM     21  C   UNL     1       0.056  13.444  20.177  0.00  0.00    +0.000 A 
ATOM     22  N   UNL     1       1.042  13.315  21.045  0.00  0.00    +0.000 NA
ATOM     23  N   UNL     1       1.006  12.059  21.557  0.00  0.00    +0.000 NA
ATOM     24  C   UNL     1      -0.003  11.425  21.002  0.00  0.00    +0.000 A 
ATOM     25  N   UNL     1      -0.662  12.246  20.092  0.00  0.00    +0.000 N 
BRANCH  25  26
ATOM     26  C   UNL     1      -1.817  11.976  19.293  0.00  0.00    +0.000 A 
ATOM     27  C   UNL     1      -1.701  11.325  18.057  0.00  0.00    +0.000 A 
ATOM     28  C   UNL     1      -2.835  11.054  17.284  0.00  0.00    +0.000 A 
ATOM     29  C   UNL     1      -4.099  11.412  17.742  0.00  0.00    +0.000 A 
ATOM     30  C   UNL     1      -4.229  12.056  18.968  0.00  0.00    +0.000 A 
ATOM     31  C   UNL     1      -3.096  12.346  19.736  0.00  0.00    +0.000 A 
ENDBRANCH  25  26
ENDBRANCH  19  24
ENDBRANCH  18  19
ENDBRANCH   1  18
TORSDOF 7
ENDMDL
