MODEL 1
REMARK VINA RESULT:      -9.1      0.000      0.000
REMARK  Name = 
REMARK  3 active torsions:
REMARK  status: ('A' for Active; 'I' for Inactive)
REMARK    1  A    between atoms: C_7  and  S_8
REMARK    2  A    between atoms: S_8  and  N_11
REMARK    3  A    between atoms: C_15  and  C_16
REMARK                            x       y       z     vdW  Elec       q    Type
REMARK                         _______ _______ _______ _____ _____    ______ ____
ROOT
ATOM      1  S   UNL     1       4.198   2.359  19.394  0.00  0.00    +0.000 S 
ATOM      2  O   UNL     1       3.497   1.345  18.632  0.00  0.00    +0.000 OA
ATOM      3  O   UNL     1       5.136   1.973  20.429  0.00  0.00    +0.000 OA
ENDROOT
BRANCH   1  10
ATOM      4  O   UNL     1       8.254   5.815  13.436  0.00  0.00    +0.000 OA
ATOM      5  C   UNL     1       7.377   5.324  14.144  0.00  0.00    +0.000 C 
ATOM      6  C   UNL     1       6.243   4.503  13.581  0.00  0.00    +0.000 C 
ATOM      7  C   UNL     1       5.837   3.367  14.506  0.00  0.00    +0.000 C 
ATOM      8  C   UNL     1       5.781   3.790  15.948  0.00  0.00    +0.000 A 
ATOM      9  C   UNL     1       5.095   3.006  16.886  0.00  0.00    +0.000 A 
ATOM     10  C   UNL     1       5.099   3.354  18.240  0.00  0.00    +0.000 A 
ATOM     11  C   UNL     1       5.745   4.518  18.639  0.00  0.00    +0.000 A 
ATOM     12  F   UNL     1       5.723   4.932  19.910  0.00  0.00    +0.000 F 
ATOM     13  C   UNL     1       6.467   5.285  17.723  0.00  0.00    +0.000 A 
ATOM     14  C   UNL     1       6.501   4.906  16.383  0.00  0.00    +0.000 A 
ATOM     15  N   UNL     1       7.314   5.600  15.484  0.00  0.00    +0.000 N 
ATOM     16  H   UNL     1       7.986   6.278  15.821  0.00  0.00    +0.000 HD
ENDBRANCH   1  10
BRANCH   1  17
ATOM     17  N   UNL     1       3.068   3.361  20.125  0.00  0.00    +0.000 NA
ATOM     18  C   UNL     1       2.655   3.170  21.517  0.00  0.00    +0.000 C 
ATOM     19  C   UNL     1       1.173   2.873  21.430  0.00  0.00    +0.000 C 
ATOM     20  C   UNL     1       0.695   3.630  20.202  0.00  0.00    +0.000 C 
ATOM     21  C   UNL     1       1.948   3.934  19.346  0.00  0.00    +0.000 C 
BRANCH  21  22
ATOM     22  C   UNL     1       2.066   5.439  19.115  0.00  0.00    +0.000 A 
ATOM     23  C   UNL     1       2.587   5.980  17.928  0.00  0.00    +0.000 A 
ATOM     24  C   UNL     1       2.786   7.358  17.790  0.00  0.00    +0.000 A 
ATOM     25  C   UNL     1       2.456   8.221  18.834  0.00  0.00    +0.000 A 
ATOM     26  C   UNL     1       1.896   7.704  19.998  0.00  0.00    +0.000 A 
ATOM     27 CL   UNL     1       1.493   8.762  21.294  0.00  0.00    +0.000 Cl
ATOM     28  C   UNL     1       1.684   6.331  20.135  0.00  0.00    +0.000 A 
ENDBRANCH  21  22
ENDBRANCH   1  17
TORSDOF 3
ENDMDL
MODEL 2
REMARK VINA RESULT:      -8.6      3.996      6.845
REMARK  Name = 
REMARK  3 active torsions:
REMARK  status: ('A' for Active; 'I' for Inactive)
REMARK    1  A    between atoms: C_7  and  S_8
REMARK    2  A    between atoms: S_8  and  N_11
REMARK    3  A    between atoms: C_15  and  C_16
REMARK                            x       y       z     vdW  Elec       q    Type
REMARK                         _______ _______ _______ _____ _____    ______ ____
ROOT
ATOM      1  S   UNL     1       3.458   5.464  19.569  0.00  0.00    +0.000 S 
ATOM      2  O   UNL     1       4.842   5.764  19.880  0.00  0.00    +0.000 OA
ATOM      3  O   UNL     1       2.620   4.801  20.547  0.00  0.00    +0.000 OA
ENDROOT
BRANCH   1  10
ATOM      4  O   UNL     1      -0.976  12.058  18.706  0.00  0.00    +0.000 OA
ATOM      5  C   UNL     1      -0.198  11.199  19.114  0.00  0.00    +0.000 C 
ATOM      6  C   UNL     1      -0.032  10.883  20.580  0.00  0.00    +0.000 C 
ATOM      7  C   UNL     1       0.221   9.405  20.829  0.00  0.00    +0.000 C 
ATOM      8  C   UNL     1       1.192   8.813  19.844  0.00  0.00    +0.000 A 
ATOM      9  C   UNL     1       1.815   7.588  20.119  0.00  0.00    +0.000 A 
ATOM     10  C   UNL     1       2.663   6.996  19.177  0.00  0.00    +0.000 A 
ATOM     11  C   UNL     1       2.925   7.664  17.987  0.00  0.00    +0.000 A 
ATOM     12  F   UNL     1       3.779   7.175  17.082  0.00  0.00    +0.000 F 
ATOM     13  C   UNL     1       2.278   8.862  17.682  0.00  0.00    +0.000 A 
ATOM     14  C   UNL     1       1.396   9.422  18.603  0.00  0.00    +0.000 A 
ATOM     15  N   UNL     1       0.658  10.558  18.259  0.00  0.00    +0.000 N 
ATOM     16  H   UNL     1       0.649  10.890  17.302  0.00  0.00    +0.000 HD
ENDBRANCH   1  10
BRANCH   1  17
ATOM     17  N   UNL     1       3.410   4.521  18.182  0.00  0.00    +0.000 NA
ATOM     18  C   UNL     1       2.145   4.037  17.623  0.00  0.00    +0.000 C 
ATOM     19  C   UNL     1       2.256   2.529  17.697  0.00  0.00    +0.000 C 
ATOM     20  C   UNL     1       3.741   2.240  17.554  0.00  0.00    +0.000 C 
ATOM     21  C   UNL     1       4.489   3.553  17.887  0.00  0.00    +0.000 C 
BRANCH  21  22
ATOM     22  C   UNL     1       5.374   3.958  16.710  0.00  0.00    +0.000 A 
ATOM     23  C   UNL     1       6.527   4.746  16.872  0.00  0.00    +0.000 A 
ATOM     24  C   UNL     1       7.255   5.193  15.765  0.00  0.00    +0.000 A 
ATOM     25  C   UNL     1       6.849   4.853  14.476  0.00  0.00    +0.000 A 
ATOM     26  C   UNL     1       5.737   4.036  14.302  0.00  0.00    +0.000 A 
ATOM     27 CL   UNL     1       5.224   3.616  12.714  0.00  0.00    +0.000 Cl
ATOM     28  C   UNL     1       5.015   3.576  15.405  0.00  0.00    +0.000 A 
ENDBRANCH  21  22
ENDBRANCH   1  17
TORSDOF 3
ENDMDL
MODEL 3
REMARK VINA RESULT:      -8.4      3.381      6.707
REMARK  Name = 
REMARK  3 active torsions:
REMARK  status: ('A' for Active; 'I' for Inactive)
REMARK    1  A    between atoms: C_7  and  S_8
REMARK    2  A    between atoms: S_8  and  N_11
REMARK    3  A    between atoms: C_15  and  C_16
REMARK                            x       y       z     vdW  Elec       q    Type
REMARK                         _______ _______ _______ _____ _____    ______ ____
ROOT
ATOM      1  S   UNL     1       4.616   3.845  18.151  0.00  0.00    +0.000 S 
ATOM      2  O   UNL     1       5.085   3.078  19.288  0.00  0.00    +0.000 OA
ATOM      3  O   UNL     1       3.849   3.199  17.105  0.00  0.00    +0.000 OA
ENDROOT
BRANCH   1  10
ATOM      4  O   UNL     1       0.696  10.510  20.174  0.00  0.00    +0.000 OA
ATOM      5  C   UNL     1       1.108   9.508  19.594  0.00  0.00    +0.000 C 
ATOM      6  C   UNL     1       1.268   9.444  18.095  0.00  0.00    +0.000 C 
ATOM      7  C   UNL     1       2.472   8.617  17.676  0.00  0.00    +0.000 C 
ATOM      8  C   UNL     1       2.607   7.350  18.475  0.00  0.00    +0.000 A 
ATOM      9  C   UNL     1       3.420   6.307  18.010  0.00  0.00    +0.000 A 
ATOM     10  C   UNL     1       3.607   5.156  18.782  0.00  0.00    +0.000 A 
ATOM     11  C   UNL     1       2.934   5.033  19.991  0.00  0.00    +0.000 A 
ATOM     12  F   UNL     1       3.026   3.926  20.736  0.00  0.00    +0.000 F 
ATOM     13  C   UNL     1       2.157   6.080  20.486  0.00  0.00    +0.000 A 
ATOM     14  C   UNL     1       2.013   7.245  19.736  0.00  0.00    +0.000 A 
ATOM     15  N   UNL     1       1.333   8.341  20.275  0.00  0.00    +0.000 N 
ATOM     16  H   UNL     1       1.073   8.349  21.253  0.00  0.00    +0.000 HD
ENDBRANCH   1  10
BRANCH   1  17
ATOM     17  N   UNL     1       5.935   4.561  17.402  0.00  0.00    +0.000 NA
ATOM     18  C   UNL     1       7.155   4.894  18.142  0.00  0.00    +0.000 C 
ATOM     19  C   UNL     1       7.266   6.398  18.022  0.00  0.00    +0.000 C 
ATOM     20  C   UNL     1       6.628   6.731  16.683  0.00  0.00    +0.000 C 
ATOM     21  C   UNL     1       5.747   5.521  16.292  0.00  0.00    +0.000 C 
BRANCH  21  22
ATOM     22  C   UNL     1       6.181   4.981  14.931  0.00  0.00    +0.000 A 
ATOM     23  C   UNL     1       7.467   5.200  14.410  0.00  0.00    +0.000 A 
ATOM     24  C   UNL     1       7.800   4.790  13.115  0.00  0.00    +0.000 A 
ATOM     25  C   UNL     1       6.856   4.143  12.321  0.00  0.00    +0.000 A 
ATOM     26  C   UNL     1       5.592   3.878  12.840  0.00  0.00    +0.000 A 
ATOM     27 CL   UNL     1       4.417   3.085  11.864  0.00  0.00    +0.000 Cl
ATOM     28  C   UNL     1       5.260   4.273  14.137  0.00  0.00    +0.000 A 
ENDBRANCH  21  22
ENDBRANCH   1  17
TORSDOF 3
ENDMDL
MODEL 4
REMARK VINA RESULT:      -8.3      1.034      1.494
REMARK  Name = 
REMARK  3 active torsions:
REMARK  status: ('A' for Active; 'I' for Inactive)
REMARK    1  A    between atoms: C_7  and  S_8
REMARK    2  A    between atoms: S_8  and  N_11
REMARK    3  A    between atoms: C_15  and  C_16
REMARK                            x       y       z     vdW  Elec       q    Type
REMARK                         _______ _______ _______ _____ _____    ______ ____
ROOT
ATOM      1  S   UNL     1       4.275   2.595  19.341  0.00  0.00    +0.000 S 
ATOM      2  O   UNL     1       4.150   1.254  18.804  0.00  0.00    +0.000 OA
ATOM      3  O   UNL     1       4.913   2.809  20.624  0.00  0.00    +0.000 OA
ENDROOT
BRANCH   1  10
ATOM      4  O   UNL     1       8.396   5.839  13.310  0.00  0.00    +0.000 OA
ATOM      5  C   UNL     1       7.513   5.364  14.021  0.00  0.00    +0.000 C 
ATOM      6  C   UNL     1       6.413   4.487  13.475  0.00  0.00    +0.000 C 
ATOM      7  C   UNL     1       6.011   3.391  14.447  0.00  0.00    +0.000 C 
ATOM      8  C   UNL     1       5.909   3.886  15.864  0.00  0.00    +0.000 A 
ATOM      9  C   UNL     1       5.218   3.134  16.824  0.00  0.00    +0.000 A 
ATOM     10  C   UNL     1       5.181   3.551  18.159  0.00  0.00    +0.000 A 
ATOM     11  C   UNL     1       5.789   4.750  18.512  0.00  0.00    +0.000 A 
ATOM     12  F   UNL     1       5.726   5.228  19.759  0.00  0.00    +0.000 F 
ATOM     13  C   UNL     1       6.516   5.485  17.575  0.00  0.00    +0.000 A 
ATOM     14  C   UNL     1       6.592   5.039  16.258  0.00  0.00    +0.000 A 
ATOM     15  N   UNL     1       7.411   5.706  15.343  0.00  0.00    +0.000 N 
ATOM     16  H   UNL     1       8.059   6.417  15.661  0.00  0.00    +0.000 HD
ENDBRANCH   1  10
BRANCH   1  17
ATOM     17  N   UNL     1       2.745   3.276  19.451  0.00  0.00    +0.000 NA
ATOM     18  C   UNL     1       1.590   2.505  19.918  0.00  0.00    +0.000 C 
ATOM     19  C   UNL     1       0.643   2.499  18.737  0.00  0.00    +0.000 C 
ATOM     20  C   UNL     1       0.912   3.808  18.014  0.00  0.00    +0.000 C 
ATOM     21  C   UNL     1       2.302   4.303  18.482  0.00  0.00    +0.000 C 
BRANCH  21  22
ATOM     22  C   UNL     1       2.180   5.702  19.082  0.00  0.00    +0.000 A 
ATOM     23  C   UNL     1       1.854   5.916  20.432  0.00  0.00    +0.000 A 
ATOM     24  C   UNL     1       1.640   7.207  20.925  0.00  0.00    +0.000 A 
ATOM     25  C   UNL     1       1.757   8.309  20.080  0.00  0.00    +0.000 A 
ATOM     26  C   UNL     1       2.124   8.116  18.752  0.00  0.00    +0.000 A 
ATOM     27 CL   UNL     1       2.264   9.469  17.699  0.00  0.00    +0.000 Cl
ATOM     28  C   UNL     1       2.352   6.830  18.258  0.00  0.00    +0.000 A 
ENDBRANCH  21  22
ENDBRANCH   1  17
TORSDOF 3
ENDMDL
MODEL 5
REMARK VINA RESULT:      -8.3      1.204      1.593
REMARK  Name = 
REMARK  3 active torsions:
REMARK  status: ('A' for Active; 'I' for Inactive)
REMARK    1  A    between atoms: C_7  and  S_8
REMARK    2  A    between atoms: S_8  and  N_11
REMARK    3  A    between atoms: C_15  and  C_16
REMARK                            x       y       z     vdW  Elec       q    Type
REMARK                         _______ _______ _______ _____ _____    ______ ____
ROOT
ATOM      1  S   UNL     1       3.383   2.315  18.185  0.00  0.00    +0.000 S 
ATOM      2  O   UNL     1       2.212   2.283  17.331  0.00  0.00    +0.000 OA
ATOM      3  O   UNL     1       4.034   1.080  18.573  0.00  0.00    +0.000 OA
ENDROOT
BRANCH   1  10
ATOM      4  O   UNL     1       8.832   5.869  13.541  0.00  0.00    +0.000 OA
ATOM      5  C   UNL     1       7.787   5.447  14.030  0.00  0.00    +0.000 C 
ATOM      6  C   UNL     1       6.628   4.974  13.188  0.00  0.00    +0.000 C 
ATOM      7  C   UNL     1       5.896   3.799  13.817  0.00  0.00    +0.000 C 
ATOM      8  C   UNL     1       5.694   3.972  15.298  0.00  0.00    +0.000 A 
ATOM      9  C   UNL     1       4.750   3.191  15.976  0.00  0.00    +0.000 A 
ATOM     10  C   UNL     1       4.607   3.295  17.363  0.00  0.00    +0.000 A 
ATOM     11  C   UNL     1       5.374   4.223  18.056  0.00  0.00    +0.000 A 
ATOM     12  F   UNL     1       5.231   4.410  19.372  0.00  0.00    +0.000 F 
ATOM     13  C   UNL     1       6.348   4.977  17.400  0.00  0.00    +0.000 A 
ATOM     14  C   UNL     1       6.520   4.833  16.025  0.00  0.00    +0.000 A 
ATOM     15  N   UNL     1       7.568   5.497  15.382  0.00  0.00    +0.000 N 
ATOM     16  H   UNL     1       8.287   5.961  15.922  0.00  0.00    +0.000 HD
ENDBRANCH   1  10
BRANCH   1  17
ATOM     17  N   UNL     1       2.991   3.114  19.607  0.00  0.00    +0.000 NA
ATOM     18  C   UNL     1       3.405   2.604  20.917  0.00  0.00    +0.000 C 
ATOM     19  C   UNL     1       2.104   2.326  21.638  0.00  0.00    +0.000 C 
ATOM     20  C   UNL     1       1.122   3.343  21.078  0.00  0.00    +0.000 C 
ATOM     21  C   UNL     1       1.711   3.844  19.737  0.00  0.00    +0.000 C 
BRANCH  21  22
ATOM     22  C   UNL     1       1.870   5.362  19.776  0.00  0.00    +0.000 A 
ATOM     23  C   UNL     1       1.478   6.132  20.884  0.00  0.00    +0.000 A 
ATOM     24  C   UNL     1       1.533   7.529  20.847  0.00  0.00    +0.000 A 
ATOM     25  C   UNL     1       1.990   8.182  19.704  0.00  0.00    +0.000 A 
ATOM     26  C   UNL     1       2.424   7.432  18.616  0.00  0.00    +0.000 A 
ATOM     27 CL   UNL     1       2.983   8.230  17.198  0.00  0.00    +0.000 Cl
ATOM     28  C   UNL     1       2.384   6.037  18.653  0.00  0.00    +0.000 A 
ENDBRANCH  21  22
ENDBRANCH   1  17
TORSDOF 3
ENDMDL
MODEL 6
REMARK VINA RESULT:      -8.0      3.891      6.653
REMARK  Name = 
REMARK  3 active torsions:
REMARK  status: ('A' for Active; 'I' for Inactive)
REMARK    1  A    between atoms: C_7  and  S_8
REMARK    2  A    between atoms: S_8  and  N_11
REMARK    3  A    between atoms: C_15  and  C_16
REMARK                            x       y       z     vdW  Elec       q    Type
REMARK                         _______ _______ _______ _____ _____    ______ ____
ROOT
ATOM      1  S   UNL     1       2.619   5.452  19.890  0.00  0.00    +0.000 S 
ATOM      2  O   UNL     1       3.887   5.568  20.582  0.00  0.00    +0.000 OA
ATOM      3  O   UNL     1       1.478   4.857  20.557  0.00  0.00    +0.000 OA
ENDROOT
BRANCH   1  10
ATOM      4  O   UNL     1      -0.480  12.712  18.637  0.00  0.00    +0.000 OA
ATOM      5  C   UNL     1       0.121  11.744  19.097  0.00  0.00    +0.000 C 
ATOM      6  C   UNL     1       0.228  11.482  20.580  0.00  0.00    +0.000 C 
ATOM      7  C   UNL     1       0.195   9.999  20.910  0.00  0.00    +0.000 C 
ATOM      8  C   UNL     1       1.033   9.180  19.966  0.00  0.00    +0.000 A 
ATOM      9  C   UNL     1       1.412   7.876  20.312  0.00  0.00    +0.000 A 
ATOM     10  C   UNL     1       2.129   7.083  19.410  0.00  0.00    +0.000 A 
ATOM     11  C   UNL     1       2.511   7.623  18.188  0.00  0.00    +0.000 A 
ATOM     12  F   UNL     1       3.253   6.931  17.317  0.00  0.00    +0.000 F 
ATOM     13  C   UNL     1       2.103   8.904  17.814  0.00  0.00    +0.000 A 
ATOM     14  C   UNL     1       1.346   9.671  18.696  0.00  0.00    +0.000 A 
ATOM     15  N   UNL     1       0.837  10.906  18.285  0.00  0.00    +0.000 N 
ATOM     16  H   UNL     1       0.889  11.181  17.312  0.00  0.00    +0.000 HD
ENDBRANCH   1  10
BRANCH   1  17
ATOM     17  N   UNL     1       2.853   4.577  18.478  0.00  0.00    +0.000 NA
ATOM     18  C   UNL     1       1.731   3.997  17.735  0.00  0.00    +0.000 C 
ATOM     19  C   UNL     1       1.990   2.506  17.771  0.00  0.00    +0.000 C 
ATOM     20  C   UNL     1       3.503   2.373  17.821  0.00  0.00    +0.000 C 
ATOM     21  C   UNL     1       4.058   3.737  18.299  0.00  0.00    +0.000 C 
BRANCH  21  22
ATOM     22  C   UNL     1       5.043   4.285  17.269  0.00  0.00    +0.000 A 
ATOM     23  C   UNL     1       5.259   3.662  16.028  0.00  0.00    +0.000 A 
ATOM     24  C   UNL     1       6.247   4.123  15.152  0.00  0.00    +0.000 A 
ATOM     25  C   UNL     1       7.031   5.223  15.497  0.00  0.00    +0.000 A 
ATOM     26  C   UNL     1       6.797   5.879  16.702  0.00  0.00    +0.000 A 
ATOM     27 CL   UNL     1       7.764   7.234  17.138  0.00  0.00    +0.000 Cl
ATOM     28  C   UNL     1       5.803   5.430  17.573  0.00  0.00    +0.000 A 
ENDBRANCH  21  22
ENDBRANCH   1  17
TORSDOF 3
ENDMDL
MODEL 7
REMARK VINA RESULT:      -7.8      3.431      6.656
REMARK  Name = 
REMARK  3 active torsions:
REMARK  status: ('A' for Active; 'I' for Inactive)
REMARK    1  A    between atoms: C_7  and  S_8
REMARK    2  A    between atoms: S_8  and  N_11
REMARK    3  A    between atoms: C_15  and  C_16
REMARK                            x       y       z     vdW  Elec       q    Type
REMARK                         _______ _______ _______ _____ _____    ______ ____
ROOT
ATOM      1  S   UNL     1       4.570   3.805  18.493  0.00  0.00    +0.000 S 
ATOM      2  O   UNL     1       5.024   3.104  19.678  0.00  0.00    +0.000 OA
ATOM      3  O   UNL     1       3.829   3.099  17.468  0.00  0.00    +0.000 OA
ENDROOT
BRANCH   1  10
ATOM      4  O   UNL     1       0.605  10.549  20.133  0.00  0.00    +0.000 OA
ATOM      5  C   UNL     1       1.040   9.530  19.601  0.00  0.00    +0.000 C 
ATOM      6  C   UNL     1       1.285   9.429  18.115  0.00  0.00    +0.000 C 
ATOM      7  C   UNL     1       2.503   8.583  17.786  0.00  0.00    +0.000 C 
ATOM      8  C   UNL     1       2.580   7.334  18.620  0.00  0.00    +0.000 A 
ATOM      9  C   UNL     1       3.408   6.274  18.227  0.00  0.00    +0.000 A 
ATOM     10  C   UNL     1       3.540   5.139  19.034  0.00  0.00    +0.000 A 
ATOM     11  C   UNL     1       2.797   5.050  20.205  0.00  0.00    +0.000 A 
ATOM     12  F   UNL     1       2.836   3.960  20.979  0.00  0.00    +0.000 F 
ATOM     13  C   UNL     1       2.003   6.115  20.630  0.00  0.00    +0.000 A 
ATOM     14  C   UNL     1       1.914   7.264  19.846  0.00  0.00    +0.000 A 
ATOM     15  N   UNL     1       1.215   8.377  20.320  0.00  0.00    +0.000 N 
ATOM     16  H   UNL     1       0.898   8.411  21.281  0.00  0.00    +0.000 HD
ENDBRANCH   1  10
BRANCH   1  17
ATOM     17  N   UNL     1       5.898   4.492  17.732  0.00  0.00    +0.000 NA
ATOM     18  C   UNL     1       7.174   4.680  18.428  0.00  0.00    +0.000 C 
ATOM     19  C   UNL     1       7.385   6.179  18.423  0.00  0.00    +0.000 C 
ATOM     20  C   UNL     1       6.707   6.664  17.152  0.00  0.00    +0.000 C 
ATOM     21  C   UNL     1       5.724   5.552  16.715  0.00  0.00    +0.000 C 
BRANCH  21  22
ATOM     22  C   UNL     1       6.051   5.100  15.293  0.00  0.00    +0.000 A 
ATOM     23  C   UNL     1       5.326   4.090  14.639  0.00  0.00    +0.000 A 
ATOM     24  C   UNL     1       5.718   3.621  13.381  0.00  0.00    +0.000 A 
ATOM     25  C   UNL     1       6.837   4.161  12.749  0.00  0.00    +0.000 A 
ATOM     26  C   UNL     1       7.537   5.194  13.364  0.00  0.00    +0.000 A 
ATOM     27 CL   UNL     1       8.924   5.862  12.595  0.00  0.00    +0.000 Cl
ATOM     28  C   UNL     1       7.141   5.675  14.614  0.00  0.00    +0.000 A 
ENDBRANCH  21  22
ENDBRANCH   1  17
TORSDOF 3
ENDMDL
MODEL 8
REMARK VINA RESULT:      -7.8      3.903      6.684
REMARK  Name = 
REMARK  3 active torsions:
REMARK  status: ('A' for Active; 'I' for Inactive)
REMARK    1  A    between atoms: C_7  and  S_8
REMARK    2  A    between atoms: S_8  and  N_11
REMARK    3  A    between atoms: C_15  and  C_16
REMARK                            x       y       z     vdW  Elec       q    Type
REMARK                         _______ _______ _______ _____ _____    ______ ____
ROOT
ATOM      1  S   UNL     1       2.030   4.859  20.177  0.00  0.00    +0.000 S 
ATOM      2  O   UNL     1       2.937   4.752  21.303  0.00  0.00    +0.000 OA
ATOM      3  O   UNL     1       0.702   4.284  20.255  0.00  0.00    +0.000 OA
ENDROOT
BRANCH   1  10
ATOM      4  O   UNL     1       0.121  12.592  19.515  0.00  0.00    +0.000 OA
ATOM      5  C   UNL     1       0.547  11.506  19.901  0.00  0.00    +0.000 C 
ATOM      6  C   UNL     1       0.545  11.102  21.354  0.00  0.00    +0.000 C 
ATOM      7  C   UNL     1       0.274   9.618  21.542  0.00  0.00    +0.000 C 
ATOM      8  C   UNL     1       1.021   8.766  20.553  0.00  0.00    +0.000 A 
ATOM      9  C   UNL     1       1.184   7.394  20.786  0.00  0.00    +0.000 A 
ATOM     10  C   UNL     1       1.815   6.583  19.838  0.00  0.00    +0.000 A 
ATOM     11  C   UNL     1       2.329   7.163  18.685  0.00  0.00    +0.000 A 
ATOM     12  F   UNL     1       2.999   6.445  17.777  0.00  0.00    +0.000 F 
ATOM     13  C   UNL     1       2.137   8.519  18.420  0.00  0.00    +0.000 A 
ATOM     14  C   UNL     1       1.464   9.313  19.346  0.00  0.00    +0.000 A 
ATOM     15  N   UNL     1       1.167  10.643  19.036  0.00  0.00    +0.000 N 
ATOM     16  H   UNL     1       1.304  10.992  18.096  0.00  0.00    +0.000 HD
ENDBRANCH   1  10
BRANCH   1  17
ATOM     17  N   UNL     1       2.763   4.184  18.828  0.00  0.00    +0.000 NA
ATOM     18  C   UNL     1       1.980   3.584  17.744  0.00  0.00    +0.000 C 
ATOM     19  C   UNL     1       2.411   2.133  17.731  0.00  0.00    +0.000 C 
ATOM     20  C   UNL     1       3.853   2.149  18.211  0.00  0.00    +0.000 C 
ATOM     21  C   UNL     1       4.069   3.496  18.940  0.00  0.00    +0.000 C 
BRANCH  21  22
ATOM     22  C   UNL     1       5.223   4.258  18.292  0.00  0.00    +0.000 A 
ATOM     23  C   UNL     1       6.010   5.180  19.003  0.00  0.00    +0.000 A 
ATOM     24  C   UNL     1       6.987   5.943  18.356  0.00  0.00    +0.000 A 
ATOM     25  C   UNL     1       7.202   5.791  16.988  0.00  0.00    +0.000 A 
ATOM     26  C   UNL     1       6.462   4.850  16.280  0.00  0.00    +0.000 A 
ATOM     27 CL   UNL     1       6.717   4.660  14.588  0.00  0.00    +0.000 Cl
ATOM     28  C   UNL     1       5.495   4.076  16.924  0.00  0.00    +0.000 A 
ENDBRANCH  21  22
ENDBRANCH   1  17
TORSDOF 3
ENDMDL
MODEL 9
REMARK VINA RESULT:      -7.6      1.509      1.965
REMARK  Name = 
REMARK  3 active torsions:
REMARK  status: ('A' for Active; 'I' for Inactive)
REMARK    1  A    between atoms: C_7  and  S_8
REMARK    2  A    between atoms: S_8  and  N_11
REMARK    3  A    between atoms: C_15  and  C_16
REMARK                            x       y       z     vdW  Elec       q    Type
REMARK                         _______ _______ _______ _____ _____    ______ ____
ROOT
ATOM      1  S   UNL     1       5.055   4.419  19.239  0.00  0.00    +0.000 S 
ATOM      2  O   UNL     1       5.283   3.026  19.572  0.00  0.00    +0.000 OA
ATOM      3  O   UNL     1       5.599   5.466  20.080  0.00  0.00    +0.000 OA
ENDROOT
BRANCH   1  10
ATOM      4  O   UNL     1       7.587   4.430  11.658  0.00  0.00    +0.000 OA
ATOM      5  C   UNL     1       6.903   4.462  12.678  0.00  0.00    +0.000 C 
ATOM      6  C   UNL     1       5.533   3.836  12.759  0.00  0.00    +0.000 C 
ATOM      7  C   UNL     1       5.251   3.233  14.125  0.00  0.00    +0.000 C 
ATOM      8  C   UNL     1       5.711   4.118  15.251  0.00  0.00    +0.000 A 
ATOM      9  C   UNL     1       5.229   3.912  16.551  0.00  0.00    +0.000 A 
ATOM     10  C   UNL     1       5.707   4.684  17.615  0.00  0.00    +0.000 A 
ATOM     11  C   UNL     1       6.625   5.695  17.361  0.00  0.00    +0.000 A 
ATOM     12  F   UNL     1       7.064   6.505  18.330  0.00  0.00    +0.000 F 
ATOM     13  C   UNL     1       7.145   5.882  16.080  0.00  0.00    +0.000 A 
ATOM     14  C   UNL     1       6.703   5.078  15.032  0.00  0.00    +0.000 A 
ATOM     15  N   UNL     1       7.302   5.181  13.774  0.00  0.00    +0.000 N 
ATOM     16  H   UNL     1       8.147   5.726  13.653  0.00  0.00    +0.000 HD
ENDBRANCH   1  10
BRANCH   1  17
ATOM     17  N   UNL     1       3.402   4.688  19.151  0.00  0.00    +0.000 NA
ATOM     18  C   UNL     1       2.433   3.687  19.605  0.00  0.00    +0.000 C 
ATOM     19  C   UNL     1       1.647   3.337  18.359  0.00  0.00    +0.000 C 
ATOM     20  C   UNL     1       1.656   4.606  17.522  0.00  0.00    +0.000 C 
ATOM     21  C   UNL     1       2.821   5.481  18.045  0.00  0.00    +0.000 C 
BRANCH  21  22
ATOM     22  C   UNL     1       2.291   6.846  18.477  0.00  0.00    +0.000 A 
ATOM     23  C   UNL     1       2.133   7.912  17.576  0.00  0.00    +0.000 A 
ATOM     24  C   UNL     1       1.752   9.182  18.021  0.00  0.00    +0.000 A 
ATOM     25  C   UNL     1       1.512   9.407  19.375  0.00  0.00    +0.000 A 
ATOM     26  C   UNL     1       1.620   8.350  20.273  0.00  0.00    +0.000 A 
ATOM     27 CL   UNL     1       1.333   8.620  21.948  0.00  0.00    +0.000 Cl
ATOM     28  C   UNL     1       1.987   7.077  19.832  0.00  0.00    +0.000 A 
ENDBRANCH  21  22
ENDBRANCH   1  17
TORSDOF 3
ENDMDL
