MODEL 1
REMARK VINA RESULT:      -9.5      0.000      0.000
REMARK  Name = 
REMARK  2 active torsions:
REMARK  status: ('A' for Active; 'I' for Inactive)
REMARK    1  A    between atoms: C_2  and  C_3
REMARK    2  A    between atoms: C_16  and  C_17
REMARK                            x       y       z     vdW  Elec       q    Type
REMARK                         _______ _______ _______ _____ _____    ______ ____
ROOT
ATOM      1  O   UNL     1       1.618   7.006  21.330  0.00  0.00    +0.000 OA
ATOM      2  C   UNL     1       1.726   7.572  20.238  0.00  0.00    +0.000 C 
ATOM      3  N   UNL     1       1.094   8.800  20.057  0.00  0.00    +0.000 N 
ATOM      4  C   UNL     1       1.007   9.555  18.813  0.00  0.00    +0.000 C 
ATOM      5  C   UNL     1       0.139  10.791  19.022  0.00  0.00    +0.000 C 
ATOM      6  C   UNL     1       0.040  10.833  20.539  0.00  0.00    +0.000 C 
ATOM      7  C   UNL     1      -1.111  11.596  21.159  0.00  0.00    +0.000 C 
ATOM      8  C   UNL     1      -0.954  11.553  22.677  0.00  0.00    +0.000 C 
ATOM      9  C   UNL     1      -0.818  10.114  23.192  0.00  0.00    +0.000 C 
ATOM     10  C   UNL     1       0.321   9.333  22.505  0.00  0.00    +0.000 C 
ATOM     11  C   UNL     1       0.110   9.362  20.990  0.00  0.00    +0.000 C 
ENDROOT
BRANCH   2  12
ATOM     12  C   UNL     1       2.558   6.885  19.118  0.00  0.00    +0.000 A 
ATOM     13  C   UNL     1       3.464   7.547  18.371  0.00  0.00    +0.000 A 
ATOM     14  N   UNL     1       4.190   7.027  17.345  0.00  0.00    +0.000 N 
ATOM     15  C   UNL     1       4.110   5.742  16.920  0.00  0.00    +0.000 A 
ATOM     16  O   UNL     1       4.781   5.337  15.985  0.00  0.00    +0.000 OA
ATOM     17  C   UNL     1       3.161   4.896  17.667  0.00  0.00    +0.000 A 
ATOM     18  C   UNL     1       3.069   3.562  17.253  0.00  0.00    +0.000 A 
ATOM     19  C   UNL     1       2.194   2.706  17.895  0.00  0.00    +0.000 A 
ATOM     20  C   UNL     1       1.424   3.187  18.949  0.00  0.00    +0.000 A 
ATOM     21  C   UNL     1       1.523   4.527  19.363  0.00  0.00    +0.000 A 
ATOM     22  C   UNL     1       2.396   5.429  18.733  0.00  0.00    +0.000 A 
ATOM     23  H   UNL     1       4.832   7.619  16.825  0.00  0.00    +0.000 HD
ENDBRANCH   2  12
BRANCH   5  24
ATOM     24  C   UNL     1      -1.118  10.750  18.179  0.00  0.00    +0.000 A 
ATOM     25  C   UNL     1      -2.150  11.692  18.290  0.00  0.00    +0.000 A 
ATOM     26  C   UNL     1      -3.285  11.608  17.482  0.00  0.00    +0.000 A 
ATOM     27  C   UNL     1      -3.415  10.566  16.567  0.00  0.00    +0.000 A 
ATOM     28  C   UNL     1      -2.422   9.596  16.477  0.00  0.00    +0.000 A 
ATOM     29  C   UNL     1      -1.286   9.684  17.281  0.00  0.00    +0.000 A 
ENDBRANCH   5  24
TORSDOF 2
ENDMDL
MODEL 2
REMARK VINA RESULT:      -9.3      1.974      7.558
REMARK  Name = 
REMARK  2 active torsions:
REMARK  status: ('A' for Active; 'I' for Inactive)
REMARK    1  A    between atoms: C_2  and  C_3
REMARK    2  A    between atoms: C_16  and  C_17
REMARK                            x       y       z     vdW  Elec       q    Type
REMARK                         _______ _______ _______ _____ _____    ______ ____
ROOT
ATOM      1  O   UNL     1       2.256   9.320  17.058  0.00  0.00    +0.000 OA
ATOM      2  C   UNL     1       1.977   8.928  18.196  0.00  0.00    +0.000 C 
ATOM      3  N   UNL     1       2.593   7.773  18.674  0.00  0.00    +0.000 N 
ATOM      4  C   UNL     1       2.306   7.094  19.931  0.00  0.00    +0.000 C 
ATOM      5  C   UNL     1       3.125   5.811  20.021  0.00  0.00    +0.000 C 
ATOM      6  C   UNL     1       4.120   6.013  18.889  0.00  0.00    +0.000 C 
ATOM      7  C   UNL     1       4.799   4.791  18.308  0.00  0.00    +0.000 C 
ATOM      8  C   UNL     1       5.795   5.253  17.247  0.00  0.00    +0.000 C 
ATOM      9  C   UNL     1       5.127   6.146  16.194  0.00  0.00    +0.000 C 
ATOM     10  C   UNL     1       4.388   7.353  16.809  0.00  0.00    +0.000 C 
ATOM     11  C   UNL     1       3.371   6.852  17.836  0.00  0.00    +0.000 C 
ENDROOT
BRANCH   2  12
ATOM     12  C   UNL     1       0.951   9.738  19.037  0.00  0.00    +0.000 A 
ATOM     13  C   UNL     1       1.200  10.147  20.297  0.00  0.00    +0.000 A 
ATOM     14  N   UNL     1       0.337  10.815  21.109  0.00  0.00    +0.000 N 
ATOM     15  C   UNL     1      -0.923  11.175  20.760  0.00  0.00    +0.000 A 
ATOM     16  O   UNL     1      -1.655  11.764  21.538  0.00  0.00    +0.000 OA
ATOM     17  C   UNL     1      -1.323  10.801  19.391  0.00  0.00    +0.000 A 
ATOM     18  C   UNL     1      -2.616  11.173  19.005  0.00  0.00    +0.000 A 
ATOM     19  C   UNL     1      -3.072  10.848  17.740  0.00  0.00    +0.000 A 
ATOM     20  C   UNL     1      -2.230  10.163  16.870  0.00  0.00    +0.000 A 
ATOM     21  C   UNL     1      -0.930   9.795  17.262  0.00  0.00    +0.000 A 
ATOM     22  C   UNL     1      -0.433  10.101  18.539  0.00  0.00    +0.000 A 
ATOM     23  H   UNL     1       0.613  11.057  22.055  0.00  0.00    +0.000 HD
ENDBRANCH   2  12
BRANCH   5  24
ATOM     24  C   UNL     1       2.247   4.578  20.050  0.00  0.00    +0.000 A 
ATOM     25  C   UNL     1       1.502   4.138  18.947  0.00  0.00    +0.000 A 
ATOM     26  C   UNL     1       0.713   2.989  19.030  0.00  0.00    +0.000 A 
ATOM     27  C   UNL     1       0.640   2.276  20.224  0.00  0.00    +0.000 A 
ATOM     28  C   UNL     1       1.335   2.726  21.342  0.00  0.00    +0.000 A 
ATOM     29  C   UNL     1       2.128   3.870  21.257  0.00  0.00    +0.000 A 
ENDBRANCH   5  24
TORSDOF 2
ENDMDL
MODEL 3
REMARK VINA RESULT:      -9.2      2.629      7.605
REMARK  Name = 
REMARK  2 active torsions:
REMARK  status: ('A' for Active; 'I' for Inactive)
REMARK    1  A    between atoms: C_2  and  C_3
REMARK    2  A    between atoms: C_16  and  C_17
REMARK                            x       y       z     vdW  Elec       q    Type
REMARK                         _______ _______ _______ _____ _____    ______ ____
ROOT
ATOM      1  O   UNL     1       1.096   7.063  21.298  0.00  0.00    +0.000 OA
ATOM      2  C   UNL     1       1.517   7.322  20.166  0.00  0.00    +0.000 C 
ATOM      3  N   UNL     1       2.022   6.284  19.387  0.00  0.00    +0.000 N 
ATOM      4  C   UNL     1       2.668   6.410  18.087  0.00  0.00    +0.000 C 
ATOM      5  C   UNL     1       3.169   5.045  17.627  0.00  0.00    +0.000 C 
ATOM      6  C   UNL     1       2.457   4.122  18.603  0.00  0.00    +0.000 C 
ATOM      7  C   UNL     1       3.030   2.739  18.827  0.00  0.00    +0.000 C 
ATOM      8  C   UNL     1       2.109   1.986  19.783  0.00  0.00    +0.000 C 
ATOM      9  C   UNL     1       1.871   2.772  21.078  0.00  0.00    +0.000 C 
ATOM     10  C   UNL     1       1.344   4.200  20.828  0.00  0.00    +0.000 C 
ATOM     11  C   UNL     1       2.311   4.939  19.901  0.00  0.00    +0.000 C 
ENDROOT
BRANCH   2  12
ATOM     12  C   UNL     1       1.467   8.794  19.668  0.00  0.00    +0.000 A 
ATOM     13  C   UNL     1       2.031   9.193  18.511  0.00  0.00    +0.000 A 
ATOM     14  N   UNL     1       2.071  10.467  18.035  0.00  0.00    +0.000 N 
ATOM     15  C   UNL     1       1.535  11.541  18.667  0.00  0.00    +0.000 A 
ATOM     16  O   UNL     1       1.613  12.662  18.194  0.00  0.00    +0.000 OA
ATOM     17  C   UNL     1       0.867  11.242  19.947  0.00  0.00    +0.000 A 
ATOM     18  C   UNL     1       0.297  12.333  20.612  0.00  0.00    +0.000 A 
ATOM     19  C   UNL     1      -0.338  12.138  21.825  0.00  0.00    +0.000 A 
ATOM     20  C   UNL     1      -0.405  10.855  22.358  0.00  0.00    +0.000 A 
ATOM     21  C   UNL     1       0.167   9.762  21.684  0.00  0.00    +0.000 A 
ATOM     22  C   UNL     1       0.825   9.919  20.454  0.00  0.00    +0.000 A 
ATOM     23  H   UNL     1       2.545  10.668  17.160  0.00  0.00    +0.000 HD
ENDBRANCH   2  12
BRANCH   5  24
ATOM     24  C   UNL     1       4.678   5.006  17.507  0.00  0.00    +0.000 A 
ATOM     25  C   UNL     1       5.542   5.507  18.492  0.00  0.00    +0.000 A 
ATOM     26  C   UNL     1       6.926   5.437  18.330  0.00  0.00    +0.000 A 
ATOM     27  C   UNL     1       7.468   4.887  17.171  0.00  0.00    +0.000 A 
ATOM     28  C   UNL     1       6.625   4.429  16.163  0.00  0.00    +0.000 A 
ATOM     29  C   UNL     1       5.242   4.492  16.328  0.00  0.00    +0.000 A 
ENDBRANCH   5  24
TORSDOF 2
ENDMDL
MODEL 4
REMARK VINA RESULT:      -9.1      3.067      6.162
REMARK  Name = 
REMARK  2 active torsions:
REMARK  status: ('A' for Active; 'I' for Inactive)
REMARK    1  A    between atoms: C_2  and  C_3
REMARK    2  A    between atoms: C_16  and  C_17
REMARK                            x       y       z     vdW  Elec       q    Type
REMARK                         _______ _______ _______ _____ _____    ______ ____
ROOT
ATOM      1  O   UNL     1       3.897   2.676  16.301  0.00  0.00    +0.000 OA
ATOM      2  C   UNL     1       4.420   3.749  16.621  0.00  0.00    +0.000 C 
ATOM      3  N   UNL     1       3.930   4.423  17.737  0.00  0.00    +0.000 N 
ATOM      4  C   UNL     1       4.333   5.747  18.196  0.00  0.00    +0.000 C 
ATOM      5  C   UNL     1       3.479   6.160  19.390  0.00  0.00    +0.000 C 
ATOM      6  C   UNL     1       2.820   4.838  19.755  0.00  0.00    +0.000 C 
ATOM      7  C   UNL     1       1.539   4.878  20.560  0.00  0.00    +0.000 C 
ATOM      8  C   UNL     1       1.115   3.442  20.859  0.00  0.00    +0.000 C 
ATOM      9  C   UNL     1       1.014   2.602  19.580  0.00  0.00    +0.000 C 
ATOM     10  C   UNL     1       2.309   2.623  18.741  0.00  0.00    +0.000 C 
ATOM     11  C   UNL     1       2.682   4.073  18.425  0.00  0.00    +0.000 C 
ENDROOT
BRANCH   2  12
ATOM     12  C   UNL     1       5.594   4.295  15.761  0.00  0.00    +0.000 A 
ATOM     13  C   UNL     1       6.554   5.098  16.261  0.00  0.00    +0.000 A 
ATOM     14  N   UNL     1       7.580   5.653  15.562  0.00  0.00    +0.000 N 
ATOM     15  C   UNL     1       7.792   5.472  14.234  0.00  0.00    +0.000 A 
ATOM     16  O   UNL     1       8.726   6.006  13.660  0.00  0.00    +0.000 OA
ATOM     17  C   UNL     1       6.817   4.595  13.560  0.00  0.00    +0.000 A 
ATOM     18  C   UNL     1       7.022   4.384  12.192  0.00  0.00    +0.000 A 
ATOM     19  C   UNL     1       6.145   3.584  11.484  0.00  0.00    +0.000 A 
ATOM     20  C   UNL     1       5.076   2.994  12.151  0.00  0.00    +0.000 A 
ATOM     21  C   UNL     1       4.876   3.206  13.527  0.00  0.00    +0.000 A 
ATOM     22  C   UNL     1       5.741   4.017  14.279  0.00  0.00    +0.000 A 
ATOM     23  H   UNL     1       8.240   6.267  16.028  0.00  0.00    +0.000 HD
ENDBRANCH   2  12
BRANCH   5  24
ATOM     24  C   UNL     1       2.628   7.374  19.086  0.00  0.00    +0.000 A 
ATOM     25  C   UNL     1       2.586   7.989  17.826  0.00  0.00    +0.000 A 
ATOM     26  C   UNL     1       1.777   9.104  17.602  0.00  0.00    +0.000 A 
ATOM     27  C   UNL     1       1.016   9.635  18.640  0.00  0.00    +0.000 A 
ATOM     28  C   UNL     1       1.083   9.067  19.908  0.00  0.00    +0.000 A 
ATOM     29  C   UNL     1       1.886   7.949  20.130  0.00  0.00    +0.000 A 
ENDBRANCH   5  24
TORSDOF 2
ENDMDL
MODEL 5
REMARK VINA RESULT:      -9.1      2.498      7.692
REMARK  Name = 
REMARK  2 active torsions:
REMARK  status: ('A' for Active; 'I' for Inactive)
REMARK    1  A    between atoms: C_2  and  C_3
REMARK    2  A    between atoms: C_16  and  C_17
REMARK                            x       y       z     vdW  Elec       q    Type
REMARK                         _______ _______ _______ _____ _____    ______ ____
ROOT
ATOM      1  O   UNL     1       0.835   7.025  21.354  0.00  0.00    +0.000 OA
ATOM      2  C   UNL     1       1.373   7.446  20.325  0.00  0.00    +0.000 C 
ATOM      3  N   UNL     1       2.201   6.588  19.605  0.00  0.00    +0.000 N 
ATOM      4  C   UNL     1       3.011   6.935  18.444  0.00  0.00    +0.000 C 
ATOM      5  C   UNL     1       3.849   5.733  18.023  0.00  0.00    +0.000 C 
ATOM      6  C   UNL     1       3.191   4.618  18.821  0.00  0.00    +0.000 C 
ATOM      7  C   UNL     1       3.991   3.360  19.084  0.00  0.00    +0.000 C 
ATOM      8  C   UNL     1       3.100   2.372  19.832  0.00  0.00    +0.000 C 
ATOM      9  C   UNL     1       2.498   2.996  21.097  0.00  0.00    +0.000 C 
ATOM     10  C   UNL     1       1.738   4.309  20.818  0.00  0.00    +0.000 C 
ATOM     11  C   UNL     1       2.671   5.291  20.105  0.00  0.00    +0.000 C 
ENDROOT
BRANCH   2  12
ATOM     12  C   UNL     1       1.105   8.914  19.887  0.00  0.00    +0.000 A 
ATOM     13  C   UNL     1       1.475   9.396  18.684  0.00  0.00    +0.000 A 
ATOM     14  N   UNL     1       1.319  10.676  18.251  0.00  0.00    +0.000 N 
ATOM     15  C   UNL     1       0.755  11.671  18.980  0.00  0.00    +0.000 A 
ATOM     16  O   UNL     1       0.653  12.804  18.539  0.00  0.00    +0.000 OA
ATOM     17  C   UNL     1       0.288  11.274  20.321  0.00  0.00    +0.000 A 
ATOM     18  C   UNL     1      -0.308  12.282  21.087  0.00  0.00    +0.000 A 
ATOM     19  C   UNL     1      -0.762  11.994  22.361  0.00  0.00    +0.000 A 
ATOM     20  C   UNL     1      -0.624  10.701  22.855  0.00  0.00    +0.000 A 
ATOM     21  C   UNL     1      -0.028   9.691  22.079  0.00  0.00    +0.000 A 
ATOM     22  C   UNL     1       0.451   9.945  20.783  0.00  0.00    +0.000 A 
ATOM     23  H   UNL     1       1.655  10.946  17.331  0.00  0.00    +0.000 HD
ENDBRANCH   2  12
BRANCH   5  24
ATOM     24  C   UNL     1       5.332   5.997  18.168  0.00  0.00    +0.000 A 
ATOM     25  C   UNL     1       6.120   5.428  19.179  0.00  0.00    +0.000 A 
ATOM     26  C   UNL     1       7.486   5.703  19.260  0.00  0.00    +0.000 A 
ATOM     27  C   UNL     1       8.080   6.569  18.345  0.00  0.00    +0.000 A 
ATOM     28  C   UNL     1       7.304   7.179  17.365  0.00  0.00    +0.000 A 
ATOM     29  C   UNL     1       5.941   6.900  17.281  0.00  0.00    +0.000 A 
ENDBRANCH   5  24
TORSDOF 2
ENDMDL
MODEL 6
REMARK VINA RESULT:      -9.0      2.499      7.550
REMARK  Name = 
REMARK  2 active torsions:
REMARK  status: ('A' for Active; 'I' for Inactive)
REMARK    1  A    between atoms: C_2  and  C_3
REMARK    2  A    between atoms: C_16  and  C_17
REMARK                            x       y       z     vdW  Elec       q    Type
REMARK                         _______ _______ _______ _____ _____    ______ ____
ROOT
ATOM      1  O   UNL     1       1.436   7.175  21.529  0.00  0.00    +0.000 OA
ATOM      2  C   UNL     1       1.617   7.451  20.339  0.00  0.00    +0.000 C 
ATOM      3  N   UNL     1       2.072   6.451  19.483  0.00  0.00    +0.000 N 
ATOM      4  C   UNL     1       2.456   6.613  18.086  0.00  0.00    +0.000 C 
ATOM      5  C   UNL     1       2.997   5.295  17.544  0.00  0.00    +0.000 C 
ATOM      6  C   UNL     1       2.569   4.327  18.636  0.00  0.00    +0.000 C 
ATOM      7  C   UNL     1       3.308   3.011  18.754  0.00  0.00    +0.000 C 
ATOM      8  C   UNL     1       2.656   2.191  19.864  0.00  0.00    +0.000 C 
ATOM      9  C   UNL     1       2.581   2.976  21.179  0.00  0.00    +0.000 C 
ATOM     10  C   UNL     1       1.878   4.341  21.027  0.00  0.00    +0.000 C 
ATOM     11  C   UNL     1       2.582   5.152  19.937  0.00  0.00    +0.000 C 
ENDROOT
BRANCH   2  12
ATOM     12  C   UNL     1       1.331   8.901  19.855  0.00  0.00    +0.000 A 
ATOM     13  C   UNL     1       1.754   9.370  18.664  0.00  0.00    +0.000 A 
ATOM     14  N   UNL     1       1.586  10.636  18.196  0.00  0.00    +0.000 N 
ATOM     15  C   UNL     1       0.953  11.628  18.871  0.00  0.00    +0.000 A 
ATOM     16  O   UNL     1       0.844  12.749  18.401  0.00  0.00    +0.000 OA
ATOM     17  C   UNL     1       0.423  11.244  20.192  0.00  0.00    +0.000 A 
ATOM     18  C   UNL     1      -0.244  12.249  20.903  0.00  0.00    +0.000 A 
ATOM     19  C   UNL     1      -0.760  11.972  22.155  0.00  0.00    +0.000 A 
ATOM     20  C   UNL     1      -0.613  10.694  22.683  0.00  0.00    +0.000 A 
ATOM     21  C   UNL     1       0.055   9.687  21.963  0.00  0.00    +0.000 A 
ATOM     22  C   UNL     1       0.598   9.929  20.691  0.00  0.00    +0.000 A 
ATOM     23  H   UNL     1       1.966  10.898  17.291  0.00  0.00    +0.000 HD
ENDBRANCH   2  12
BRANCH   5  24
ATOM     24  C   UNL     1       4.455   5.400  17.151  0.00  0.00    +0.000 A 
ATOM     25  C   UNL     1       5.050   4.585  16.177  0.00  0.00    +0.000 A 
ATOM     26  C   UNL     1       6.399   4.731  15.851  0.00  0.00    +0.000 A 
ATOM     27  C   UNL     1       7.179   5.679  16.509  0.00  0.00    +0.000 A 
ATOM     28  C   UNL     1       6.616   6.463  17.511  0.00  0.00    +0.000 A 
ATOM     29  C   UNL     1       5.267   6.321  17.832  0.00  0.00    +0.000 A 
ENDBRANCH   5  24
TORSDOF 2
ENDMDL
MODEL 7
REMARK VINA RESULT:      -8.5      2.548      7.902
REMARK  Name = 
REMARK  2 active torsions:
REMARK  status: ('A' for Active; 'I' for Inactive)
REMARK    1  A    between atoms: C_2  and  C_3
REMARK    2  A    between atoms: C_16  and  C_17
REMARK                            x       y       z     vdW  Elec       q    Type
REMARK                         _______ _______ _______ _____ _____    ______ ____
ROOT
ATOM      1  O   UNL     1       2.473   9.185  16.985  0.00  0.00    +0.000 OA
ATOM      2  C   UNL     1       2.236   8.809  18.137  0.00  0.00    +0.000 C 
ATOM      3  N   UNL     1       2.822   7.629  18.589  0.00  0.00    +0.000 N 
ATOM      4  C   UNL     1       2.570   6.967  19.863  0.00  0.00    +0.000 C 
ATOM      5  C   UNL     1       3.333   5.649  19.918  0.00  0.00    +0.000 C 
ATOM      6  C   UNL     1       4.277   5.802  18.735  0.00  0.00    +0.000 C 
ATOM      7  C   UNL     1       4.869   4.548  18.127  0.00  0.00    +0.000 C 
ATOM      8  C   UNL     1       5.829   4.961  17.014  0.00  0.00    +0.000 C 
ATOM      9  C   UNL     1       5.149   5.880  15.992  0.00  0.00    +0.000 C 
ATOM     10  C   UNL     1       4.498   7.122  16.637  0.00  0.00    +0.000 C 
ATOM     11  C   UNL     1       3.514   6.671  17.718  0.00  0.00    +0.000 C 
ENDROOT
BRANCH   2  12
ATOM     12  C   UNL     1       1.292   9.668  19.025  0.00  0.00    +0.000 A 
ATOM     13  C   UNL     1       0.352   9.128  19.827  0.00  0.00    +0.000 A 
ATOM     14  N   UNL     1      -0.539   9.814  20.592  0.00  0.00    +0.000 N 
ATOM     15  C   UNL     1      -0.610  11.167  20.663  0.00  0.00    +0.000 A 
ATOM     16  O   UNL     1      -1.441  11.725  21.361  0.00  0.00    +0.000 OA
ATOM     17  C   UNL     1       0.380  11.888  19.842  0.00  0.00    +0.000 A 
ATOM     18  C   UNL     1       0.333  13.285  19.909  0.00  0.00    +0.000 A 
ATOM     19  C   UNL     1       1.220  14.035  19.159  0.00  0.00    +0.000 A 
ATOM     20  C   UNL     1       2.151  13.384  18.357  0.00  0.00    +0.000 A 
ATOM     21  C   UNL     1       2.196  11.979  18.296  0.00  0.00    +0.000 A 
ATOM     22  C   UNL     1       1.309  11.182  19.037  0.00  0.00    +0.000 A 
ATOM     23  H   UNL     1      -1.228   9.312  21.144  0.00  0.00    +0.000 HD
ENDBRANCH   2  12
BRANCH   5  24
ATOM     24  C   UNL     1       2.403   4.458  19.999  0.00  0.00    +0.000 A 
ATOM     25  C   UNL     1       1.629   4.011  18.918  0.00  0.00    +0.000 A 
ATOM     26  C   UNL     1       0.792   2.902  19.049  0.00  0.00    +0.000 A 
ATOM     27  C   UNL     1       0.700   2.236  20.268  0.00  0.00    +0.000 A 
ATOM     28  C   UNL     1       1.424   2.695  21.364  0.00  0.00    +0.000 A 
ATOM     29  C   UNL     1       2.265   3.799  21.231  0.00  0.00    +0.000 A 
ENDBRANCH   5  24
TORSDOF 2
ENDMDL
MODEL 8
REMARK VINA RESULT:      -8.2      1.977      7.854
REMARK  Name = 
REMARK  2 active torsions:
REMARK  status: ('A' for Active; 'I' for Inactive)
REMARK    1  A    between atoms: C_2  and  C_3
REMARK    2  A    between atoms: C_16  and  C_17
REMARK                            x       y       z     vdW  Elec       q    Type
REMARK                         _______ _______ _______ _____ _____    ______ ____
ROOT
ATOM      1  O   UNL     1       2.331   9.177  17.546  0.00  0.00    +0.000 OA
ATOM      2  C   UNL     1       2.256   8.502  18.577  0.00  0.00    +0.000 C 
ATOM      3  N   UNL     1       2.968   7.306  18.646  0.00  0.00    +0.000 N 
ATOM      4  C   UNL     1       2.910   6.323  19.721  0.00  0.00    +0.000 C 
ATOM      5  C   UNL     1       3.760   5.112  19.357  0.00  0.00    +0.000 C 
ATOM      6  C   UNL     1       4.547   5.646  18.169  0.00  0.00    +0.000 C 
ATOM      7  C   UNL     1       5.145   4.648  17.201  0.00  0.00    +0.000 C 
ATOM      8  C   UNL     1       5.938   5.417  16.148  0.00  0.00    +0.000 C 
ATOM      9  C   UNL     1       5.085   6.497  15.471  0.00  0.00    +0.000 C 
ATOM     10  C   UNL     1       4.433   7.468  16.478  0.00  0.00    +0.000 C 
ATOM     11  C   UNL     1       3.614   6.669  17.493  0.00  0.00    +0.000 C 
ENDROOT
BRANCH   2  12
ATOM     12  C   UNL     1       1.368   9.016  19.745  0.00  0.00    +0.000 A 
ATOM     13  C   UNL     1       1.466   8.539  21.002  0.00  0.00    +0.000 A 
ATOM     14  N   UNL     1       0.693   8.903  22.061  0.00  0.00    +0.000 N 
ATOM     15  C   UNL     1      -0.305   9.819  22.005  0.00  0.00    +0.000 A 
ATOM     16  O   UNL     1      -0.971  10.096  22.988  0.00  0.00    +0.000 OA
ATOM     17  C   UNL     1      -0.511  10.437  20.682  0.00  0.00    +0.000 A 
ATOM     18  C   UNL     1      -1.529  11.395  20.602  0.00  0.00    +0.000 A 
ATOM     19  C   UNL     1      -1.793  12.012  19.394  0.00  0.00    +0.000 A 
ATOM     20  C   UNL     1      -1.034  11.675  18.278  0.00  0.00    +0.000 A 
ATOM     21  C   UNL     1      -0.010  10.714  18.365  0.00  0.00    +0.000 A 
ATOM     22  C   UNL     1       0.285  10.060  19.572  0.00  0.00    +0.000 A 
ATOM     23  H   UNL     1       0.831   8.463  22.966  0.00  0.00    +0.000 HD
ENDBRANCH   2  12
BRANCH   5  24
ATOM     24  C   UNL     1       2.926   3.857  19.212  0.00  0.00    +0.000 A 
ATOM     25  C   UNL     1       3.478   2.570  19.135  0.00  0.00    +0.000 A 
ATOM     26  C   UNL     1       2.659   1.447  19.008  0.00  0.00    +0.000 A 
ATOM     27  C   UNL     1       1.276   1.596  18.934  0.00  0.00    +0.000 A 
ATOM     28  C   UNL     1       0.715   2.869  18.961  0.00  0.00    +0.000 A 
ATOM     29  C   UNL     1       1.533   3.990  19.094  0.00  0.00    +0.000 A 
ENDBRANCH   5  24
TORSDOF 2
ENDMDL
MODEL 9
REMARK VINA RESULT:      -8.1      2.123      7.418
REMARK  Name = 
REMARK  2 active torsions:
REMARK  status: ('A' for Active; 'I' for Inactive)
REMARK    1  A    between atoms: C_2  and  C_3
REMARK    2  A    between atoms: C_16  and  C_17
REMARK                            x       y       z     vdW  Elec       q    Type
REMARK                         _______ _______ _______ _____ _____    ______ ____
ROOT
ATOM      1  O   UNL     1       2.780   9.101  17.014  0.00  0.00    +0.000 OA
ATOM      2  C   UNL     1       2.238   8.682  18.041  0.00  0.00    +0.000 C 
ATOM      3  N   UNL     1       2.756   7.543  18.653  0.00  0.00    +0.000 N 
ATOM      4  C   UNL     1       2.187   6.835  19.792  0.00  0.00    +0.000 C 
ATOM      5  C   UNL     1       3.004   5.581  20.080  0.00  0.00    +0.000 C 
ATOM      6  C   UNL     1       4.245   5.835  19.238  0.00  0.00    +0.000 C 
ATOM      7  C   UNL     1       5.095   4.647  18.842  0.00  0.00    +0.000 C 
ATOM      8  C   UNL     1       6.308   5.160  18.071  0.00  0.00    +0.000 C 
ATOM      9  C   UNL     1       5.896   6.044  16.888  0.00  0.00    +0.000 C 
ATOM     10  C   UNL     1       4.980   7.215  17.302  0.00  0.00    +0.000 C 
ATOM     11  C   UNL     1       3.755   6.663  18.035  0.00  0.00    +0.000 C 
ENDROOT
BRANCH   2  12
ATOM     12  C   UNL     1       1.003   9.443  18.599  0.00  0.00    +0.000 A 
ATOM     13  C   UNL     1       0.107  10.064  17.805  0.00  0.00    +0.000 A 
ATOM     14  N   UNL     1      -0.967  10.788  18.221  0.00  0.00    +0.000 N 
ATOM     15  C   UNL     1      -1.301  10.991  19.520  0.00  0.00    +0.000 A 
ATOM     16  O   UNL     1      -2.272  11.661  19.830  0.00  0.00    +0.000 OA
ATOM     17  C   UNL     1      -0.408  10.349  20.502  0.00  0.00    +0.000 A 
ATOM     18  C   UNL     1      -0.740  10.536  21.849  0.00  0.00    +0.000 A 
ATOM     19  C   UNL     1       0.055   9.976  22.832  0.00  0.00    +0.000 A 
ATOM     20  C   UNL     1       1.168   9.228  22.462  0.00  0.00    +0.000 A 
ATOM     21  C   UNL     1       1.494   9.041  21.107  0.00  0.00    +0.000 A 
ATOM     22  C   UNL     1       0.717   9.597  20.079  0.00  0.00    +0.000 A 
ATOM     23  H   UNL     1      -1.570  11.239  17.540  0.00  0.00    +0.000 HD
ENDBRANCH   2  12
BRANCH   5  24
ATOM     24  C   UNL     1       2.195   4.318  19.879  0.00  0.00    +0.000 A 
ATOM     25  C   UNL     1       1.620   3.960  18.651  0.00  0.00    +0.000 A 
ATOM     26  C   UNL     1       0.888   2.778  18.522  0.00  0.00    +0.000 A 
ATOM     27  C   UNL     1       0.701   1.948  19.625  0.00  0.00    +0.000 A 
ATOM     28  C   UNL     1       1.224   2.312  20.861  0.00  0.00    +0.000 A 
ATOM     29  C   UNL     1       1.960   3.490  20.988  0.00  0.00    +0.000 A 
ENDBRANCH   5  24
TORSDOF 2
ENDMDL
