MODEL 1
REMARK VINA RESULT:      -9.1      0.000      0.000
REMARK  Name = 
REMARK  6 active torsions:
REMARK  status: ('A' for Active; 'I' for Inactive)
REMARK    1  A    between atoms: C_2  and  C_3
REMARK    2  A    between atoms: C_3  and  S_4
REMARK    3  A    between atoms: S_4  and  C_5
REMARK    4  A    between atoms: N_15  and  C_16
REMARK    5  A    between atoms: C_16  and  C_17
REMARK    6  A    between atoms: N_23  and  C_24
REMARK                            x       y       z     vdW  Elec       q    Type
REMARK                         _______ _______ _______ _____ _____    ______ ____
ROOT
ATOM      1  C   UNL     1       5.687   5.931  18.416  0.00  0.00    +0.000 A 
ATOM      2  N   UNL     1       6.168   5.226  19.412  0.00  0.00    +0.000 NA
ATOM      3  N   UNL     1       5.135   4.522  19.976  0.00  0.00    +0.000 NA
ATOM      4  C   UNL     1       4.019   4.795  19.325  0.00  0.00    +0.000 A 
ATOM      5  N   UNL     1       2.753   4.417  19.684  0.00  0.00    +0.000 N 
ATOM      6  C   UNL     1       2.499   4.243  21.137  0.00  0.00    +0.000 C 
ATOM      7  C   UNL     1       2.357   2.779  21.578  0.00  0.00    +0.000 C 
ATOM      8  O   UNL     1       1.390   2.090  20.776  0.00  0.00    +0.000 OA
ATOM      9  C   UNL     1       1.841   2.071  19.417  0.00  0.00    +0.000 C 
ATOM     10  C   UNL     1       1.965   3.495  18.833  0.00  0.00    +0.000 C 
ATOM     11  N   UNL     1       4.312   5.725  18.324  0.00  0.00    +0.000 N 
ENDROOT
BRANCH   1  12
ATOM     12  S   UNL     1       6.683   6.862  17.317  0.00  0.00    +0.000 S 
BRANCH  12  13
ATOM     13  C   UNL     1       8.110   7.398  18.377  0.00  0.00    +0.000 C 
BRANCH  13  15
ATOM     14  O   UNL     1       7.735   9.650  17.595  0.00  0.00    +0.000 OA
ATOM     15  C   UNL     1       8.372   8.935  18.347  0.00  0.00    +0.000 C 
ATOM     16  N   UNL     1       9.286   9.412  19.283  0.00  0.00    +0.000 N 
ATOM     17  H   UNL     1       9.787   8.699  19.818  0.00  0.00    +0.000 HD
BRANCH  16  18
ATOM     18  C   UNL     1       9.642  10.762  19.533  0.00  0.00    +0.000 A 
ATOM     19  C   UNL     1       9.547  11.373  20.803  0.00  0.00    +0.000 A 
ATOM     20  C   UNL     1       9.851  12.727  20.998  0.00  0.00    +0.000 A 
ATOM     21  C   UNL     1      10.303  13.439  19.914  0.00  0.00    +0.000 A 
ATOM     22  C   UNL     1      10.460  12.850  18.684  0.00  0.00    +0.000 A 
ATOM     23  C   UNL     1      10.131  11.524  18.458  0.00  0.00    +0.000 A 
ATOM     24  O   UNL     1      10.961  13.717  17.763  0.00  0.00    +0.000 OA
ATOM     25  C   UNL     1      11.146  14.900  18.575  0.00  0.00    +0.000 C 
ATOM     26  O   UNL     1      10.661  14.750  19.921  0.00  0.00    +0.000 OA
ENDBRANCH  16  18
ENDBRANCH  13  15
ENDBRANCH  12  13
ENDBRANCH   1  12
BRANCH  11  27
ATOM     27  C   UNL     1       3.314   6.476  17.549  0.00  0.00    +0.000 C 
BRANCH  27  28
ATOM     28  C   UNL     1       2.593   7.592  18.291  0.00  0.00    +0.000 A 
ATOM     29  C   UNL     1       2.280   7.441  19.659  0.00  0.00    +0.000 A 
ATOM     30  C   UNL     1       1.491   8.388  20.325  0.00  0.00    +0.000 A 
ATOM     31  C   UNL     1       1.069   9.536  19.663  0.00  0.00    +0.000 A 
ATOM     32  C   UNL     1       1.466   9.752  18.347  0.00  0.00    +0.000 A 
ATOM     33  C   UNL     1       2.220   8.788  17.667  0.00  0.00    +0.000 A 
ENDBRANCH  27  28
ENDBRANCH  11  27
TORSDOF 6
ENDMDL
MODEL 2
REMARK VINA RESULT:      -9.0      0.680      1.345
REMARK  Name = 
REMARK  6 active torsions:
REMARK  status: ('A' for Active; 'I' for Inactive)
REMARK    1  A    between atoms: C_2  and  C_3
REMARK    2  A    between atoms: C_3  and  S_4
REMARK    3  A    between atoms: S_4  and  C_5
REMARK    4  A    between atoms: N_15  and  C_16
REMARK    5  A    between atoms: C_16  and  C_17
REMARK    6  A    between atoms: N_23  and  C_24
REMARK                            x       y       z     vdW  Elec       q    Type
REMARK                         _______ _______ _______ _____ _____    ______ ____
ROOT
ATOM      1  C   UNL     1       5.639   5.805  18.309  0.00  0.00    +0.000 A 
ATOM      2  N   UNL     1       6.103   5.036  19.263  0.00  0.00    +0.000 NA
ATOM      3  N   UNL     1       5.050   4.347  19.808  0.00  0.00    +0.000 NA
ATOM      4  C   UNL     1       3.939   4.693  19.187  0.00  0.00    +0.000 A 
ATOM      5  N   UNL     1       2.663   4.348  19.546  0.00  0.00    +0.000 N 
ATOM      6  C   UNL     1       2.420   4.115  20.991  0.00  0.00    +0.000 C 
ATOM      7  C   UNL     1       2.226   2.639  21.366  0.00  0.00    +0.000 C 
ATOM      8  O   UNL     1       1.222   2.027  20.546  0.00  0.00    +0.000 OA
ATOM      9  C   UNL     1       1.656   2.054  19.181  0.00  0.00    +0.000 C 
ATOM     10  C   UNL     1       1.828   3.498  18.663  0.00  0.00    +0.000 C 
ATOM     11  N   UNL     1       4.255   5.657  18.226  0.00  0.00    +0.000 N 
ENDROOT
BRANCH   1  12
ATOM     12  S   UNL     1       6.657   6.748  17.240  0.00  0.00    +0.000 S 
BRANCH  12  13
ATOM     13  C   UNL     1       8.055   7.283  18.338  0.00  0.00    +0.000 C 
BRANCH  13  15
ATOM     14  O   UNL     1       7.694   9.536  17.552  0.00  0.00    +0.000 OA
ATOM     15  C   UNL     1       8.331   8.818  18.300  0.00  0.00    +0.000 C 
ATOM     16  N   UNL     1       9.258   9.290  19.226  0.00  0.00    +0.000 N 
ATOM     17  H   UNL     1       9.758   8.573  19.759  0.00  0.00    +0.000 HD
BRANCH  16  18
ATOM     18  C   UNL     1       9.629  10.637  19.468  0.00  0.00    +0.000 A 
ATOM     19  C   UNL     1      10.284  11.451  18.518  0.00  0.00    +0.000 A 
ATOM     20  C   UNL     1      10.688  12.758  18.816  0.00  0.00    +0.000 A 
ATOM     21  C   UNL     1      10.376  13.253  20.059  0.00  0.00    +0.000 A 
ATOM     22  C   UNL     1       9.687  12.501  20.977  0.00  0.00    +0.000 A 
ATOM     23  C   UNL     1       9.309  11.193  20.719  0.00  0.00    +0.000 A 
ATOM     24  O   UNL     1       9.440  13.193  22.122  0.00  0.00    +0.000 OA
ATOM     25  C   UNL     1      10.011  14.480  21.791  0.00  0.00    +0.000 C 
ATOM     26  O   UNL     1      10.670  14.499  20.512  0.00  0.00    +0.000 OA
ENDBRANCH  16  18
ENDBRANCH  13  15
ENDBRANCH  12  13
ENDBRANCH   1  12
BRANCH  11  27
ATOM     27  C   UNL     1       3.278   6.482  17.501  0.00  0.00    +0.000 C 
BRANCH  27  28
ATOM     28  C   UNL     1       2.560   7.544  18.321  0.00  0.00    +0.000 A 
ATOM     29  C   UNL     1       2.368   7.353  19.707  0.00  0.00    +0.000 A 
ATOM     30  C   UNL     1       1.586   8.244  20.454  0.00  0.00    +0.000 A 
ATOM     31  C   UNL     1       1.049   9.377  19.852  0.00  0.00    +0.000 A 
ATOM     32  C   UNL     1       1.324   9.635  18.512  0.00  0.00    +0.000 A 
ATOM     33  C   UNL     1       2.072   8.727  17.754  0.00  0.00    +0.000 A 
ENDBRANCH  27  28
ENDBRANCH  11  27
TORSDOF 6
ENDMDL
MODEL 3
REMARK VINA RESULT:      -8.9      5.561      9.094
REMARK  Name = 
REMARK  6 active torsions:
REMARK  status: ('A' for Active; 'I' for Inactive)
REMARK    1  A    between atoms: C_2  and  C_3
REMARK    2  A    between atoms: C_3  and  S_4
REMARK    3  A    between atoms: S_4  and  C_5
REMARK    4  A    between atoms: N_15  and  C_16
REMARK    5  A    between atoms: C_16  and  C_17
REMARK    6  A    between atoms: N_23  and  C_24
REMARK                            x       y       z     vdW  Elec       q    Type
REMARK                         _______ _______ _______ _____ _____    ______ ____
ROOT
ATOM      1  C   UNL     1       0.220  10.430  21.178  0.00  0.00    +0.000 A 
ATOM      2  N   UNL     1       0.255  10.324  22.484  0.00  0.00    +0.000 NA
ATOM      3  N   UNL     1      -0.621  11.238  23.011  0.00  0.00    +0.000 NA
ATOM      4  C   UNL     1      -1.195  11.904  22.027  0.00  0.00    +0.000 A 
ATOM      5  N   UNL     1      -2.004  13.002  22.149  0.00  0.00    +0.000 N 
ATOM      6  C   UNL     1      -1.758  13.881  23.321  0.00  0.00    +0.000 C 
ATOM      7  C   UNL     1      -2.830  13.781  24.415  0.00  0.00    +0.000 C 
ATOM      8  O   UNL     1      -4.142  13.967  23.870  0.00  0.00    +0.000 OA
ATOM      9  C   UNL     1      -4.409  12.916  22.933  0.00  0.00    +0.000 C 
ATOM     10  C   UNL     1      -3.428  12.947  21.741  0.00  0.00    +0.000 C 
ATOM     11  N   UNL     1      -0.666  11.444  20.819  0.00  0.00    +0.000 N 
ENDROOT
BRANCH   1  12
ATOM     12  S   UNL     1       1.069   9.347  20.094  0.00  0.00    +0.000 S 
BRANCH  12  13
ATOM     13  C   UNL     1       1.174   7.765  21.060  0.00  0.00    +0.000 C 
BRANCH  13  15
ATOM     14  O   UNL     1       2.027   5.521  20.813  0.00  0.00    +0.000 OA
ATOM     15  C   UNL     1       1.982   6.642  20.341  0.00  0.00    +0.000 C 
ATOM     16  N   UNL     1       2.542   6.990  19.114  0.00  0.00    +0.000 N 
ATOM     17  H   UNL     1       2.473   7.978  18.858  0.00  0.00    +0.000 HD
BRANCH  16  18
ATOM     18  C   UNL     1       3.244   6.148  18.214  0.00  0.00    +0.000 A 
ATOM     19  C   UNL     1       2.888   4.805  17.960  0.00  0.00    +0.000 A 
ATOM     20  C   UNL     1       3.643   3.987  17.110  0.00  0.00    +0.000 A 
ATOM     21  C   UNL     1       4.724   4.552  16.478  0.00  0.00    +0.000 A 
ATOM     22  C   UNL     1       5.052   5.871  16.664  0.00  0.00    +0.000 A 
ATOM     23  C   UNL     1       4.344   6.690  17.527  0.00  0.00    +0.000 A 
ATOM     24  O   UNL     1       6.124   6.241  15.911  0.00  0.00    +0.000 OA
ATOM     25  C   UNL     1       6.393   5.012  15.198  0.00  0.00    +0.000 C 
ATOM     26  O   UNL     1       5.554   3.918  15.610  0.00  0.00    +0.000 OA
ENDBRANCH  16  18
ENDBRANCH  13  15
ENDBRANCH  12  13
ENDBRANCH   1  12
BRANCH  11  27
ATOM     27  C   UNL     1      -0.847  12.094  19.513  0.00  0.00    +0.000 C 
BRANCH  27  28
ATOM     28  C   UNL     1      -1.784  11.392  18.540  0.00  0.00    +0.000 A 
ATOM     29  C   UNL     1      -3.158  11.717  18.527  0.00  0.00    +0.000 A 
ATOM     30  C   UNL     1      -4.062  10.986  17.747  0.00  0.00    +0.000 A 
ATOM     31  C   UNL     1      -3.604   9.973  16.910  0.00  0.00    +0.000 A 
ATOM     32  C   UNL     1      -2.238   9.718  16.829  0.00  0.00    +0.000 A 
ATOM     33  C   UNL     1      -1.337  10.420  17.637  0.00  0.00    +0.000 A 
ENDBRANCH  27  28
ENDBRANCH  11  27
TORSDOF 6
ENDMDL
MODEL 4
REMARK VINA RESULT:      -8.9      5.735      9.338
REMARK  Name = 
REMARK  6 active torsions:
REMARK  status: ('A' for Active; 'I' for Inactive)
REMARK    1  A    between atoms: C_2  and  C_3
REMARK    2  A    between atoms: C_3  and  S_4
REMARK    3  A    between atoms: S_4  and  C_5
REMARK    4  A    between atoms: N_15  and  C_16
REMARK    5  A    between atoms: C_16  and  C_17
REMARK    6  A    between atoms: N_23  and  C_24
REMARK                            x       y       z     vdW  Elec       q    Type
REMARK                         _______ _______ _______ _____ _____    ______ ____
ROOT
ATOM      1  C   UNL     1      -0.451  10.358  21.940  0.00  0.00    +0.000 A 
ATOM      2  N   UNL     1      -0.520  10.733  23.195  0.00  0.00    +0.000 NA
ATOM      3  N   UNL     1      -0.726  12.088  23.226  0.00  0.00    +0.000 NA
ATOM      4  C   UNL     1      -0.784  12.546  21.990  0.00  0.00    +0.000 A 
ATOM      5  N   UNL     1      -0.816  13.860  21.608  0.00  0.00    +0.000 N 
ATOM      6  C   UNL     1      -0.144  14.830  22.508  0.00  0.00    +0.000 C 
ATOM      7  C   UNL     1      -1.109  15.717  23.308  0.00  0.00    +0.000 C 
ATOM      8  O   UNL     1      -2.059  16.354  22.446  0.00  0.00    +0.000 OA
ATOM      9  C   UNL     1      -2.855  15.349  21.807  0.00  0.00    +0.000 C 
ATOM     10  C   UNL     1      -2.000  14.422  20.914  0.00  0.00    +0.000 C 
ATOM     11  N   UNL     1      -0.582  11.475  21.116  0.00  0.00    +0.000 N 
ENDROOT
BRANCH   1  12
ATOM     12  S   UNL     1      -0.349   8.686  21.431  0.00  0.00    +0.000 S 
BRANCH  12  13
ATOM     13  C   UNL     1       1.479   8.382  21.311  0.00  0.00    +0.000 C 
BRANCH  13  15
ATOM     14  O   UNL     1       1.797   8.541  18.924  0.00  0.00    +0.000 OA
ATOM     15  C   UNL     1       1.938   7.852  19.918  0.00  0.00    +0.000 C 
ATOM     16  N   UNL     1       2.583   6.618  19.922  0.00  0.00    +0.000 N 
ATOM     17  H   UNL     1       2.588   6.122  20.817  0.00  0.00    +0.000 HD
BRANCH  16  18
ATOM     18  C   UNL     1       3.175   5.949  18.821  0.00  0.00    +0.000 A 
ATOM     19  C   UNL     1       2.961   4.585  18.528  0.00  0.00    +0.000 A 
ATOM     20  C   UNL     1       3.613   3.944  17.466  0.00  0.00    +0.000 A 
ATOM     21  C   UNL     1       4.435   4.707  16.672  0.00  0.00    +0.000 A 
ATOM     22  C   UNL     1       4.611   6.048  16.902  0.00  0.00    +0.000 A 
ATOM     23  C   UNL     1       4.007   6.695  17.968  0.00  0.00    +0.000 A 
ATOM     24  O   UNL     1       5.425   6.622  15.976  0.00  0.00    +0.000 OA
ATOM     25  C   UNL     1       5.695   5.494  15.113  0.00  0.00    +0.000 C 
ATOM     26  O   UNL     1       5.129   4.261  15.593  0.00  0.00    +0.000 OA
ENDBRANCH  16  18
ENDBRANCH  13  15
ENDBRANCH  12  13
ENDBRANCH   1  12
BRANCH  11  27
ATOM     27  C   UNL     1      -0.318  11.596  19.675  0.00  0.00    +0.000 C 
BRANCH  27  28
ATOM     28  C   UNL     1      -1.438  11.143  18.749  0.00  0.00    +0.000 A 
ATOM     29  C   UNL     1      -1.205  10.111  17.815  0.00  0.00    +0.000 A 
ATOM     30  C   UNL     1      -2.171   9.777  16.857  0.00  0.00    +0.000 A 
ATOM     31  C   UNL     1      -3.410  10.409  16.864  0.00  0.00    +0.000 A 
ATOM     32  C   UNL     1      -3.694  11.348  17.850  0.00  0.00    +0.000 A 
ATOM     33  C   UNL     1      -2.716  11.713  18.784  0.00  0.00    +0.000 A 
ENDBRANCH  27  28
ENDBRANCH  11  27
TORSDOF 6
ENDMDL
MODEL 5
REMARK VINA RESULT:      -8.8      2.687      4.168
REMARK  Name = 
REMARK  6 active torsions:
REMARK  status: ('A' for Active; 'I' for Inactive)
REMARK    1  A    between atoms: C_2  and  C_3
REMARK    2  A    between atoms: C_3  and  S_4
REMARK    3  A    between atoms: S_4  and  C_5
REMARK    4  A    between atoms: N_15  and  C_16
REMARK    5  A    between atoms: C_16  and  C_17
REMARK    6  A    between atoms: N_23  and  C_24
REMARK                            x       y       z     vdW  Elec       q    Type
REMARK                         _______ _______ _______ _____ _____    ______ ____
ROOT
ATOM      1  C   UNL     1       5.814   6.470  17.048  0.00  0.00    +0.000 A 
ATOM      2  N   UNL     1       4.762   7.085  17.532  0.00  0.00    +0.000 NA
ATOM      3  N   UNL     1       3.822   6.138  17.851  0.00  0.00    +0.000 NA
ATOM      4  C   UNL     1       4.299   4.941  17.563  0.00  0.00    +0.000 A 
ATOM      5  N   UNL     1       3.606   3.761  17.587  0.00  0.00    +0.000 N 
ATOM      6  C   UNL     1       2.150   3.840  17.309  0.00  0.00    +0.000 C 
ATOM      7  C   UNL     1       1.263   3.630  18.545  0.00  0.00    +0.000 C 
ATOM      8  O   UNL     1       1.614   2.424  19.233  0.00  0.00    +0.000 OA
ATOM      9  C   UNL     1       2.963   2.533  19.705  0.00  0.00    +0.000 C 
ATOM     10  C   UNL     1       3.967   2.686  18.543  0.00  0.00    +0.000 C 
ATOM     11  N   UNL     1       5.573   5.098  17.012  0.00  0.00    +0.000 N 
ENDROOT
BRANCH   1  12
ATOM     12  S   UNL     1       7.315   7.282  16.653  0.00  0.00    +0.000 S 
BRANCH  12  13
ATOM     13  C   UNL     1       7.991   7.769  18.313  0.00  0.00    +0.000 C 
BRANCH  13  15
ATOM     14  O   UNL     1       7.983  10.080  17.619  0.00  0.00    +0.000 OA
ATOM     15  C   UNL     1       8.439   9.260  18.395  0.00  0.00    +0.000 C 
ATOM     16  N   UNL     1       9.292   9.579  19.448  0.00  0.00    +0.000 N 
ATOM     17  H   UNL     1       9.639   8.787  19.995  0.00  0.00    +0.000 HD
BRANCH  16  18
ATOM     18  C   UNL     1       9.778  10.861  19.809  0.00  0.00    +0.000 A 
ATOM     19  C   UNL     1       9.351  11.566  20.956  0.00  0.00    +0.000 A 
ATOM     20  C   UNL     1       9.810  12.857  21.246  0.00  0.00    +0.000 A 
ATOM     21  C   UNL     1      10.744  13.405  20.400  0.00  0.00    +0.000 A 
ATOM     22  C   UNL     1      11.218  12.715  19.313  0.00  0.00    +0.000 A 
ATOM     23  C   UNL     1      10.752  11.452  18.984  0.00  0.00    +0.000 A 
ATOM     24  O   UNL     1      12.167  13.417  18.636  0.00  0.00    +0.000 OA
ATOM     25  C   UNL     1      12.265  14.603  19.457  0.00  0.00    +0.000 C 
ATOM     26  O   UNL     1      11.311  14.632  20.535  0.00  0.00    +0.000 OA
ENDBRANCH  16  18
ENDBRANCH  13  15
ENDBRANCH  12  13
ENDBRANCH   1  12
BRANCH  11  27
ATOM     27  C   UNL     1       6.335   4.043  16.328  0.00  0.00    +0.000 C 
BRANCH  27  28
ATOM     28  C   UNL     1       6.450   4.174  14.816  0.00  0.00    +0.000 A 
ATOM     29  C   UNL     1       5.521   3.517  13.980  0.00  0.00    +0.000 A 
ATOM     30  C   UNL     1       5.691   3.502  12.589  0.00  0.00    +0.000 A 
ATOM     31  C   UNL     1       6.740   4.206  12.005  0.00  0.00    +0.000 A 
ATOM     32  C   UNL     1       7.596   4.950  12.811  0.00  0.00    +0.000 A 
ATOM     33  C   UNL     1       7.453   4.934  14.203  0.00  0.00    +0.000 A 
ENDBRANCH  27  28
ENDBRANCH  11  27
TORSDOF 6
ENDMDL
MODEL 6
REMARK VINA RESULT:      -8.7      5.658      9.189
REMARK  Name = 
REMARK  6 active torsions:
REMARK  status: ('A' for Active; 'I' for Inactive)
REMARK    1  A    between atoms: C_2  and  C_3
REMARK    2  A    between atoms: C_3  and  S_4
REMARK    3  A    between atoms: S_4  and  C_5
REMARK    4  A    between atoms: N_15  and  C_16
REMARK    5  A    between atoms: C_16  and  C_17
REMARK    6  A    between atoms: N_23  and  C_24
REMARK                            x       y       z     vdW  Elec       q    Type
REMARK                         _______ _______ _______ _____ _____    ______ ____
ROOT
ATOM      1  C   UNL     1      -0.057  10.619  21.460  0.00  0.00    +0.000 A 
ATOM      2  N   UNL     1      -0.071  10.515  22.767  0.00  0.00    +0.000 NA
ATOM      3  N   UNL     1      -1.012  11.384  23.255  0.00  0.00    +0.000 NA
ATOM      4  C   UNL     1      -1.577  12.022  22.247  0.00  0.00    +0.000 A 
ATOM      5  N   UNL     1      -2.443  13.079  22.334  0.00  0.00    +0.000 N 
ATOM      6  C   UNL     1      -2.290  13.968  23.513  0.00  0.00    +0.000 C 
ATOM      7  C   UNL     1      -3.400  13.816  24.562  0.00  0.00    +0.000 C 
ATOM      8  O   UNL     1      -4.696  13.936  23.962  0.00  0.00    +0.000 OA
ATOM      9  C   UNL     1      -4.872  12.875  23.016  0.00  0.00    +0.000 C 
ATOM     10  C   UNL     1      -3.844  12.955  21.867  0.00  0.00    +0.000 C 
ATOM     11  N   UNL     1      -0.976  11.588  21.062  0.00  0.00    +0.000 N 
ENDROOT
BRANCH   1  12
ATOM     12  S   UNL     1       0.889   9.580  20.414  0.00  0.00    +0.000 S 
BRANCH  12  13
ATOM     13  C   UNL     1       1.043   8.009  21.393  0.00  0.00    +0.000 C 
BRANCH  13  15
ATOM     14  O   UNL     1       1.330   5.697  20.765  0.00  0.00    +0.000 OA
ATOM     15  C   UNL     1       1.712   6.842  20.604  0.00  0.00    +0.000 C 
ATOM     16  N   UNL     1       2.674   7.215  19.670  0.00  0.00    +0.000 N 
ATOM     17  H   UNL     1       2.937   8.204  19.673  0.00  0.00    +0.000 HD
BRANCH  16  18
ATOM     18  C   UNL     1       3.369   6.375  18.763  0.00  0.00    +0.000 A 
ATOM     19  C   UNL     1       3.525   4.984  18.947  0.00  0.00    +0.000 A 
ATOM     20  C   UNL     1       4.271   4.198  18.059  0.00  0.00    +0.000 A 
ATOM     21  C   UNL     1       4.808   4.818  16.957  0.00  0.00    +0.000 A 
ATOM     22  C   UNL     1       4.618   6.158  16.727  0.00  0.00    +0.000 A 
ATOM     23  C   UNL     1       3.917   6.963  17.608  0.00  0.00    +0.000 A 
ATOM     24  O   UNL     1       5.192   6.561  15.560  0.00  0.00    +0.000 OA
ATOM     25  C   UNL     1       5.717   5.307  15.067  0.00  0.00    +0.000 C 
ATOM     26  O   UNL     1       5.539   4.214  15.986  0.00  0.00    +0.000 OA
ENDBRANCH  16  18
ENDBRANCH  13  15
ENDBRANCH  12  13
ENDBRANCH   1  12
BRANCH  11  27
ATOM     27  C   UNL     1      -1.134  12.230  19.749  0.00  0.00    +0.000 C 
BRANCH  27  28
ATOM     28  C   UNL     1      -1.962  11.465  18.727  0.00  0.00    +0.000 A 
ATOM     29  C   UNL     1      -1.354  10.471  17.929  0.00  0.00    +0.000 A 
ATOM     30  C   UNL     1      -2.057   9.858  16.885  0.00  0.00    +0.000 A 
ATOM     31  C   UNL     1      -3.397  10.166  16.668  0.00  0.00    +0.000 A 
ATOM     32  C   UNL     1      -4.039  11.061  17.518  0.00  0.00    +0.000 A 
ATOM     33  C   UNL     1      -3.328  11.705  18.537  0.00  0.00    +0.000 A 
ENDBRANCH  27  28
ENDBRANCH  11  27
TORSDOF 6
ENDMDL
MODEL 7
REMARK VINA RESULT:      -8.7      6.146     10.329
REMARK  Name = 
REMARK  6 active torsions:
REMARK  status: ('A' for Active; 'I' for Inactive)
REMARK    1  A    between atoms: C_2  and  C_3
REMARK    2  A    between atoms: C_3  and  S_4
REMARK    3  A    between atoms: S_4  and  C_5
REMARK    4  A    between atoms: N_15  and  C_16
REMARK    5  A    between atoms: C_16  and  C_17
REMARK    6  A    between atoms: N_23  and  C_24
REMARK                            x       y       z     vdW  Elec       q    Type
REMARK                         _______ _______ _______ _____ _____    ______ ____
ROOT
ATOM      1  C   UNL     1       0.032  11.690  21.392  0.00  0.00    +0.000 A 
ATOM      2  N   UNL     1       1.242  12.196  21.400  0.00  0.00    +0.000 NA
ATOM      3  N   UNL     1       1.186  13.446  20.837  0.00  0.00    +0.000 NA
ATOM      4  C   UNL     1      -0.058  13.707  20.486  0.00  0.00    +0.000 A 
ATOM      5  N   UNL     1      -0.490  14.779  19.751  0.00  0.00    +0.000 N 
ATOM      6  C   UNL     1       0.474  15.347  18.776  0.00  0.00    +0.000 C 
ATOM      7  C   UNL     1       1.065  16.701  19.193  0.00  0.00    +0.000 C 
ATOM      8  O   UNL     1       0.030  17.633  19.530  0.00  0.00    +0.000 OA
ATOM      9  C   UNL     1      -0.696  17.133  20.660  0.00  0.00    +0.000 C 
ATOM     10  C   UNL     1      -1.395  15.792  20.345  0.00  0.00    +0.000 C 
ATOM     11  N   UNL     1      -0.844  12.593  20.793  0.00  0.00    +0.000 N 
ENDROOT
BRANCH   1  12
ATOM     12  S   UNL     1      -0.388  10.170  22.155  0.00  0.00    +0.000 S 
BRANCH  12  13
ATOM     13  C   UNL     1       1.198   9.207  22.100  0.00  0.00    +0.000 C 
BRANCH  13  15
ATOM     14  O   UNL     1       1.154   8.871  19.711  0.00  0.00    +0.000 OA
ATOM     15  C   UNL     1       1.380   8.370  20.797  0.00  0.00    +0.000 C 
ATOM     16  N   UNL     1       1.895   7.087  20.968  0.00  0.00    +0.000 N 
ATOM     17  H   UNL     1       1.992   6.773  21.937  0.00  0.00    +0.000 HD
BRANCH  16  18
ATOM     18  C   UNL     1       2.241   6.153  19.959  0.00  0.00    +0.000 A 
ATOM     19  C   UNL     1       3.067   6.463  18.856  0.00  0.00    +0.000 A 
ATOM     20  C   UNL     1       3.337   5.529  17.847  0.00  0.00    +0.000 A 
ATOM     21  C   UNL     1       2.811   4.268  17.991  0.00  0.00    +0.000 A 
ATOM     22  C   UNL     1       2.055   3.928  19.084  0.00  0.00    +0.000 A 
ATOM     23  C   UNL     1       1.744   4.843  20.076  0.00  0.00    +0.000 A 
ATOM     24  O   UNL     1       1.673   2.622  19.054  0.00  0.00    +0.000 OA
ATOM     25  C   UNL     1       2.322   2.176  17.841  0.00  0.00    +0.000 C 
ATOM     26  O   UNL     1       2.983   3.235  17.126  0.00  0.00    +0.000 OA
ENDBRANCH  16  18
ENDBRANCH  13  15
ENDBRANCH  12  13
ENDBRANCH   1  12
BRANCH  11  27
ATOM     27  C   UNL     1      -2.223  12.377  20.332  0.00  0.00    +0.000 C 
BRANCH  27  28
ATOM     28  C   UNL     1      -2.379  11.613  19.026  0.00  0.00    +0.000 A 
ATOM     29  C   UNL     1      -3.607  11.650  18.330  0.00  0.00    +0.000 A 
ATOM     30  C   UNL     1      -3.822  10.842  17.207  0.00  0.00    +0.000 A 
ATOM     31  C   UNL     1      -2.795  10.044  16.712  0.00  0.00    +0.000 A 
ATOM     32  C   UNL     1      -1.545  10.083  17.322  0.00  0.00    +0.000 A 
ATOM     33  C   UNL     1      -1.339  10.860  18.468  0.00  0.00    +0.000 A 
ENDBRANCH  27  28
ENDBRANCH  11  27
TORSDOF 6
ENDMDL
MODEL 8
REMARK VINA RESULT:      -8.6      0.960      1.718
REMARK  Name = 
REMARK  6 active torsions:
REMARK  status: ('A' for Active; 'I' for Inactive)
REMARK    1  A    between atoms: C_2  and  C_3
REMARK    2  A    between atoms: C_3  and  S_4
REMARK    3  A    between atoms: S_4  and  C_5
REMARK    4  A    between atoms: N_15  and  C_16
REMARK    5  A    between atoms: C_16  and  C_17
REMARK    6  A    between atoms: N_23  and  C_24
REMARK                            x       y       z     vdW  Elec       q    Type
REMARK                         _______ _______ _______ _____ _____    ______ ____
ROOT
ATOM      1  C   UNL     1       6.070   5.950  18.109  0.00  0.00    +0.000 A 
ATOM      2  N   UNL     1       6.489   5.058  18.974  0.00  0.00    +0.000 NA
ATOM      3  N   UNL     1       5.429   4.255  19.308  0.00  0.00    +0.000 NA
ATOM      4  C   UNL     1       4.359   4.654  18.647  0.00  0.00    +0.000 A 
ATOM      5  N   UNL     1       3.076   4.212  18.830  0.00  0.00    +0.000 N 
ATOM      6  C   UNL     1       2.722   3.747  20.195  0.00  0.00    +0.000 C 
ATOM      7  C   UNL     1       2.570   2.224  20.320  0.00  0.00    +0.000 C 
ATOM      8  O   UNL     1       1.672   1.713  19.328  0.00  0.00    +0.000 OA
ATOM      9  C   UNL     1       2.218   1.969  18.028  0.00  0.00    +0.000 C 
ATOM     10  C   UNL     1       2.363   3.482  17.755  0.00  0.00    +0.000 C 
ATOM     11  N   UNL     1       4.708   5.767  17.878  0.00  0.00    +0.000 N 
ENDROOT
BRANCH   1  12
ATOM     12  S   UNL     1       7.128   7.084  17.295  0.00  0.00    +0.000 S 
BRANCH  12  13
ATOM     13  C   UNL     1       8.249   7.678  18.651  0.00  0.00    +0.000 C 
BRANCH  13  15
ATOM     14  O   UNL     1       7.920   9.928  17.845  0.00  0.00    +0.000 OA
ATOM     15  C   UNL     1       8.559   9.205  18.587  0.00  0.00    +0.000 C 
ATOM     16  N   UNL     1       9.519   9.666  19.484  0.00  0.00    +0.000 N 
ATOM     17  H   UNL     1      10.015   8.945  20.014  0.00  0.00    +0.000 HD
BRANCH  16  18
ATOM     18  C   UNL     1       9.926  11.007  19.699  0.00  0.00    +0.000 A 
ATOM     19  C   UNL     1      10.746  11.729  18.805  0.00  0.00    +0.000 A 
ATOM     20  C   UNL     1      11.177  13.033  19.082  0.00  0.00    +0.000 A 
ATOM     21  C   UNL     1      10.727  13.618  20.241  0.00  0.00    +0.000 A 
ATOM     22  C   UNL     1       9.881  12.957  21.095  0.00  0.00    +0.000 A 
ATOM     23  C   UNL     1       9.471  11.655  20.862  0.00  0.00    +0.000 A 
ATOM     24  O   UNL     1       9.520  13.730  22.156  0.00  0.00    +0.000 OA
ATOM     25  C   UNL     1      10.199  14.966  21.836  0.00  0.00    +0.000 C 
ATOM     26  O   UNL     1      11.025  14.875  20.661  0.00  0.00    +0.000 OA
ENDBRANCH  16  18
ENDBRANCH  13  15
ENDBRANCH  12  13
ENDBRANCH   1  12
BRANCH  11  27
ATOM     27  C   UNL     1       3.757   6.660  17.201  0.00  0.00    +0.000 C 
BRANCH  27  28
ATOM     28  C   UNL     1       2.844   7.475  18.105  0.00  0.00    +0.000 A 
ATOM     29  C   UNL     1       2.188   8.618  17.599  0.00  0.00    +0.000 A 
ATOM     30  C   UNL     1       1.461   9.464  18.446  0.00  0.00    +0.000 A 
ATOM     31  C   UNL     1       1.309   9.145  19.792  0.00  0.00    +0.000 A 
ATOM     32  C   UNL     1       1.856   7.962  20.279  0.00  0.00    +0.000 A 
ATOM     33  C   UNL     1       2.617   7.135  19.444  0.00  0.00    +0.000 A 
ENDBRANCH  27  28
ENDBRANCH  11  27
TORSDOF 6
ENDMDL
MODEL 9
REMARK VINA RESULT:      -8.5      3.212     10.614
REMARK  Name = 
REMARK  6 active torsions:
REMARK  status: ('A' for Active; 'I' for Inactive)
REMARK    1  A    between atoms: C_2  and  C_3
REMARK    2  A    between atoms: C_3  and  S_4
REMARK    3  A    between atoms: S_4  and  C_5
REMARK    4  A    between atoms: N_15  and  C_16
REMARK    5  A    between atoms: C_16  and  C_17
REMARK    6  A    between atoms: N_23  and  C_24
REMARK                            x       y       z     vdW  Elec       q    Type
REMARK                         _______ _______ _______ _____ _____    ______ ____
ROOT
ATOM      1  C   UNL     1       9.213  11.966  18.912  0.00  0.00    +0.000 A 
ATOM      2  N   UNL     1       8.709  12.551  17.853  0.00  0.00    +0.000 NA
ATOM      3  N   UNL     1       8.939  13.899  17.959  0.00  0.00    +0.000 NA
ATOM      4  C   UNL     1       9.586  14.141  19.083  0.00  0.00    +0.000 A 
ATOM      5  N   UNL     1       9.853  15.371  19.622  0.00  0.00    +0.000 N 
ATOM      6  C   UNL     1       8.885  16.454  19.317  0.00  0.00    +0.000 C 
ATOM      7  C   UNL     1       9.407  17.501  18.322  0.00  0.00    +0.000 C 
ATOM      8  O   UNL     1      10.678  18.017  18.737  0.00  0.00    +0.000 OA
ATOM      9  C   UNL     1      11.632  16.948  18.752  0.00  0.00    +0.000 C 
ATOM     10  C   UNL     1      11.248  15.851  19.768  0.00  0.00    +0.000 C 
ATOM     11  N   UNL     1       9.764  12.929  19.756  0.00  0.00    +0.000 N 
ENDROOT
BRANCH   1  12
ATOM     12  S   UNL     1       9.282  10.228  19.119  0.00  0.00    +0.000 S 
BRANCH  12  13
ATOM     13  C   UNL     1       8.395   9.580  17.622  0.00  0.00    +0.000 C 
BRANCH  13  15
ATOM     14  O   UNL     1       8.303   7.404  18.662  0.00  0.00    +0.000 OA
ATOM     15  C   UNL     1       7.852   8.129  17.793  0.00  0.00    +0.000 C 
ATOM     16  N   UNL     1       6.785   7.780  16.970  0.00  0.00    +0.000 N 
ATOM     17  H   UNL     1       6.538   8.464  16.249  0.00  0.00    +0.000 HD
BRANCH  16  18
ATOM     18  C   UNL     1       6.047   6.569  16.976  0.00  0.00    +0.000 A 
ATOM     19  C   UNL     1       6.556   5.340  16.501  0.00  0.00    +0.000 A 
ATOM     20  C   UNL     1       5.775   4.178  16.468  0.00  0.00    +0.000 A 
ATOM     21  C   UNL     1       4.499   4.255  16.971  0.00  0.00    +0.000 A 
ATOM     22  C   UNL     1       4.005   5.423  17.493  0.00  0.00    +0.000 A 
ATOM     23  C   UNL     1       4.744   6.595  17.503  0.00  0.00    +0.000 A 
ATOM     24  O   UNL     1       2.742   5.272  17.978  0.00  0.00    +0.000 OA
ATOM     25  C   UNL     1       2.528   3.861  17.743  0.00  0.00    +0.000 C 
ATOM     26  O   UNL     1       3.611   3.229  17.037  0.00  0.00    +0.000 OA
ENDBRANCH  16  18
ENDBRANCH  13  15
ENDBRANCH  12  13
ENDBRANCH   1  12
BRANCH  11  27
ATOM     27  C   UNL     1      10.206  12.792  21.151  0.00  0.00    +0.000 C 
BRANCH  27  28
ATOM     28  C   UNL     1       9.111  12.830  22.206  0.00  0.00    +0.000 A 
ATOM     29  C   UNL     1       8.838  14.032  22.895  0.00  0.00    +0.000 A 
ATOM     30  C   UNL     1       7.938  14.058  23.968  0.00  0.00    +0.000 A 
ATOM     31  C   UNL     1       7.239  12.908  24.322  0.00  0.00    +0.000 A 
ATOM     32  C   UNL     1       7.416  11.745  23.580  0.00  0.00    +0.000 A 
ATOM     33  C   UNL     1       8.344  11.706  22.533  0.00  0.00    +0.000 A 
ENDBRANCH  27  28
ENDBRANCH  11  27
TORSDOF 6
ENDMDL
