MODEL 1
REMARK VINA RESULT:      -8.7      0.000      0.000
REMARK  Name = 
REMARK  6 active torsions:
REMARK  status: ('A' for Active; 'I' for Inactive)
REMARK    1  A    between atoms: C_1  and  O_2
REMARK    2  A    between atoms: O_2  and  C_3
REMARK    3  A    between atoms: C_6  and  C_7
REMARK    4  A    between atoms: C_10  and  C_11
REMARK    5  A    between atoms: C_11  and  N_12
REMARK    6  A    between atoms: C_16  and  C_17
REMARK                            x       y       z     vdW  Elec       q    Type
REMARK                         _______ _______ _______ _____ _____    ______ ____
ROOT
ATOM      1  N   UNL     1       5.104   5.337  16.447  0.00  0.00    +0.000 NA
ATOM      2  C   UNL     1       4.857   3.965  16.927  0.00  0.00    +0.000 C 
ATOM      3  C   UNL     1       3.390   3.721  17.272  0.00  0.00    +0.000 C 
ATOM      4  C   UNL     1       2.884   4.743  18.275  0.00  0.00    +0.000 C 
ATOM      5  C   UNL     1       3.123   6.163  17.741  0.00  0.00    +0.000 C 
ATOM      6  C   UNL     1       4.613   6.353  17.416  0.00  0.00    +0.000 C 
ENDROOT
BRANCH   5   7
ATOM      7  C   UNL     1       2.574   7.147  18.723  0.00  0.00    +0.000 A 
ATOM      8  N   UNL     1       2.313   7.028  20.013  0.00  0.00    +0.000 NA
ATOM      9  C   UNL     1       1.586   8.166  20.303  0.00  0.00    +0.000 A 
ATOM     10  C   UNL     1       0.966   8.608  21.481  0.00  0.00    +0.000 A 
ATOM     11  C   UNL     1       0.221   9.798  21.433  0.00  0.00    +0.000 A 
ATOM     12  C   UNL     1       0.112  10.543  20.251  0.00  0.00    +0.000 A 
ATOM     13  C   UNL     1       0.754  10.135  19.078  0.00  0.00    +0.000 A 
ATOM     14  C   UNL     1       1.462   8.942  19.163  0.00  0.00    +0.000 A 
ATOM     15  O   UNL     1       2.116   8.311  18.154  0.00  0.00    +0.000 OA
ENDBRANCH   5   7
BRANCH   1  16
ATOM     16  C   UNL     1       6.554   5.547  16.190  0.00  0.00    +0.000 C 
BRANCH  16  20
ATOM     17  C   UNL     1       8.099   8.159  18.100  0.00  0.00    +0.000 A 
ATOM     18  N   UNL     1       8.330   7.123  18.926  0.00  0.00    +0.000 NA
ATOM     19  O   UNL     1       7.741   6.037  18.274  0.00  0.00    +0.000 OA
ATOM     20  C   UNL     1       7.218   6.523  17.111  0.00  0.00    +0.000 A 
ATOM     21  N   UNL     1       7.409   7.813  16.956  0.00  0.00    +0.000 NA
BRANCH  17  25
ATOM     22  C   UNL     1       9.376  12.174  18.874  0.00  0.00    +0.000 A 
ATOM     23  C   UNL     1       8.580  11.898  17.762  0.00  0.00    +0.000 A 
ATOM     24  C   UNL     1       8.168  10.582  17.498  0.00  0.00    +0.000 A 
ATOM     25  C   UNL     1       8.541   9.529  18.343  0.00  0.00    +0.000 A 
ATOM     26  C   UNL     1       9.345   9.819  19.455  0.00  0.00    +0.000 A 
ATOM     27  C   UNL     1       9.756  11.129  19.715  0.00  0.00    +0.000 A 
BRANCH  22  29
ATOM     28  C   UNL     1       9.104  14.534  18.800  0.00  0.00    +0.000 C 
ATOM     29  O   UNL     1       9.842  13.404  19.247  0.00  0.00    +0.000 OA
ENDBRANCH  22  29
ENDBRANCH  17  25
ENDBRANCH  16  20
ENDBRANCH   1  16
TORSDOF 5
ENDMDL
MODEL 2
REMARK VINA RESULT:      -8.6      0.842      1.528
REMARK  Name = 
REMARK  6 active torsions:
REMARK  status: ('A' for Active; 'I' for Inactive)
REMARK    1  A    between atoms: C_1  and  O_2
REMARK    2  A    between atoms: O_2  and  C_3
REMARK    3  A    between atoms: C_6  and  C_7
REMARK    4  A    between atoms: C_10  and  C_11
REMARK    5  A    between atoms: C_11  and  N_12
REMARK    6  A    between atoms: C_16  and  C_17
REMARK                            x       y       z     vdW  Elec       q    Type
REMARK                         _______ _______ _______ _____ _____    ______ ____
ROOT
ATOM      1  N   UNL     1       5.177   5.446  16.934  0.00  0.00    +0.000 NA
ATOM      2  C   UNL     1       5.393   4.403  17.953  0.00  0.00    +0.000 C 
ATOM      3  C   UNL     1       4.089   3.940  18.600  0.00  0.00    +0.000 C 
ATOM      4  C   UNL     1       3.319   5.112  19.183  0.00  0.00    +0.000 C 
ATOM      5  C   UNL     1       3.079   6.172  18.097  0.00  0.00    +0.000 C 
ATOM      6  C   UNL     1       4.421   6.603  17.486  0.00  0.00    +0.000 C 
ENDROOT
BRANCH   5   7
ATOM      7  C   UNL     1       2.279   7.290  18.683  0.00  0.00    +0.000 A 
ATOM      8  N   UNL     1       1.916   8.454  18.173  0.00  0.00    +0.000 NA
ATOM      9  C   UNL     1       1.432   9.149  19.264  0.00  0.00    +0.000 A 
ATOM     10  C   UNL     1       0.949  10.458  19.402  0.00  0.00    +0.000 A 
ATOM     11  C   UNL     1       0.596  10.904  20.688  0.00  0.00    +0.000 A 
ATOM     12  C   UNL     1       0.699  10.063  21.804  0.00  0.00    +0.000 A 
ATOM     13  C   UNL     1       1.144   8.744  21.677  0.00  0.00    +0.000 A 
ATOM     14  C   UNL     1       1.503   8.351  20.393  0.00  0.00    +0.000 A 
ATOM     15  O   UNL     1       2.017   7.149  20.024  0.00  0.00    +0.000 OA
ENDBRANCH   5   7
BRANCH   1  16
ATOM     16  C   UNL     1       6.477   5.913  16.382  0.00  0.00    +0.000 C 
BRANCH  16  20
ATOM     17  C   UNL     1       8.223   8.437  18.236  0.00  0.00    +0.000 A 
ATOM     18  N   UNL     1       8.525   7.368  18.993  0.00  0.00    +0.000 NA
ATOM     19  O   UNL     1       7.867   6.312  18.358  0.00  0.00    +0.000 OA
ATOM     20  C   UNL     1       7.236   6.847  17.273  0.00  0.00    +0.000 A 
ATOM     21  N   UNL     1       7.421   8.142  17.152  0.00  0.00    +0.000 NA
BRANCH  17  25
ATOM     22  C   UNL     1       9.638  12.423  18.919  0.00  0.00    +0.000 A 
ATOM     23  C   UNL     1       9.967  11.403  19.812  0.00  0.00    +0.000 A 
ATOM     24  C   UNL     1       9.497  10.098  19.598  0.00  0.00    +0.000 A 
ATOM     25  C   UNL     1       8.697   9.795  18.490  0.00  0.00    +0.000 A 
ATOM     26  C   UNL     1       8.369  10.829  17.602  0.00  0.00    +0.000 A 
ATOM     27  C   UNL     1       8.836  12.128  17.816  0.00  0.00    +0.000 A 
BRANCH  22  29
ATOM     28  C   UNL     1       9.831  14.538  17.852  0.00  0.00    +0.000 C 
ATOM     29  O   UNL     1      10.029  13.730  19.006  0.00  0.00    +0.000 OA
ENDBRANCH  22  29
ENDBRANCH  17  25
ENDBRANCH  16  20
ENDBRANCH   1  16
TORSDOF 5
ENDMDL
MODEL 3
REMARK VINA RESULT:      -8.4      0.895      1.277
REMARK  Name = 
REMARK  6 active torsions:
REMARK  status: ('A' for Active; 'I' for Inactive)
REMARK    1  A    between atoms: C_1  and  O_2
REMARK    2  A    between atoms: O_2  and  C_3
REMARK    3  A    between atoms: C_6  and  C_7
REMARK    4  A    between atoms: C_10  and  C_11
REMARK    5  A    between atoms: C_11  and  N_12
REMARK    6  A    between atoms: C_16  and  C_17
REMARK                            x       y       z     vdW  Elec       q    Type
REMARK                         _______ _______ _______ _____ _____    ______ ____
ROOT
ATOM      1  N   UNL     1       5.305   5.284  17.143  0.00  0.00    +0.000 NA
ATOM      2  C   UNL     1       5.565   4.327  18.235  0.00  0.00    +0.000 C 
ATOM      3  C   UNL     1       4.283   3.859  18.918  0.00  0.00    +0.000 C 
ATOM      4  C   UNL     1       3.464   5.036  19.418  0.00  0.00    +0.000 C 
ATOM      5  C   UNL     1       3.179   6.004  18.259  0.00  0.00    +0.000 C 
ATOM      6  C   UNL     1       4.502   6.445  17.613  0.00  0.00    +0.000 C 
ENDROOT
BRANCH   5   7
ATOM      7  C   UNL     1       2.333   7.127  18.765  0.00  0.00    +0.000 A 
ATOM      8  N   UNL     1       1.976   8.265  18.197  0.00  0.00    +0.000 NA
ATOM      9  C   UNL     1       1.429   8.989  19.238  0.00  0.00    +0.000 A 
ATOM     10  C   UNL     1       0.918  10.294  19.306  0.00  0.00    +0.000 A 
ATOM     11  C   UNL     1       0.496  10.777  20.556  0.00  0.00    +0.000 A 
ATOM     12  C   UNL     1       0.558   9.979  21.706  0.00  0.00    +0.000 A 
ATOM     13  C   UNL     1       1.031   8.664  21.647  0.00  0.00    +0.000 A 
ATOM     14  C   UNL     1       1.458   8.233  20.397  0.00  0.00    +0.000 A 
ATOM     15  O   UNL     1       2.009   7.028  20.097  0.00  0.00    +0.000 OA
ENDBRANCH   5   7
BRANCH   1  16
ATOM     16  C   UNL     1       6.584   5.763  16.554  0.00  0.00    +0.000 C 
BRANCH  16  20
ATOM     17  C   UNL     1       8.275   8.436  18.245  0.00  0.00    +0.000 A 
ATOM     18  N   UNL     1       8.566   7.430  19.088  0.00  0.00    +0.000 NA
ATOM     19  O   UNL     1       7.927   6.324  18.523  0.00  0.00    +0.000 OA
ATOM     20  C   UNL     1       7.319   6.769  17.386  0.00  0.00    +0.000 A 
ATOM     21  N   UNL     1       7.499   8.052  17.170  0.00  0.00    +0.000 NA
BRANCH  17  25
ATOM     22  C   UNL     1       9.615  12.470  18.771  0.00  0.00    +0.000 A 
ATOM     23  C   UNL     1       8.741  12.156  17.731  0.00  0.00    +0.000 A 
ATOM     24  C   UNL     1       8.307  10.834  17.548  0.00  0.00    +0.000 A 
ATOM     25  C   UNL     1       8.737   9.812  18.403  0.00  0.00    +0.000 A 
ATOM     26  C   UNL     1       9.619  10.139  19.443  0.00  0.00    +0.000 A 
ATOM     27  C   UNL     1      10.052  11.456  19.623  0.00  0.00    +0.000 A 
BRANCH  22  29
ATOM     28  C   UNL     1       9.434  14.452  20.071  0.00  0.00    +0.000 C 
ATOM     29  O   UNL     1      10.110  13.711  19.063  0.00  0.00    +0.000 OA
ENDBRANCH  22  29
ENDBRANCH  17  25
ENDBRANCH  16  20
ENDBRANCH   1  16
TORSDOF 5
ENDMDL
MODEL 4
REMARK VINA RESULT:      -8.1      1.277      1.863
REMARK  Name = 
REMARK  6 active torsions:
REMARK  status: ('A' for Active; 'I' for Inactive)
REMARK    1  A    between atoms: C_1  and  O_2
REMARK    2  A    between atoms: O_2  and  C_3
REMARK    3  A    between atoms: C_6  and  C_7
REMARK    4  A    between atoms: C_10  and  C_11
REMARK    5  A    between atoms: C_11  and  N_12
REMARK    6  A    between atoms: C_16  and  C_17
REMARK                            x       y       z     vdW  Elec       q    Type
REMARK                         _______ _______ _______ _____ _____    ______ ____
ROOT
ATOM      1  N   UNL     1       5.840   5.109  17.931  0.00  0.00    +0.000 NA
ATOM      2  C   UNL     1       5.476   3.848  18.603  0.00  0.00    +0.000 C 
ATOM      3  C   UNL     1       3.993   3.517  18.462  0.00  0.00    +0.000 C 
ATOM      4  C   UNL     1       3.124   4.661  18.958  0.00  0.00    +0.000 C 
ATOM      5  C   UNL     1       3.498   5.957  18.223  0.00  0.00    +0.000 C 
ATOM      6  C   UNL     1       4.998   6.242  18.402  0.00  0.00    +0.000 C 
ENDROOT
BRANCH   5   7
ATOM      7  C   UNL     1       2.599   7.054  18.692  0.00  0.00    +0.000 A 
ATOM      8  N   UNL     1       2.321   8.231  18.161  0.00  0.00    +0.000 NA
ATOM      9  C   UNL     1       1.649   8.892  19.171  0.00  0.00    +0.000 A 
ATOM     10  C   UNL     1       1.139  10.195  19.261  0.00  0.00    +0.000 A 
ATOM     11  C   UNL     1       0.565  10.601  20.478  0.00  0.00    +0.000 A 
ATOM     12  C   UNL     1       0.480   9.728  21.571  0.00  0.00    +0.000 A 
ATOM     13  C   UNL     1       0.951   8.414  21.485  0.00  0.00    +0.000 A 
ATOM     14  C   UNL     1       1.531   8.061  20.272  0.00  0.00    +0.000 A 
ATOM     15  O   UNL     1       2.111   6.872  19.964  0.00  0.00    +0.000 OA
ENDBRANCH   5   7
BRANCH   1  16
ATOM     16  C   UNL     1       7.276   5.424  18.153  0.00  0.00    +0.000 C 
BRANCH  16  20
ATOM     17  C   UNL     1       8.315   8.856  18.180  0.00  0.00    +0.000 A 
ATOM     18  N   UNL     1       7.507   8.885  17.106  0.00  0.00    +0.000 NA
ATOM     19  O   UNL     1       7.055   7.568  16.992  0.00  0.00    +0.000 OA
ATOM     20  C   UNL     1       7.628   6.873  18.016  0.00  0.00    +0.000 A 
ATOM     21  N   UNL     1       8.408   7.612  18.772  0.00  0.00    +0.000 NA
BRANCH  17  25
ATOM     22  C   UNL     1      10.450  12.238  19.715  0.00  0.00    +0.000 A 
ATOM     23  C   UNL     1       9.857  11.331  20.593  0.00  0.00    +0.000 A 
ATOM     24  C   UNL     1       9.148  10.227  20.094  0.00  0.00    +0.000 A 
ATOM     25  C   UNL     1       9.026  10.013  18.716  0.00  0.00    +0.000 A 
ATOM     26  C   UNL     1       9.622  10.934  17.843  0.00  0.00    +0.000 A 
ATOM     27  C   UNL     1      10.327  12.034  18.340  0.00  0.00    +0.000 A 
BRANCH  22  29
ATOM     28  C   UNL     1      11.225  14.403  19.112  0.00  0.00    +0.000 C 
ATOM     29  O   UNL     1      11.169  13.348  20.063  0.00  0.00    +0.000 OA
ENDBRANCH  22  29
ENDBRANCH  17  25
ENDBRANCH  16  20
ENDBRANCH   1  16
TORSDOF 5
ENDMDL
MODEL 5
REMARK VINA RESULT:      -8.1      1.172      1.583
REMARK  Name = 
REMARK  6 active torsions:
REMARK  status: ('A' for Active; 'I' for Inactive)
REMARK    1  A    between atoms: C_1  and  O_2
REMARK    2  A    between atoms: O_2  and  C_3
REMARK    3  A    between atoms: C_6  and  C_7
REMARK    4  A    between atoms: C_10  and  C_11
REMARK    5  A    between atoms: C_11  and  N_12
REMARK    6  A    between atoms: C_16  and  C_17
REMARK                            x       y       z     vdW  Elec       q    Type
REMARK                         _______ _______ _______ _____ _____    ______ ____
ROOT
ATOM      1  N   UNL     1       4.737   5.888  17.099  0.00  0.00    +0.000 NA
ATOM      2  C   UNL     1       4.927   5.036  18.288  0.00  0.00    +0.000 C 
ATOM      3  C   UNL     1       3.618   4.758  19.022  0.00  0.00    +0.000 C 
ATOM      4  C   UNL     1       2.909   6.050  19.393  0.00  0.00    +0.000 C 
ATOM      5  C   UNL     1       2.694   6.906  18.136  0.00  0.00    +0.000 C 
ATOM      6  C   UNL     1       4.042   7.159  17.441  0.00  0.00    +0.000 C 
ENDROOT
BRANCH   5   7
ATOM      7  C   UNL     1       1.954   8.147  18.519  0.00  0.00    +0.000 A 
ATOM      8  N   UNL     1       1.780   9.285  17.871  0.00  0.00    +0.000 NA
ATOM      9  C   UNL     1       1.248  10.126  18.829  0.00  0.00    +0.000 A 
ATOM     10  C   UNL     1       0.894  11.482  18.794  0.00  0.00    +0.000 A 
ATOM     11  C   UNL     1       0.442  12.081  19.982  0.00  0.00    +0.000 A 
ATOM     12  C   UNL     1       0.322  11.347  21.169  0.00  0.00    +0.000 A 
ATOM     13  C   UNL     1       0.637   9.985  21.211  0.00  0.00    +0.000 A 
ATOM     14  C   UNL     1       1.100   9.438  20.021  0.00  0.00    +0.000 A 
ATOM     15  O   UNL     1       1.524   8.162  19.823  0.00  0.00    +0.000 OA
ENDBRANCH   5   7
BRANCH   1  16
ATOM     16  C   UNL     1       6.045   6.188  16.457  0.00  0.00    +0.000 C 
BRANCH  16  20
ATOM     17  C   UNL     1       8.127   8.563  18.155  0.00  0.00    +0.000 A 
ATOM     18  N   UNL     1       8.502   7.446  18.803  0.00  0.00    +0.000 NA
ATOM     19  O   UNL     1       7.723   6.444  18.221  0.00  0.00    +0.000 OA
ATOM     20  C   UNL     1       6.958   7.053  17.271  0.00  0.00    +0.000 A 
ATOM     21  N   UNL     1       7.165   8.347  17.189  0.00  0.00    +0.000 NA
BRANCH  17  25
ATOM     22  C   UNL     1       9.726  12.459  18.943  0.00  0.00    +0.000 A 
ATOM     23  C   UNL     1       8.902  12.254  17.836  0.00  0.00    +0.000 A 
ATOM     24  C   UNL     1       8.384  10.977  17.568  0.00  0.00    +0.000 A 
ATOM     25  C   UNL     1       8.679   9.892  18.402  0.00  0.00    +0.000 A 
ATOM     26  C   UNL     1       9.512  10.109  19.509  0.00  0.00    +0.000 A 
ATOM     27  C   UNL     1      10.028  11.381  19.775  0.00  0.00    +0.000 A 
BRANCH  22  29
ATOM     28  C   UNL     1      11.444  14.065  18.601  0.00  0.00    +0.000 C 
ATOM     29  O   UNL     1      10.292  13.645  19.320  0.00  0.00    +0.000 OA
ENDBRANCH  22  29
ENDBRANCH  17  25
ENDBRANCH  16  20
ENDBRANCH   1  16
TORSDOF 5
ENDMDL
MODEL 6
REMARK VINA RESULT:      -8.1      0.706      1.132
REMARK  Name = 
REMARK  6 active torsions:
REMARK  status: ('A' for Active; 'I' for Inactive)
REMARK    1  A    between atoms: C_1  and  O_2
REMARK    2  A    between atoms: O_2  and  C_3
REMARK    3  A    between atoms: C_6  and  C_7
REMARK    4  A    between atoms: C_10  and  C_11
REMARK    5  A    between atoms: C_11  and  N_12
REMARK    6  A    between atoms: C_16  and  C_17
REMARK                            x       y       z     vdW  Elec       q    Type
REMARK                         _______ _______ _______ _____ _____    ______ ____
ROOT
ATOM      1  N   UNL     1       4.735   5.763  16.947  0.00  0.00    +0.000 NA
ATOM      2  C   UNL     1       5.025   4.550  17.734  0.00  0.00    +0.000 C 
ATOM      3  C   UNL     1       3.804   4.042  18.497  0.00  0.00    +0.000 C 
ATOM      4  C   UNL     1       3.216   5.129  19.380  0.00  0.00    +0.000 C 
ATOM      5  C   UNL     1       2.892   6.371  18.535  0.00  0.00    +0.000 C 
ATOM      6  C   UNL     1       4.155   6.840  17.795  0.00  0.00    +0.000 C 
ENDROOT
BRANCH   5   7
ATOM      7  C   UNL     1       2.272   7.406  19.416  0.00  0.00    +0.000 A 
ATOM      8  N   UNL     1       1.905   7.355  20.684  0.00  0.00    +0.000 NA
ATOM      9  C   UNL     1       1.165   8.510  20.854  0.00  0.00    +0.000 A 
ATOM     10  C   UNL     1       0.454   9.014  21.952  0.00  0.00    +0.000 A 
ATOM     11  C   UNL     1      -0.276  10.203  21.781  0.00  0.00    +0.000 A 
ATOM     12  C   UNL     1      -0.281  10.886  20.558  0.00  0.00    +0.000 A 
ATOM     13  C   UNL     1       0.453  10.415  19.464  0.00  0.00    +0.000 A 
ATOM     14  C   UNL     1       1.142   9.226  19.670  0.00  0.00    +0.000 A 
ATOM     15  O   UNL     1       1.873   8.540  18.752  0.00  0.00    +0.000 OA
ENDBRANCH   5   7
BRANCH   1  16
ATOM     16  C   UNL     1       5.967   6.258  16.278  0.00  0.00    +0.000 C 
BRANCH  16  20
ATOM     17  C   UNL     1       8.081   8.460  18.160  0.00  0.00    +0.000 A 
ATOM     18  N   UNL     1       8.406   7.296  18.749  0.00  0.00    +0.000 NA
ATOM     19  O   UNL     1       7.609   6.355  18.091  0.00  0.00    +0.000 OA
ATOM     20  C   UNL     1       6.886   7.043  17.161  0.00  0.00    +0.000 A 
ATOM     21  N   UNL     1       7.136   8.333  17.162  0.00  0.00    +0.000 NA
BRANCH  17  25
ATOM     22  C   UNL     1       9.835  12.254  19.097  0.00  0.00    +0.000 A 
ATOM     23  C   UNL     1       9.851  11.227  20.040  0.00  0.00    +0.000 A 
ATOM     24  C   UNL     1       9.268   9.985  19.741  0.00  0.00    +0.000 A 
ATOM     25  C   UNL     1       8.667   9.754  18.498  0.00  0.00    +0.000 A 
ATOM     26  C   UNL     1       8.653  10.796  17.560  0.00  0.00    +0.000 A 
ATOM     27  C   UNL     1       9.233  12.032  17.859  0.00  0.00    +0.000 A 
BRANCH  22  29
ATOM     28  C   UNL     1       9.461  14.599  19.202  0.00  0.00    +0.000 C 
ATOM     29  O   UNL     1      10.366  13.505  19.255  0.00  0.00    +0.000 OA
ENDBRANCH  22  29
ENDBRANCH  17  25
ENDBRANCH  16  20
ENDBRANCH   1  16
TORSDOF 5
ENDMDL
MODEL 7
REMARK VINA RESULT:      -8.1      4.063      8.483
REMARK  Name = 
REMARK  6 active torsions:
REMARK  status: ('A' for Active; 'I' for Inactive)
REMARK    1  A    between atoms: C_1  and  O_2
REMARK    2  A    between atoms: O_2  and  C_3
REMARK    3  A    between atoms: C_6  and  C_7
REMARK    4  A    between atoms: C_10  and  C_11
REMARK    5  A    between atoms: C_11  and  N_12
REMARK    6  A    between atoms: C_16  and  C_17
REMARK                            x       y       z     vdW  Elec       q    Type
REMARK                         _______ _______ _______ _____ _____    ______ ____
ROOT
ATOM      1  N   UNL     1       4.408   6.069  18.638  0.00  0.00    +0.000 NA
ATOM      2  C   UNL     1       5.162   5.336  19.672  0.00  0.00    +0.000 C 
ATOM      3  C   UNL     1       6.668   5.351  19.418  0.00  0.00    +0.000 C 
ATOM      4  C   UNL     1       6.997   4.821  18.033  0.00  0.00    +0.000 C 
ATOM      5  C   UNL     1       6.225   5.618  16.971  0.00  0.00    +0.000 C 
ATOM      6  C   UNL     1       4.719   5.565  17.273  0.00  0.00    +0.000 C 
ENDROOT
BRANCH   5   7
ATOM      7  C   UNL     1       6.603   5.110  15.617  0.00  0.00    +0.000 A 
ATOM      8  N   UNL     1       7.506   5.538  14.753  0.00  0.00    +0.000 NA
ATOM      9  C   UNL     1       7.206   4.842  13.598  0.00  0.00    +0.000 A 
ATOM     10  C   UNL     1       7.754   4.885  12.309  0.00  0.00    +0.000 A 
ATOM     11  C   UNL     1       7.164   4.092  11.309  0.00  0.00    +0.000 A 
ATOM     12  C   UNL     1       6.071   3.262  11.588  0.00  0.00    +0.000 A 
ATOM     13  C   UNL     1       5.536   3.180  12.878  0.00  0.00    +0.000 A 
ATOM     14  C   UNL     1       6.135   3.996  13.831  0.00  0.00    +0.000 A 
ATOM     15  O   UNL     1       5.761   4.140  15.129  0.00  0.00    +0.000 OA
ENDBRANCH   5   7
BRANCH   1  16
ATOM     16  C   UNL     1       2.946   5.969  18.889  0.00  0.00    +0.000 C 
BRANCH  16  20
ATOM     17  C   UNL     1       1.188   8.914  19.938  0.00  0.00    +0.000 A 
ATOM     18  N   UNL     1       1.586   9.323  18.721  0.00  0.00    +0.000 NA
ATOM     19  O   UNL     1       2.309   8.237  18.223  0.00  0.00    +0.000 OA
ATOM     20  C   UNL     1       2.271   7.273  19.186  0.00  0.00    +0.000 A 
ATOM     21  N   UNL     1       1.599   7.635  20.255  0.00  0.00    +0.000 NA
BRANCH  17  25
ATOM     22  C   UNL     1      -1.161  11.296  22.614  0.00  0.00    +0.000 A 
ATOM     23  C   UNL     1      -0.493  10.167  23.089  0.00  0.00    +0.000 A 
ATOM     24  C   UNL     1       0.269   9.377  22.214  0.00  0.00    +0.000 A 
ATOM     25  C   UNL     1       0.377   9.707  20.857  0.00  0.00    +0.000 A 
ATOM     26  C   UNL     1      -0.302  10.842  20.391  0.00  0.00    +0.000 A 
ATOM     27  C   UNL     1      -1.062  11.626  21.263  0.00  0.00    +0.000 A 
BRANCH  22  29
ATOM     28  C   UNL     1      -1.479  13.494  23.461  0.00  0.00    +0.000 C 
ATOM     29  O   UNL     1      -1.931  12.150  23.354  0.00  0.00    +0.000 OA
ENDBRANCH  22  29
ENDBRANCH  17  25
ENDBRANCH  16  20
ENDBRANCH   1  16
TORSDOF 5
ENDMDL
MODEL 8
REMARK VINA RESULT:      -7.9      3.529      8.334
REMARK  Name = 
REMARK  6 active torsions:
REMARK  status: ('A' for Active; 'I' for Inactive)
REMARK    1  A    between atoms: C_1  and  O_2
REMARK    2  A    between atoms: O_2  and  C_3
REMARK    3  A    between atoms: C_6  and  C_7
REMARK    4  A    between atoms: C_10  and  C_11
REMARK    5  A    between atoms: C_11  and  N_12
REMARK    6  A    between atoms: C_16  and  C_17
REMARK                            x       y       z     vdW  Elec       q    Type
REMARK                         _______ _______ _______ _____ _____    ______ ____
ROOT
ATOM      1  N   UNL     1       9.477  10.243  18.706  0.00  0.00    +0.000 NA
ATOM      2  C   UNL     1      10.517  11.128  18.149  0.00  0.00    +0.000 C 
ATOM      3  C   UNL     1      11.484  11.637  19.215  0.00  0.00    +0.000 C 
ATOM      4  C   UNL     1      10.741  12.324  20.348  0.00  0.00    +0.000 C 
ATOM      5  C   UNL     1       9.686  11.374  20.933  0.00  0.00    +0.000 C 
ATOM      6  C   UNL     1       8.739  10.899  19.820  0.00  0.00    +0.000 C 
ENDROOT
BRANCH   5   7
ATOM      7  C   UNL     1       9.004  12.055  22.075  0.00  0.00    +0.000 A 
ATOM      8  N   UNL     1       9.154  13.270  22.573  0.00  0.00    +0.000 NA
ATOM      9  C   UNL     1       8.454  13.222  23.763  0.00  0.00    +0.000 A 
ATOM     10  C   UNL     1       8.276  14.166  24.784  0.00  0.00    +0.000 A 
ATOM     11  C   UNL     1       7.557  13.779  25.928  0.00  0.00    +0.000 A 
ATOM     12  C   UNL     1       7.011  12.495  26.045  0.00  0.00    +0.000 A 
ATOM     13  C   UNL     1       7.149  11.554  25.020  0.00  0.00    +0.000 A 
ATOM     14  C   UNL     1       7.885  11.970  23.917  0.00  0.00    +0.000 A 
ATOM     15  O   UNL     1       8.207  11.226  22.827  0.00  0.00    +0.000 OA
ENDBRANCH   5   7
BRANCH   1  16
ATOM     16  C   UNL     1       8.521   9.829  17.644  0.00  0.00    +0.000 C 
BRANCH  16  20
ATOM     17  C   UNL     1       6.779   6.704  17.880  0.00  0.00    +0.000 A 
ATOM     18  N   UNL     1       7.809   6.438  18.703  0.00  0.00    +0.000 NA
ATOM     19  O   UNL     1       8.574   7.607  18.669  0.00  0.00    +0.000 OA
ATOM     20  C   UNL     1       7.926   8.468  17.833  0.00  0.00    +0.000 A 
ATOM     21  N   UNL     1       6.825   7.966  17.324  0.00  0.00    +0.000 NA
BRANCH  17  25
ATOM     22  C   UNL     1       3.565   3.979  17.108  0.00  0.00    +0.000 A 
ATOM     23  C   UNL     1       4.742   3.897  16.364  0.00  0.00    +0.000 A 
ATOM     24  C   UNL     1       5.794   4.794  16.607  0.00  0.00    +0.000 A 
ATOM     25  C   UNL     1       5.685   5.780  17.595  0.00  0.00    +0.000 A 
ATOM     26  C   UNL     1       4.495   5.855  18.333  0.00  0.00    +0.000 A 
ATOM     27  C   UNL     1       3.448   4.963  18.090  0.00  0.00    +0.000 A 
BRANCH  22  29
ATOM     28  C   UNL     1       1.669   2.982  18.138  0.00  0.00    +0.000 C 
ATOM     29  O   UNL     1       2.470   3.171  16.978  0.00  0.00    +0.000 OA
ENDBRANCH  22  29
ENDBRANCH  17  25
ENDBRANCH  16  20
ENDBRANCH   1  16
TORSDOF 5
ENDMDL
MODEL 9
REMARK VINA RESULT:      -7.9      4.406      8.410
REMARK  Name = 
REMARK  6 active torsions:
REMARK  status: ('A' for Active; 'I' for Inactive)
REMARK    1  A    between atoms: C_1  and  O_2
REMARK    2  A    between atoms: O_2  and  C_3
REMARK    3  A    between atoms: C_6  and  C_7
REMARK    4  A    between atoms: C_10  and  C_11
REMARK    5  A    between atoms: C_11  and  N_12
REMARK    6  A    between atoms: C_16  and  C_17
REMARK                            x       y       z     vdW  Elec       q    Type
REMARK                         _______ _______ _______ _____ _____    ______ ____
ROOT
ATOM      1  N   UNL     1       3.391   6.700  18.390  0.00  0.00    +0.000 NA
ATOM      2  C   UNL     1       2.794   5.471  18.947  0.00  0.00    +0.000 C 
ATOM      3  C   UNL     1       3.818   4.354  19.130  0.00  0.00    +0.000 C 
ATOM      4  C   UNL     1       4.547   4.058  17.830  0.00  0.00    +0.000 C 
ATOM      5  C   UNL     1       5.187   5.344  17.285  0.00  0.00    +0.000 C 
ATOM      6  C   UNL     1       4.112   6.429  17.117  0.00  0.00    +0.000 C 
ENDROOT
BRANCH   5   7
ATOM      7  C   UNL     1       5.937   5.017  16.035  0.00  0.00    +0.000 A 
ATOM      8  N   UNL     1       7.007   5.574  15.497  0.00  0.00    +0.000 NA
ATOM      9  C   UNL     1       7.064   5.017  14.234  0.00  0.00    +0.000 A 
ATOM     10  C   UNL     1       7.927   5.234  13.151  0.00  0.00    +0.000 A 
ATOM     11  C   UNL     1       7.670   4.552  11.950  0.00  0.00    +0.000 A 
ATOM     12  C   UNL     1       6.596   3.660  11.833  0.00  0.00    +0.000 A 
ATOM     13  C   UNL     1       5.747   3.405  12.915  0.00  0.00    +0.000 A 
ATOM     14  C   UNL     1       6.024   4.116  14.077  0.00  0.00    +0.000 A 
ATOM     15  O   UNL     1       5.315   4.089  15.235  0.00  0.00    +0.000 OA
ENDBRANCH   5   7
BRANCH   1  16
ATOM     16  C   UNL     1       2.345   7.733  18.166  0.00  0.00    +0.000 C 
BRANCH  16  20
ATOM     17  C   UNL     1       0.850   9.435  20.945  0.00  0.00    +0.000 A 
ATOM     18  N   UNL     1       1.271   8.325  21.575  0.00  0.00    +0.000 NA
ATOM     19  O   UNL     1       1.863   7.569  20.560  0.00  0.00    +0.000 OA
ATOM     20  C   UNL     1       1.749   8.302  19.416  0.00  0.00    +0.000 A 
ATOM     21  N   UNL     1       1.138   9.451  19.595  0.00  0.00    +0.000 NA
BRANCH  17  25
ATOM     22  C   UNL     1      -1.198  12.683  22.845  0.00  0.00    +0.000 A 
ATOM     23  C   UNL     1      -0.280  12.938  21.826  0.00  0.00    +0.000 A 
ATOM     24  C   UNL     1       0.401  11.878  21.208  0.00  0.00    +0.000 A 
ATOM     25  C   UNL     1       0.171  10.552  21.596  0.00  0.00    +0.000 A 
ATOM     26  C   UNL     1      -0.750  10.308  22.624  0.00  0.00    +0.000 A 
ATOM     27  C   UNL     1      -1.427  11.365  23.240  0.00  0.00    +0.000 A 
BRANCH  22  29
ATOM     28  C   UNL     1      -1.308  14.873  23.761  0.00  0.00    +0.000 C 
ATOM     29  O   UNL     1      -1.930  13.616  23.527  0.00  0.00    +0.000 OA
ENDBRANCH  22  29
ENDBRANCH  17  25
ENDBRANCH  16  20
ENDBRANCH   1  16
TORSDOF 5
ENDMDL
