MODEL 1
REMARK VINA RESULT:      -9.3      0.000      0.000
REMARK  Name = 
REMARK  2 active torsions:
REMARK  status: ('A' for Active; 'I' for Inactive)
REMARK    1  A    between atoms: C_2  and  C_15
REMARK    2  A    between atoms: N_3  and  C_4
REMARK                            x       y       z     vdW  Elec       q    Type
REMARK                         _______ _______ _______ _____ _____    ______ ____
ROOT
ATOM      1  O   UNL     1       2.400   6.704  20.562  0.00  0.00    +0.000 OA
ATOM      2  C   UNL     1       2.199   7.220  19.463  0.00  0.00    +0.000 C 
ATOM      3  N   UNL     1       1.561   8.437  19.280  0.00  0.00    +0.000 N 
ATOM      4  H   UNL     1       1.269   8.680  18.337  0.00  0.00    +0.000 HD
ENDROOT
BRANCH   2   5
ATOM      5  C   UNL     1       2.643   6.543  18.141  0.00  0.00    +0.000 C 
ATOM      6  C   UNL     1       3.725   7.435  17.461  0.00  0.00    +0.000 C 
ATOM      7  C   UNL     1       4.914   6.502  17.280  0.00  0.00    +0.000 C 
ATOM      8  C   UNL     1       6.302   7.117  17.249  0.00  0.00    +0.000 C 
ATOM      9  C   UNL     1       7.332   5.993  17.080  0.00  0.00    +0.000 C 
ATOM     10  C   UNL     1       7.175   4.902  18.145  0.00  0.00    +0.000 C 
ATOM     11  C   UNL     1       5.740   4.363  18.232  0.00  0.00    +0.000 C 
ATOM     12  C   UNL     1       4.772   5.522  18.454  0.00  0.00    +0.000 C 
ATOM     13  N   UNL     1       3.340   5.251  18.375  0.00  0.00    +0.000 N 
ATOM     14  C   UNL     1       2.739   4.353  19.224  0.00  0.00    +0.000 A 
ATOM     15  N   UNL     1       3.495   3.637  20.067  0.00  0.00    +0.000 NA
ATOM     16  C   UNL     1       2.887   2.748  20.869  0.00  0.00    +0.000 A 
ATOM     17  C   UNL     1       1.535   2.532  20.862  0.00  0.00    +0.000 A 
ATOM     18  C   UNL     1       0.834   3.296  19.965  0.00  0.00    +0.000 A 
ATOM     19  N   UNL     1       1.400   4.211  19.151  0.00  0.00    +0.000 NA
ENDBRANCH   2   5
BRANCH   3  20
ATOM     20  C   UNL     1       1.133   9.234  20.326  0.00  0.00    +0.000 A 
ATOM     21  C   UNL     1       1.275   9.085  21.719  0.00  0.00    +0.000 A 
ATOM     22  N   UNL     1       0.722  10.083  22.407  0.00  0.00    +0.000 NA
ATOM     23  N   UNL     1       0.187  10.894  21.453  0.00  0.00    +0.000 N 
ATOM     24  C   UNL     1      -0.555  12.082  21.779  0.00  0.00    +0.000 A 
ATOM     25  N   UNL     1      -0.700  12.414  23.084  0.00  0.00    +0.000 NA
ATOM     26  C   UNL     1      -1.423  13.513  23.356  0.00  0.00    +0.000 A 
ATOM     27  C   UNL     1      -2.007  14.291  22.387  0.00  0.00    +0.000 A 
ATOM     28  C   UNL     1      -1.805  13.881  21.091  0.00  0.00    +0.000 A 
ATOM     29  N   UNL     1      -1.088  12.792  20.754  0.00  0.00    +0.000 NA
ATOM     30  C   UNL     1       0.440  10.411  20.179  0.00  0.00    +0.000 A 
ENDBRANCH   3  20
TORSDOF 2
ENDMDL
MODEL 2
REMARK VINA RESULT:      -9.2      4.043      7.281
REMARK  Name = 
REMARK  2 active torsions:
REMARK  status: ('A' for Active; 'I' for Inactive)
REMARK    1  A    between atoms: C_2  and  C_15
REMARK    2  A    between atoms: N_3  and  C_4
REMARK                            x       y       z     vdW  Elec       q    Type
REMARK                         _______ _______ _______ _____ _____    ______ ____
ROOT
ATOM      1  O   UNL     1       5.805   5.571  18.960  0.00  0.00    +0.000 OA
ATOM      2  C   UNL     1       5.437   5.998  17.866  0.00  0.00    +0.000 C 
ATOM      3  N   UNL     1       5.998   7.094  17.229  0.00  0.00    +0.000 N 
ATOM      4  H   UNL     1       5.500   7.484  16.433  0.00  0.00    +0.000 HD
ENDROOT
BRANCH   2   5
ATOM      5  C   UNL     1       4.278   5.340  17.072  0.00  0.00    +0.000 C 
ATOM      6  C   UNL     1       4.520   3.802  17.015  0.00  0.00    +0.000 C 
ATOM      7  C   UNL     1       3.249   3.205  17.603  0.00  0.00    +0.000 C 
ATOM      8  C   UNL     1       3.348   1.849  18.279  0.00  0.00    +0.000 C 
ATOM      9  C   UNL     1       1.960   1.464  18.807  0.00  0.00    +0.000 C 
ATOM     10  C   UNL     1       1.364   2.550  19.709  0.00  0.00    +0.000 C 
ATOM     11  C   UNL     1       1.367   3.935  19.046  0.00  0.00    +0.000 C 
ATOM     12  C   UNL     1       2.782   4.282  18.593  0.00  0.00    +0.000 C 
ATOM     13  N   UNL     1       2.972   5.471  17.769  0.00  0.00    +0.000 N 
ATOM     14  C   UNL     1       2.623   6.718  18.229  0.00  0.00    +0.000 A 
ATOM     15  N   UNL     1       2.003   6.832  19.412  0.00  0.00    +0.000 NA
ATOM     16  C   UNL     1       1.650   8.060  19.829  0.00  0.00    +0.000 A 
ATOM     17  C   UNL     1       1.886   9.196  19.104  0.00  0.00    +0.000 A 
ATOM     18  C   UNL     1       2.515   8.994  17.902  0.00  0.00    +0.000 A 
ATOM     19  N   UNL     1       2.901   7.782  17.450  0.00  0.00    +0.000 NA
ENDBRANCH   2   5
BRANCH   3  20
ATOM     20  C   UNL     1       7.079   7.793  17.735  0.00  0.00    +0.000 A 
ATOM     21  C   UNL     1       8.150   7.378  18.548  0.00  0.00    +0.000 A 
ATOM     22  N   UNL     1       9.007   8.360  18.822  0.00  0.00    +0.000 NA
ATOM     23  N   UNL     1       8.481   9.450  18.195  0.00  0.00    +0.000 N 
ATOM     24  C   UNL     1       9.083  10.753  18.280  0.00  0.00    +0.000 A 
ATOM     25  N   UNL     1      10.230  10.888  18.987  0.00  0.00    +0.000 NA
ATOM     26  C   UNL     1      10.752  12.123  19.071  0.00  0.00    +0.000 A 
ATOM     27  C   UNL     1      10.180  13.225  18.484  0.00  0.00    +0.000 A 
ATOM     28  C   UNL     1       9.019  12.994  17.784  0.00  0.00    +0.000 A 
ATOM     29  N   UNL     1       8.450  11.779  17.660  0.00  0.00    +0.000 NA
ATOM     30  C   UNL     1       7.319   9.128  17.512  0.00  0.00    +0.000 A 
ENDBRANCH   3  20
TORSDOF 2
ENDMDL
MODEL 3
REMARK VINA RESULT:      -8.8      2.921      5.456
REMARK  Name = 
REMARK  2 active torsions:
REMARK  status: ('A' for Active; 'I' for Inactive)
REMARK    1  A    between atoms: C_2  and  C_15
REMARK    2  A    between atoms: N_3  and  C_4
REMARK                            x       y       z     vdW  Elec       q    Type
REMARK                         _______ _______ _______ _____ _____    ______ ____
ROOT
ATOM      1  O   UNL     1       3.791   5.060  16.535  0.00  0.00    +0.000 OA
ATOM      2  C   UNL     1       4.634   4.509  17.241  0.00  0.00    +0.000 C 
ATOM      3  N   UNL     1       4.619   4.524  18.627  0.00  0.00    +0.000 N 
ATOM      4  H   UNL     1       5.457   4.213  19.112  0.00  0.00    +0.000 HD
ENDROOT
BRANCH   2   5
ATOM      5  C   UNL     1       5.831   3.728  16.638  0.00  0.00    +0.000 C 
ATOM      6  C   UNL     1       5.352   2.998  15.347  0.00  0.00    +0.000 C 
ATOM      7  C   UNL     1       6.302   3.496  14.267  0.00  0.00    +0.000 C 
ATOM      8  C   UNL     1       5.799   3.522  12.834  0.00  0.00    +0.000 C 
ATOM      9  C   UNL     1       6.912   4.074  11.935  0.00  0.00    +0.000 C 
ATOM     10  C   UNL     1       7.427   5.432  12.422  0.00  0.00    +0.000 C 
ATOM     11  C   UNL     1       7.835   5.413  13.902  0.00  0.00    +0.000 C 
ATOM     12  C   UNL     1       6.670   4.907  14.748  0.00  0.00    +0.000 C 
ATOM     13  N   UNL     1       6.910   4.630  16.159  0.00  0.00    +0.000 N 
ATOM     14  C   UNL     1       7.334   5.618  17.016  0.00  0.00    +0.000 A 
ATOM     15  N   UNL     1       7.632   6.829  16.526  0.00  0.00    +0.000 NA
ATOM     16  C   UNL     1       8.067   7.771  17.379  0.00  0.00    +0.000 A 
ATOM     17  C   UNL     1       8.229   7.552  18.720  0.00  0.00    +0.000 A 
ATOM     18  C   UNL     1       7.912   6.287  19.141  0.00  0.00    +0.000 A 
ATOM     19  N   UNL     1       7.458   5.314  18.323  0.00  0.00    +0.000 NA
ENDBRANCH   2   5
BRANCH   3  20
ATOM     20  C   UNL     1       3.612   5.116  19.368  0.00  0.00    +0.000 A 
ATOM     21  C   UNL     1       2.792   4.602  20.389  0.00  0.00    +0.000 A 
ATOM     22  N   UNL     1       1.931   5.499  20.867  0.00  0.00    +0.000 NA
ATOM     23  N   UNL     1       2.174   6.622  20.133  0.00  0.00    +0.000 N 
ATOM     24  C   UNL     1       1.415   7.831  20.303  0.00  0.00    +0.000 A 
ATOM     25  N   UNL     1       0.444   7.857  21.246  0.00  0.00    +0.000 NA
ATOM     26  C   UNL     1      -0.266   8.992  21.359  0.00  0.00    +0.000 A 
ATOM     27  C   UNL     1      -0.051  10.097  20.573  0.00  0.00    +0.000 A 
ATOM     28  C   UNL     1       0.957   9.983  19.644  0.00  0.00    +0.000 A 
ATOM     29  N   UNL     1       1.705   8.874  19.486  0.00  0.00    +0.000 NA
ATOM     30  C   UNL     1       3.204   6.421  19.228  0.00  0.00    +0.000 A 
ENDBRANCH   3  20
TORSDOF 2
ENDMDL
MODEL 4
REMARK VINA RESULT:      -8.8      1.833      2.174
REMARK  Name = 
REMARK  2 active torsions:
REMARK  status: ('A' for Active; 'I' for Inactive)
REMARK    1  A    between atoms: C_2  and  C_15
REMARK    2  A    between atoms: N_3  and  C_4
REMARK                            x       y       z     vdW  Elec       q    Type
REMARK                         _______ _______ _______ _____ _____    ______ ____
ROOT
ATOM      1  O   UNL     1       2.198   7.398  19.731  0.00  0.00    +0.000 OA
ATOM      2  C   UNL     1       2.240   7.567  18.513  0.00  0.00    +0.000 C 
ATOM      3  N   UNL     1       1.558   8.571  17.843  0.00  0.00    +0.000 N 
ATOM      4  H   UNL     1       1.499   8.506  16.829  0.00  0.00    +0.000 HD
ENDROOT
BRANCH   2   5
ATOM      5  C   UNL     1       3.075   6.650  17.582  0.00  0.00    +0.000 C 
ATOM      6  C   UNL     1       4.292   7.461  17.042  0.00  0.00    +0.000 C 
ATOM      7  C   UNL     1       5.500   6.627  17.445  0.00  0.00    +0.000 C 
ATOM      8  C   UNL     1       6.820   7.347  17.662  0.00  0.00    +0.000 C 
ATOM      9  C   UNL     1       7.877   6.315  18.077  0.00  0.00    +0.000 C 
ATOM     10  C   UNL     1       7.432   5.487  19.286  0.00  0.00    +0.000 C 
ATOM     11  C   UNL     1       6.048   4.850  19.089  0.00  0.00    +0.000 C 
ATOM     12  C   UNL     1       5.033   5.933  18.733  0.00  0.00    +0.000 C 
ATOM     13  N   UNL     1       3.698   5.518  18.316  0.00  0.00    +0.000 N 
ATOM     14  C   UNL     1       2.889   4.785  19.151  0.00  0.00    +0.000 A 
ATOM     15  N   UNL     1       3.372   4.355  20.324  0.00  0.00    +0.000 NA
ATOM     16  C   UNL     1       2.570   3.620  21.112  0.00  0.00    +0.000 A 
ATOM     17  C   UNL     1       1.288   3.281  20.772  0.00  0.00    +0.000 A 
ATOM     18  C   UNL     1       0.872   3.751  19.553  0.00  0.00    +0.000 A 
ATOM     19  N   UNL     1       1.637   4.505  18.736  0.00  0.00    +0.000 NA
ENDBRANCH   2   5
BRANCH   3  20
ATOM     20  C   UNL     1       0.798   9.531  18.485  0.00  0.00    +0.000 A 
ATOM     21  C   UNL     1       1.108  10.390  19.556  0.00  0.00    +0.000 A 
ATOM     22  N   UNL     1       0.097  11.190  19.891  0.00  0.00    +0.000 NA
ATOM     23  N   UNL     1      -0.907  10.838  19.039  0.00  0.00    +0.000 N 
ATOM     24  C   UNL     1      -2.212  11.438  19.097  0.00  0.00    +0.000 A 
ATOM     25  N   UNL     1      -2.436  12.406  20.017  0.00  0.00    +0.000 NA
ATOM     26  C   UNL     1      -3.674  12.925  20.064  0.00  0.00    +0.000 A 
ATOM     27  C   UNL     1      -4.695  12.521  19.239  0.00  0.00    +0.000 A 
ATOM     28  C   UNL     1      -4.376  11.536  18.335  0.00  0.00    +0.000 A 
ATOM     29  N   UNL     1      -3.153  10.979  18.236  0.00  0.00    +0.000 NA
ATOM     30  C   UNL     1      -0.500   9.845  18.162  0.00  0.00    +0.000 A 
ENDBRANCH   3  20
TORSDOF 2
ENDMDL
MODEL 5
REMARK VINA RESULT:      -8.7      1.268      1.320
REMARK  Name = 
REMARK  2 active torsions:
REMARK  status: ('A' for Active; 'I' for Inactive)
REMARK    1  A    between atoms: C_2  and  C_15
REMARK    2  A    between atoms: N_3  and  C_4
REMARK                            x       y       z     vdW  Elec       q    Type
REMARK                         _______ _______ _______ _____ _____    ______ ____
ROOT
ATOM      1  O   UNL     1       1.560   8.334  17.614  0.00  0.00    +0.000 OA
ATOM      2  C   UNL     1       2.252   7.499  18.195  0.00  0.00    +0.000 C 
ATOM      3  N   UNL     1       2.318   7.367  19.574  0.00  0.00    +0.000 N 
ATOM      4  H   UNL     1       3.061   6.788  19.958  0.00  0.00    +0.000 HD
ENDROOT
BRANCH   2   5
ATOM      5  C   UNL     1       3.146   6.490  17.428  0.00  0.00    +0.000 C 
ATOM      6  C   UNL     1       4.385   7.248  16.864  0.00  0.00    +0.000 C 
ATOM      7  C   UNL     1       5.574   6.484  17.430  0.00  0.00    +0.000 C 
ATOM      8  C   UNL     1       6.875   7.243  17.633  0.00  0.00    +0.000 C 
ATOM      9  C   UNL     1       7.913   6.282  18.225  0.00  0.00    +0.000 C 
ATOM     10  C   UNL     1       7.406   5.596  19.498  0.00  0.00    +0.000 C 
ATOM     11  C   UNL     1       6.040   4.922  19.300  0.00  0.00    +0.000 C 
ATOM     12  C   UNL     1       5.040   5.940  18.762  0.00  0.00    +0.000 C 
ATOM     13  N   UNL     1       3.733   5.461  18.325  0.00  0.00    +0.000 N 
ATOM     14  C   UNL     1       2.883   4.820  19.194  0.00  0.00    +0.000 A 
ATOM     15  N   UNL     1       3.302   4.539  20.435  0.00  0.00    +0.000 NA
ATOM     16  C   UNL     1       2.462   3.890  21.259  0.00  0.00    +0.000 A 
ATOM     17  C   UNL     1       1.204   3.497  20.890  0.00  0.00    +0.000 A 
ATOM     18  C   UNL     1       0.854   3.814  19.603  0.00  0.00    +0.000 A 
ATOM     19  N   UNL     1       1.659   4.476  18.746  0.00  0.00    +0.000 NA
ENDBRANCH   2   5
BRANCH   3  20
ATOM     20  C   UNL     1       1.561   8.129  20.445  0.00  0.00    +0.000 A 
ATOM     21  C   UNL     1       0.749   7.754  21.533  0.00  0.00    +0.000 A 
ATOM     22  N   UNL     1       0.180   8.795  22.139  0.00  0.00    +0.000 NA
ATOM     23  N   UNL     1       0.607   9.875  21.426  0.00  0.00    +0.000 N 
ATOM     24  C   UNL     1       0.179  11.214  21.726  0.00  0.00    +0.000 A 
ATOM     25  N   UNL     1      -0.658  11.404  22.773  0.00  0.00    +0.000 NA
ATOM     26  C   UNL     1      -1.062  12.663  23.009  0.00  0.00    +0.000 A 
ATOM     27  C   UNL     1      -0.671  13.737  22.248  0.00  0.00    +0.000 A 
ATOM     28  C   UNL     1       0.182  13.451  21.207  0.00  0.00    +0.000 A 
ATOM     29  N   UNL     1       0.626  12.211  20.923  0.00  0.00    +0.000 NA
ATOM     30  C   UNL     1       1.463   9.499  20.404  0.00  0.00    +0.000 A 
ENDBRANCH   3  20
TORSDOF 2
ENDMDL
MODEL 6
REMARK VINA RESULT:      -8.6      1.735      2.090
REMARK  Name = 
REMARK  2 active torsions:
REMARK  status: ('A' for Active; 'I' for Inactive)
REMARK    1  A    between atoms: C_2  and  C_15
REMARK    2  A    between atoms: N_3  and  C_4
REMARK                            x       y       z     vdW  Elec       q    Type
REMARK                         _______ _______ _______ _____ _____    ______ ____
ROOT
ATOM      1  O   UNL     1       1.564   5.518  17.962  0.00  0.00    +0.000 OA
ATOM      2  C   UNL     1       2.639   6.114  18.012  0.00  0.00    +0.000 C 
ATOM      3  N   UNL     1       2.921   7.137  18.904  0.00  0.00    +0.000 N 
ATOM      4  H   UNL     1       3.757   7.693  18.736  0.00  0.00    +0.000 HD
ENDROOT
BRANCH   2   5
ATOM      5  C   UNL     1       3.814   5.775  17.058  0.00  0.00    +0.000 C 
ATOM      6  C   UNL     1       4.593   7.086  16.740  0.00  0.00    +0.000 C 
ATOM      7  C   UNL     1       6.026   6.774  17.148  0.00  0.00    +0.000 C 
ATOM      8  C   UNL     1       6.912   7.931  17.575  0.00  0.00    +0.000 C 
ATOM      9  C   UNL     1       8.290   7.377  17.957  0.00  0.00    +0.000 C 
ATOM     10  C   UNL     1       8.195   6.266  19.007  0.00  0.00    +0.000 C 
ATOM     11  C   UNL     1       7.216   5.153  18.603  0.00  0.00    +0.000 C 
ATOM     12  C   UNL     1       5.852   5.762  18.290  0.00  0.00    +0.000 C 
ATOM     13  N   UNL     1       4.831   4.903  17.702  0.00  0.00    +0.000 N 
ATOM     14  C   UNL     1       4.378   3.784  18.359  0.00  0.00    +0.000 A 
ATOM     15  N   UNL     1       4.958   3.419  19.510  0.00  0.00    +0.000 NA
ATOM     16  C   UNL     1       4.515   2.308  20.122  0.00  0.00    +0.000 A 
ATOM     17  C   UNL     1       3.507   1.528  19.623  0.00  0.00    +0.000 A 
ATOM     18  C   UNL     1       2.972   1.963  18.438  0.00  0.00    +0.000 A 
ATOM     19  N   UNL     1       3.376   3.080  17.797  0.00  0.00    +0.000 NA
ENDBRANCH   2   5
BRANCH   3  20
ATOM     20  C   UNL     1       2.035   7.560  19.877  0.00  0.00    +0.000 A 
ATOM     21  C   UNL     1       1.304   6.837  20.839  0.00  0.00    +0.000 A 
ATOM     22  N   UNL     1       0.551   7.616  21.614  0.00  0.00    +0.000 NA
ATOM     23  N   UNL     1       0.772   8.875  21.142  0.00  0.00    +0.000 N 
ATOM     24  C   UNL     1       0.102  10.028  21.680  0.00  0.00    +0.000 A 
ATOM     25  N   UNL     1      -0.756   9.851  22.711  0.00  0.00    +0.000 NA
ATOM     26  C   UNL     1      -1.388  10.944  23.172  0.00  0.00    +0.000 A 
ATOM     27  C   UNL     1      -1.201  12.200  22.649  0.00  0.00    +0.000 A 
ATOM     28  C   UNL     1      -0.308  12.286  21.607  0.00  0.00    +0.000 A 
ATOM     29  N   UNL     1       0.358  11.228  21.104  0.00  0.00    +0.000 NA
ATOM     30  C   UNL     1       1.685   8.870  20.099  0.00  0.00    +0.000 A 
ENDBRANCH   3  20
TORSDOF 2
ENDMDL
MODEL 7
REMARK VINA RESULT:      -8.6      1.519      2.256
REMARK  Name = 
REMARK  2 active torsions:
REMARK  status: ('A' for Active; 'I' for Inactive)
REMARK    1  A    between atoms: C_2  and  C_15
REMARK    2  A    between atoms: N_3  and  C_4
REMARK                            x       y       z     vdW  Elec       q    Type
REMARK                         _______ _______ _______ _____ _____    ______ ____
ROOT
ATOM      1  O   UNL     1       1.220   5.989  17.594  0.00  0.00    +0.000 OA
ATOM      2  C   UNL     1       2.403   6.325  17.606  0.00  0.00    +0.000 C 
ATOM      3  N   UNL     1       2.852   7.576  17.996  0.00  0.00    +0.000 N 
ATOM      4  H   UNL     1       3.817   7.819  17.784  0.00  0.00    +0.000 HD
ENDROOT
BRANCH   2   5
ATOM      5  C   UNL     1       3.538   5.362  17.170  0.00  0.00    +0.000 C 
ATOM      6  C   UNL     1       4.724   6.205  16.615  0.00  0.00    +0.000 C 
ATOM      7  C   UNL     1       5.914   5.772  17.460  0.00  0.00    +0.000 C 
ATOM      8  C   UNL     1       7.046   6.766  17.657  0.00  0.00    +0.000 C 
ATOM      9  C   UNL     1       8.113   6.121  18.551  0.00  0.00    +0.000 C 
ATOM     10  C   UNL     1       7.526   5.601  19.867  0.00  0.00    +0.000 C 
ATOM     11  C   UNL     1       6.317   4.678  19.651  0.00  0.00    +0.000 C 
ATOM     12  C   UNL     1       5.271   5.395  18.803  0.00  0.00    +0.000 C 
ATOM     13  N   UNL     1       4.128   4.628  18.320  0.00  0.00    +0.000 N 
ATOM     14  C   UNL     1       3.260   4.020  19.195  0.00  0.00    +0.000 A 
ATOM     15  N   UNL     1       3.526   4.044  20.508  0.00  0.00    +0.000 NA
ATOM     16  C   UNL     1       2.675   3.422  21.341  0.00  0.00    +0.000 A 
ATOM     17  C   UNL     1       1.556   2.759  20.914  0.00  0.00    +0.000 A 
ATOM     18  C   UNL     1       1.360   2.772  19.557  0.00  0.00    +0.000 A 
ATOM     19  N   UNL     1       2.179   3.396  18.685  0.00  0.00    +0.000 NA
ENDBRANCH   2   5
BRANCH   3  20
ATOM     20  C   UNL     1       2.015   8.568  18.473  0.00  0.00    +0.000 A 
ATOM     21  C   UNL     1       1.527   9.739  17.861  0.00  0.00    +0.000 A 
ATOM     22  N   UNL     1       0.728  10.447  18.657  0.00  0.00    +0.000 NA
ATOM     23  N   UNL     1       0.704   9.742  19.824  0.00  0.00    +0.000 N 
ATOM     24  C   UNL     1      -0.019  10.195  20.982  0.00  0.00    +0.000 A 
ATOM     25  N   UNL     1      -0.720  11.349  20.894  0.00  0.00    +0.000 NA
ATOM     26  C   UNL     1      -1.359  11.759  22.002  0.00  0.00    +0.000 A 
ATOM     27  C   UNL     1      -1.328  11.070  23.190  0.00  0.00    +0.000 A 
ATOM     28  C   UNL     1      -0.594   9.907  23.186  0.00  0.00    +0.000 A 
ATOM     29  N   UNL     1       0.065   9.442  22.107  0.00  0.00    +0.000 NA
ATOM     30  C   UNL     1       1.462   8.587  19.731  0.00  0.00    +0.000 A 
ENDBRANCH   3  20
TORSDOF 2
ENDMDL
MODEL 8
REMARK VINA RESULT:      -8.5      2.359      9.835
REMARK  Name = 
REMARK  2 active torsions:
REMARK  status: ('A' for Active; 'I' for Inactive)
REMARK    1  A    between atoms: C_2  and  C_15
REMARK    2  A    between atoms: N_3  and  C_4
REMARK                            x       y       z     vdW  Elec       q    Type
REMARK                         _______ _______ _______ _____ _____    ______ ____
ROOT
ATOM      1  O   UNL     1      -0.348  11.077  22.995  0.00  0.00    +0.000 OA
ATOM      2  C   UNL     1      -0.705  11.459  21.881  0.00  0.00    +0.000 C 
ATOM      3  N   UNL     1      -0.392  10.807  20.698  0.00  0.00    +0.000 N 
ATOM      4  H   UNL     1      -0.561  11.304  19.826  0.00  0.00    +0.000 HD
ENDROOT
BRANCH   2   5
ATOM      5  C   UNL     1      -1.555  12.741  21.682  0.00  0.00    +0.000 C 
ATOM      6  C   UNL     1      -2.748  12.710  22.684  0.00  0.00    +0.000 C 
ATOM      7  C   UNL     1      -2.612  14.012  23.461  0.00  0.00    +0.000 C 
ATOM      8  C   UNL     1      -3.161  14.055  24.877  0.00  0.00    +0.000 C 
ATOM      9  C   UNL     1      -2.894  15.448  25.462  0.00  0.00    +0.000 C 
ATOM     10  C   UNL     1      -1.416  15.838  25.372  0.00  0.00    +0.000 C 
ATOM     11  C   UNL     1      -0.851  15.690  23.952  0.00  0.00    +0.000 C 
ATOM     12  C   UNL     1      -1.098  14.271  23.449  0.00  0.00    +0.000 C 
ATOM     13  N   UNL     1      -0.811  13.974  22.050  0.00  0.00    +0.000 N 
ATOM     14  C   UNL     1       0.455  14.125  21.537  0.00  0.00    +0.000 A 
ATOM     15  N   UNL     1       1.417  14.653  22.306  0.00  0.00    +0.000 NA
ATOM     16  C   UNL     1       2.640  14.813  21.774  0.00  0.00    +0.000 A 
ATOM     17  C   UNL     1       2.950  14.471  20.485  0.00  0.00    +0.000 A 
ATOM     18  C   UNL     1       1.910  13.947  19.762  0.00  0.00    +0.000 A 
ATOM     19  N   UNL     1       0.670  13.755  20.258  0.00  0.00    +0.000 NA
ENDBRANCH   2   5
BRANCH   3  20
ATOM     20  C   UNL     1       0.310   9.617  20.650  0.00  0.00    +0.000 A 
ATOM     21  C   UNL     1       0.372   8.544  21.559  0.00  0.00    +0.000 A 
ATOM     22  N   UNL     1       1.169   7.559  21.147  0.00  0.00    +0.000 NA
ATOM     23  N   UNL     1       1.659   7.999  19.954  0.00  0.00    +0.000 N 
ATOM     24  C   UNL     1       2.611   7.242  19.187  0.00  0.00    +0.000 A 
ATOM     25  N   UNL     1       3.008   6.038  19.659  0.00  0.00    +0.000 NA
ATOM     26  C   UNL     1       3.920   5.369  18.933  0.00  0.00    +0.000 A 
ATOM     27  C   UNL     1       4.451   5.850  17.761  0.00  0.00    +0.000 A 
ATOM     28  C   UNL     1       3.987   7.079  17.356  0.00  0.00    +0.000 A 
ATOM     29  N   UNL     1       3.072   7.795  18.038  0.00  0.00    +0.000 NA
ATOM     30  C   UNL     1       1.138   9.239  19.621  0.00  0.00    +0.000 A 
ENDBRANCH   3  20
TORSDOF 2
ENDMDL
MODEL 9
REMARK VINA RESULT:      -8.4      1.724      2.037
REMARK  Name = 
REMARK  2 active torsions:
REMARK  status: ('A' for Active; 'I' for Inactive)
REMARK    1  A    between atoms: C_2  and  C_15
REMARK    2  A    between atoms: N_3  and  C_4
REMARK                            x       y       z     vdW  Elec       q    Type
REMARK                         _______ _______ _______ _____ _____    ______ ____
ROOT
ATOM      1  O   UNL     1       2.203   7.437  19.737  0.00  0.00    +0.000 OA
ATOM      2  C   UNL     1       2.296   7.588  18.519  0.00  0.00    +0.000 C 
ATOM      3  N   UNL     1       1.719   8.635  17.818  0.00  0.00    +0.000 N 
ATOM      4  H   UNL     1       1.686   8.563  16.804  0.00  0.00    +0.000 HD
ENDROOT
BRANCH   2   5
ATOM      5  C   UNL     1       3.083   6.595  17.624  0.00  0.00    +0.000 C 
ATOM      6  C   UNL     1       4.314   7.334  17.019  0.00  0.00    +0.000 C 
ATOM      7  C   UNL     1       5.502   6.483  17.444  0.00  0.00    +0.000 C 
ATOM      8  C   UNL     1       6.849   7.168  17.598  0.00  0.00    +0.000 C 
ATOM      9  C   UNL     1       7.879   6.125  18.048  0.00  0.00    +0.000 C 
ATOM     10  C   UNL     1       7.432   5.378  19.308  0.00  0.00    +0.000 C 
ATOM     11  C   UNL     1       6.024   4.779  19.171  0.00  0.00    +0.000 C 
ATOM     12  C   UNL     1       5.038   5.874  18.775  0.00  0.00    +0.000 C 
ATOM     13  N   UNL     1       3.682   5.483  18.407  0.00  0.00    +0.000 N 
ATOM     14  C   UNL     1       2.866   4.823  19.294  0.00  0.00    +0.000 A 
ATOM     15  N   UNL     1       3.359   4.440  20.480  0.00  0.00    +0.000 NA
ATOM     16  C   UNL     1       2.550   3.775  21.320  0.00  0.00    +0.000 A 
ATOM     17  C   UNL     1       1.251   3.463  21.022  0.00  0.00    +0.000 A 
ATOM     18  C   UNL     1       0.826   3.880  19.788  0.00  0.00    +0.000 A 
ATOM     19  N   UNL     1       1.598   4.563  18.918  0.00  0.00    +0.000 NA
ENDBRANCH   2   5
BRANCH   3  20
ATOM     20  C   UNL     1       1.021   9.662  18.427  0.00  0.00    +0.000 A 
ATOM     21  C   UNL     1      -0.220   9.668  19.091  0.00  0.00    +0.000 A 
ATOM     22  N   UNL     1      -0.556  10.871  19.554  0.00  0.00    +0.000 NA
ATOM     23  N   UNL     1       0.473  11.679  19.171  0.00  0.00    +0.000 N 
ATOM     24  C   UNL     1       0.482  13.092  19.436  0.00  0.00    +0.000 A 
ATOM     25  N   UNL     1      -0.559  13.628  20.115  0.00  0.00    +0.000 NA
ATOM     26  C   UNL     1      -0.534  14.955  20.321  0.00  0.00    +0.000 A 
ATOM     27  C   UNL     1       0.480  15.768  19.878  0.00  0.00    +0.000 A 
ATOM     28  C   UNL     1       1.498  15.138  19.201  0.00  0.00    +0.000 A 
ATOM     29  N   UNL     1       1.531  13.812  18.967  0.00  0.00    +0.000 NA
ATOM     30  C   UNL     1       1.453  10.964  18.501  0.00  0.00    +0.000 A 
ENDBRANCH   3  20
TORSDOF 2
ENDMDL
