MODEL 1
REMARK VINA RESULT:      -8.7      0.000      0.000
REMARK  Name = 
REMARK  5 active torsions:
REMARK  status: ('A' for Active; 'I' for Inactive)
REMARK    1  A    between atoms: C_1  and  C_2
REMARK    2  A    between atoms: C_5  and  C_6
REMARK    3  A    between atoms: C_10  and  N_11
REMARK    4  A    between atoms: C_12  and  C_14
REMARK    5  A    between atoms: C_14  and  C_15
REMARK                            x       y       z     vdW  Elec       q    Type
REMARK                         _______ _______ _______ _____ _____    ______ ____
ROOT
ATOM      1  N   UNL     1       3.245   6.301  19.142  0.00  0.00    +0.000 N 
ATOM      2  C   UNL     1       2.819   4.996  19.378  0.00  0.00    +0.000 C 
ATOM      3  O   UNL     1       1.663   4.647  19.607  0.00  0.00    +0.000 OA
ATOM      4  H   UNL     1       4.209   6.436  18.856  0.00  0.00    +0.000 HD
ENDROOT
BRANCH   1   9
ATOM      5  C   UNL     1       1.090   9.111  20.324  0.00  0.00    +0.000 A 
ATOM      6  C   UNL     1       0.879   9.795  19.117  0.00  0.00    +0.000 A 
ATOM      7  C   UNL     1       1.367   9.289  17.920  0.00  0.00    +0.000 A 
ATOM      8  C   UNL     1       2.107   8.112  17.916  0.00  0.00    +0.000 A 
ATOM      9  C   UNL     1       2.401   7.440  19.106  0.00  0.00    +0.000 A 
ATOM     10  C   UNL     1       1.852   7.924  20.308  0.00  0.00    +0.000 A 
BRANCH   5  15
ATOM     11  C   UNL     1      -1.956  11.712  22.970  0.00  0.00    +0.000 C 
ATOM     12  C   UNL     1      -0.835  10.787  22.736  0.00  0.00    +0.000 A 
ATOM     13  N   UNL     1      -0.087  10.120  23.588  0.00  0.00    +0.000 NA
ATOM     14  N   UNL     1       0.795   9.368  22.826  0.00  0.00    +0.000 NA
ATOM     15  C   UNL     1       0.521   9.632  21.564  0.00  0.00    +0.000 A 
ATOM     16  O   UNL     1      -0.505  10.537  21.434  0.00  0.00    +0.000 OA
ENDBRANCH   5  15
ENDBRANCH   1   9
BRANCH   2  17
ATOM     17  C   UNL     1       3.915   3.950  19.311  0.00  0.00    +0.000 C 
BRANCH  17  18
ATOM     18  C   UNL     1       4.873   4.207  18.184  0.00  0.00    +0.000 A 
ATOM     19  C   UNL     1       6.136   4.760  18.413  0.00  0.00    +0.000 A 
ATOM     20  F   UNL     1       6.524   5.048  19.663  0.00  0.00    +0.000 F 
ATOM     21  C   UNL     1       7.017   5.014  17.364  0.00  0.00    +0.000 A 
ATOM     22  C   UNL     1       6.643   4.711  16.055  0.00  0.00    +0.000 A 
ATOM     23  C   UNL     1       5.382   4.170  15.808  0.00  0.00    +0.000 A 
ATOM     24  C   UNL     1       4.511   3.934  16.867  0.00  0.00    +0.000 A 
ATOM     25  F   UNL     1       3.298   3.419  16.612  0.00  0.00    +0.000 F 
ENDBRANCH  17  18
ENDBRANCH   2  17
TORSDOF 4
ENDMDL
MODEL 2
REMARK VINA RESULT:      -8.7      0.469      1.724
REMARK  Name = 
REMARK  5 active torsions:
REMARK  status: ('A' for Active; 'I' for Inactive)
REMARK    1  A    between atoms: C_1  and  C_2
REMARK    2  A    between atoms: C_5  and  C_6
REMARK    3  A    between atoms: C_10  and  N_11
REMARK    4  A    between atoms: C_12  and  C_14
REMARK    5  A    between atoms: C_14  and  C_15
REMARK                            x       y       z     vdW  Elec       q    Type
REMARK                         _______ _______ _______ _____ _____    ______ ____
ROOT
ATOM      1  N   UNL     1       3.158   6.267  19.129  0.00  0.00    +0.000 N 
ATOM      2  C   UNL     1       2.756   5.024  18.648  0.00  0.00    +0.000 C 
ATOM      3  O   UNL     1       1.659   4.761  18.161  0.00  0.00    +0.000 OA
ATOM      4  H   UNL     1       4.129   6.374  19.402  0.00  0.00    +0.000 HD
ENDROOT
BRANCH   1   9
ATOM      5  C   UNL     1       1.103   9.137  20.347  0.00  0.00    +0.000 A 
ATOM      6  C   UNL     1       0.950   9.863  19.155  0.00  0.00    +0.000 A 
ATOM      7  C   UNL     1       1.442   9.371  17.955  0.00  0.00    +0.000 A 
ATOM      8  C   UNL     1       2.130   8.162  17.932  0.00  0.00    +0.000 A 
ATOM      9  C   UNL     1       2.366   7.444  19.108  0.00  0.00    +0.000 A 
ATOM     10  C   UNL     1       1.812   7.918  20.311  0.00  0.00    +0.000 A 
BRANCH   5  15
ATOM     11  C   UNL     1      -2.011  11.638  23.009  0.00  0.00    +0.000 C 
ATOM     12  C   UNL     1      -0.856  10.757  22.767  0.00  0.00    +0.000 A 
ATOM     13  N   UNL     1      -0.069  10.132  23.616  0.00  0.00    +0.000 NA
ATOM     14  N   UNL     1       0.833   9.409  22.849  0.00  0.00    +0.000 NA
ATOM     15  C   UNL     1       0.530   9.648  21.588  0.00  0.00    +0.000 A 
ATOM     16  O   UNL     1      -0.534  10.507  21.464  0.00  0.00    +0.000 OA
ENDBRANCH   5  15
ENDBRANCH   1   9
BRANCH   2  17
ATOM     17  C   UNL     1       3.812   3.938  18.738  0.00  0.00    +0.000 C 
BRANCH  17  18
ATOM     18  C   UNL     1       4.988   4.219  17.849  0.00  0.00    +0.000 A 
ATOM     19  C   UNL     1       4.931   3.988  16.472  0.00  0.00    +0.000 A 
ATOM     20  F   UNL     1       3.801   3.532  15.915  0.00  0.00    +0.000 F 
ATOM     21  C   UNL     1       6.030   4.233  15.650  0.00  0.00    +0.000 A 
ATOM     22  C   UNL     1       7.214   4.720  16.202  0.00  0.00    +0.000 A 
ATOM     23  C   UNL     1       7.291   4.944  17.576  0.00  0.00    +0.000 A 
ATOM     24  C   UNL     1       6.188   4.683  18.382  0.00  0.00    +0.000 A 
ATOM     25  F   UNL     1       6.280   4.898  19.704  0.00  0.00    +0.000 F 
ENDBRANCH  17  18
ENDBRANCH   2  17
TORSDOF 4
ENDMDL
MODEL 3
REMARK VINA RESULT:      -8.3      4.043      8.279
REMARK  Name = 
REMARK  5 active torsions:
REMARK  status: ('A' for Active; 'I' for Inactive)
REMARK    1  A    between atoms: C_1  and  C_2
REMARK    2  A    between atoms: C_5  and  C_6
REMARK    3  A    between atoms: C_10  and  N_11
REMARK    4  A    between atoms: C_12  and  C_14
REMARK    5  A    between atoms: C_14  and  C_15
REMARK                            x       y       z     vdW  Elec       q    Type
REMARK                         _______ _______ _______ _____ _____    ______ ____
ROOT
ATOM      1  N   UNL     1       4.040   5.062  18.191  0.00  0.00    +0.000 N 
ATOM      2  C   UNL     1       3.345   6.263  18.308  0.00  0.00    +0.000 C 
ATOM      3  O   UNL     1       3.657   7.330  17.783  0.00  0.00    +0.000 OA
ATOM      4  H   UNL     1       3.612   4.231  18.584  0.00  0.00    +0.000 HD
ENDROOT
BRANCH   1   9
ATOM      5  C   UNL     1       6.239   4.376  15.252  0.00  0.00    +0.000 A 
ATOM      6  C   UNL     1       7.497   4.668  15.802  0.00  0.00    +0.000 A 
ATOM      7  C   UNL     1       7.625   5.001  17.143  0.00  0.00    +0.000 A 
ATOM      8  C   UNL     1       6.494   5.086  17.947  0.00  0.00    +0.000 A 
ATOM      9  C   UNL     1       5.216   4.873  17.421  0.00  0.00    +0.000 A 
ATOM     10  C   UNL     1       5.098   4.477  16.076  0.00  0.00    +0.000 A 
BRANCH   5  15
ATOM     11  C   UNL     1       3.924   3.229  11.206  0.00  0.00    +0.000 C 
ATOM     12  C   UNL     1       5.102   3.468  12.057  0.00  0.00    +0.000 A 
ATOM     13  N   UNL     1       6.383   3.456  11.762  0.00  0.00    +0.000 NA
ATOM     14  N   UNL     1       7.055   3.786  12.929  0.00  0.00    +0.000 NA
ATOM     15  C   UNL     1       6.133   3.975  13.852  0.00  0.00    +0.000 A 
ATOM     16  O   UNL     1       4.864   3.780  13.365  0.00  0.00    +0.000 OA
ENDBRANCH   5  15
ENDBRANCH   1   9
BRANCH   2  17
ATOM     17  C   UNL     1       2.086   6.186  19.150  0.00  0.00    +0.000 C 
BRANCH  17  18
ATOM     18  C   UNL     1       1.705   4.770  19.470  0.00  0.00    +0.000 A 
ATOM     19  C   UNL     1       1.894   4.237  20.748  0.00  0.00    +0.000 A 
ATOM     20  F   UNL     1       2.398   5.001  21.726  0.00  0.00    +0.000 F 
ATOM     21  C   UNL     1       1.557   2.916  21.039  0.00  0.00    +0.000 A 
ATOM     22  C   UNL     1       1.017   2.102  20.043  0.00  0.00    +0.000 A 
ATOM     23  C   UNL     1       0.834   2.616  18.760  0.00  0.00    +0.000 A 
ATOM     24  C   UNL     1       1.188   3.932  18.485  0.00  0.00    +0.000 A 
ATOM     25  F   UNL     1       1.011   4.410  17.243  0.00  0.00    +0.000 F 
ENDBRANCH  17  18
ENDBRANCH   2  17
TORSDOF 4
ENDMDL
MODEL 4
REMARK VINA RESULT:      -8.2      3.953      8.231
REMARK  Name = 
REMARK  5 active torsions:
REMARK  status: ('A' for Active; 'I' for Inactive)
REMARK    1  A    between atoms: C_1  and  C_2
REMARK    2  A    between atoms: C_5  and  C_6
REMARK    3  A    between atoms: C_10  and  N_11
REMARK    4  A    between atoms: C_12  and  C_14
REMARK    5  A    between atoms: C_14  and  C_15
REMARK                            x       y       z     vdW  Elec       q    Type
REMARK                         _______ _______ _______ _____ _____    ______ ____
ROOT
ATOM      1  N   UNL     1       4.071   5.410  18.341  0.00  0.00    +0.000 N 
ATOM      2  C   UNL     1       3.143   6.440  18.477  0.00  0.00    +0.000 C 
ATOM      3  O   UNL     1       3.185   7.527  17.905  0.00  0.00    +0.000 OA
ATOM      4  H   UNL     1       3.856   4.523  18.784  0.00  0.00    +0.000 HD
ENDROOT
BRANCH   1   9
ATOM      5  C   UNL     1       6.220   4.911  15.329  0.00  0.00    +0.000 A 
ATOM      6  C   UNL     1       7.358   5.643  15.705  0.00  0.00    +0.000 A 
ATOM      7  C   UNL     1       7.448   6.217  16.965  0.00  0.00    +0.000 A 
ATOM      8  C   UNL     1       6.386   6.103  17.856  0.00  0.00    +0.000 A 
ATOM      9  C   UNL     1       5.208   5.445  17.494  0.00  0.00    +0.000 A 
ATOM     10  C   UNL     1       5.146   4.813  16.238  0.00  0.00    +0.000 A 
BRANCH   5  15
ATOM     11  C   UNL     1       4.075   3.198  11.392  0.00  0.00    +0.000 C 
ATOM     12  C   UNL     1       5.213   3.512  12.271  0.00  0.00    +0.000 A 
ATOM     13  N   UNL     1       6.505   3.362  12.078  0.00  0.00    +0.000 NA
ATOM     14  N   UNL     1       7.128   3.856  13.215  0.00  0.00    +0.000 NA
ATOM     15  C   UNL     1       6.169   4.269  14.019  0.00  0.00    +0.000 A 
ATOM     16  O   UNL     1       4.921   4.072  13.482  0.00  0.00    +0.000 OA
ENDBRANCH   5  15
ENDBRANCH   1   9
BRANCH   2  17
ATOM     17  C   UNL     1       1.986   6.131  19.408  0.00  0.00    +0.000 C 
BRANCH  17  18
ATOM     18  C   UNL     1       1.727   4.656  19.518  0.00  0.00    +0.000 A 
ATOM     19  C   UNL     1       1.262   3.916  18.429  0.00  0.00    +0.000 A 
ATOM     20  F   UNL     1       1.064   4.515  17.247  0.00  0.00    +0.000 F 
ATOM     21  C   UNL     1       1.006   2.550  18.537  0.00  0.00    +0.000 A 
ATOM     22  C   UNL     1       1.217   1.899  19.752  0.00  0.00    +0.000 A 
ATOM     23  C   UNL     1       1.669   2.627  20.853  0.00  0.00    +0.000 A 
ATOM     24  C   UNL     1       1.908   3.991  20.729  0.00  0.00    +0.000 A 
ATOM     25  F   UNL     1       2.338   4.678  21.799  0.00  0.00    +0.000 F 
ENDBRANCH  17  18
ENDBRANCH   2  17
TORSDOF 4
ENDMDL
MODEL 5
REMARK VINA RESULT:      -8.2      3.911      8.130
REMARK  Name = 
REMARK  5 active torsions:
REMARK  status: ('A' for Active; 'I' for Inactive)
REMARK    1  A    between atoms: C_1  and  C_2
REMARK    2  A    between atoms: C_5  and  C_6
REMARK    3  A    between atoms: C_10  and  N_11
REMARK    4  A    between atoms: C_12  and  C_14
REMARK    5  A    between atoms: C_14  and  C_15
REMARK                            x       y       z     vdW  Elec       q    Type
REMARK                         _______ _______ _______ _____ _____    ______ ____
ROOT
ATOM      1  N   UNL     1       4.151   5.344  18.955  0.00  0.00    +0.000 N 
ATOM      2  C   UNL     1       3.188   6.346  18.869  0.00  0.00    +0.000 C 
ATOM      3  O   UNL     1       3.313   7.416  18.277  0.00  0.00    +0.000 OA
ATOM      4  H   UNL     1       3.877   4.465  19.380  0.00  0.00    +0.000 HD
ENDROOT
BRANCH   1   9
ATOM      5  C   UNL     1       6.789   5.222  16.316  0.00  0.00    +0.000 A 
ATOM      6  C   UNL     1       7.906   5.648  17.053  0.00  0.00    +0.000 A 
ATOM      7  C   UNL     1       7.807   5.887  18.417  0.00  0.00    +0.000 A 
ATOM      8  C   UNL     1       6.582   5.742  19.058  0.00  0.00    +0.000 A 
ATOM      9  C   UNL     1       5.431   5.390  18.347  0.00  0.00    +0.000 A 
ATOM     10  C   UNL     1       5.550   5.090  16.977  0.00  0.00    +0.000 A 
BRANCH   5  15
ATOM     11  C   UNL     1       5.664   3.053  12.185  0.00  0.00    +0.000 C 
ATOM     12  C   UNL     1       6.424   3.960  13.061  0.00  0.00    +0.000 A 
ATOM     13  N   UNL     1       7.392   4.805  12.779  0.00  0.00    +0.000 NA
ATOM     14  N   UNL     1       7.720   5.433  13.971  0.00  0.00    +0.000 NA
ATOM     15  C   UNL     1       6.928   4.923  14.894  0.00  0.00    +0.000 A 
ATOM     16  O   UNL     1       6.081   3.971  14.383  0.00  0.00    +0.000 OA
ENDBRANCH   5  15
ENDBRANCH   1   9
BRANCH   2  17
ATOM     17  C   UNL     1       1.879   6.029  19.566  0.00  0.00    +0.000 C 
BRANCH  17  18
ATOM     18  C   UNL     1       1.633   4.551  19.660  0.00  0.00    +0.000 A 
ATOM     19  C   UNL     1       1.178   3.817  18.562  0.00  0.00    +0.000 A 
ATOM     20  F   UNL     1       0.978   4.427  17.385  0.00  0.00    +0.000 F 
ATOM     21  C   UNL     1       0.933   2.448  18.655  0.00  0.00    +0.000 A 
ATOM     22  C   UNL     1       1.146   1.787  19.865  0.00  0.00    +0.000 A 
ATOM     23  C   UNL     1       1.588   2.507  20.974  0.00  0.00    +0.000 A 
ATOM     24  C   UNL     1       1.816   3.875  20.864  0.00  0.00    +0.000 A 
ATOM     25  F   UNL     1       2.236   4.555  21.943  0.00  0.00    +0.000 F 
ENDBRANCH  17  18
ENDBRANCH   2  17
TORSDOF 4
ENDMDL
MODEL 6
REMARK VINA RESULT:      -8.0      1.290      1.548
REMARK  Name = 
REMARK  5 active torsions:
REMARK  status: ('A' for Active; 'I' for Inactive)
REMARK    1  A    between atoms: C_1  and  C_2
REMARK    2  A    between atoms: C_5  and  C_6
REMARK    3  A    between atoms: C_10  and  N_11
REMARK    4  A    between atoms: C_12  and  C_14
REMARK    5  A    between atoms: C_14  and  C_15
REMARK                            x       y       z     vdW  Elec       q    Type
REMARK                         _______ _______ _______ _____ _____    ______ ____
ROOT
ATOM      1  N   UNL     1       3.167   6.809  18.396  0.00  0.00    +0.000 N 
ATOM      2  C   UNL     1       2.790   5.543  17.954  0.00  0.00    +0.000 C 
ATOM      3  O   UNL     1       1.644   5.183  17.694  0.00  0.00    +0.000 OA
ATOM      4  H   UNL     1       4.160   7.005  18.466  0.00  0.00    +0.000 HD
ENDROOT
BRANCH   1   9
ATOM      5  C   UNL     1       1.036   9.328  20.142  0.00  0.00    +0.000 A 
ATOM      6  C   UNL     1       0.686  10.156  19.063  0.00  0.00    +0.000 A 
ATOM      7  C   UNL     1       1.075   9.839  17.769  0.00  0.00    +0.000 A 
ATOM      8  C   UNL     1       1.854   8.710  17.538  0.00  0.00    +0.000 A 
ATOM      9  C   UNL     1       2.283   7.900  18.592  0.00  0.00    +0.000 A 
ATOM     10  C   UNL     1       1.835   8.193  19.894  0.00  0.00    +0.000 A 
BRANCH   5  15
ATOM     11  C   UNL     1      -1.867  11.356  23.383  0.00  0.00    +0.000 C 
ATOM     12  C   UNL     1      -0.723  10.551  22.923  0.00  0.00    +0.000 A 
ATOM     13  N   UNL     1       0.149   9.841  23.606  0.00  0.00    +0.000 NA
ATOM     14  N   UNL     1       0.990   9.255  22.672  0.00  0.00    +0.000 NA
ATOM     15  C   UNL     1       0.570   9.651  21.487  0.00  0.00    +0.000 A 
ATOM     16  O   UNL     1      -0.517  10.487  21.575  0.00  0.00    +0.000 OA
ENDBRANCH   5  15
ENDBRANCH   1   9
BRANCH   2  17
ATOM     17  C   UNL     1       3.937   4.567  17.775  0.00  0.00    +0.000 C 
BRANCH  17  18
ATOM     18  C   UNL     1       5.274   5.230  17.934  0.00  0.00    +0.000 A 
ATOM     19  C   UNL     1       6.020   5.093  19.108  0.00  0.00    +0.000 A 
ATOM     20  F   UNL     1       5.558   4.334  20.110  0.00  0.00    +0.000 F 
ATOM     21  C   UNL     1       7.253   5.724  19.261  0.00  0.00    +0.000 A 
ATOM     22  C   UNL     1       7.764   6.509  18.227  0.00  0.00    +0.000 A 
ATOM     23  C   UNL     1       7.026   6.666  17.054  0.00  0.00    +0.000 A 
ATOM     24  C   UNL     1       5.792   6.038  16.924  0.00  0.00    +0.000 A 
ATOM     25  F   UNL     1       5.091   6.204  15.792  0.00  0.00    +0.000 F 
ENDBRANCH  17  18
ENDBRANCH   2  17
TORSDOF 4
ENDMDL
MODEL 7
REMARK VINA RESULT:      -7.8      3.601      5.116
REMARK  Name = 
REMARK  5 active torsions:
REMARK  status: ('A' for Active; 'I' for Inactive)
REMARK    1  A    between atoms: C_1  and  C_2
REMARK    2  A    between atoms: C_5  and  C_6
REMARK    3  A    between atoms: C_10  and  N_11
REMARK    4  A    between atoms: C_12  and  C_14
REMARK    5  A    between atoms: C_14  and  C_15
REMARK                            x       y       z     vdW  Elec       q    Type
REMARK                         _______ _______ _______ _____ _____    ______ ____
ROOT
ATOM      1  N   UNL     1       1.715   8.578  19.551  0.00  0.00    +0.000 N 
ATOM      2  C   UNL     1       1.715   7.438  20.351  0.00  0.00    +0.000 C 
ATOM      3  O   UNL     1       0.934   7.204  21.270  0.00  0.00    +0.000 OA
ATOM      4  H   UNL     1       2.344   8.593  18.755  0.00  0.00    +0.000 HD
ENDROOT
BRANCH   1   9
ATOM      5  C   UNL     1      -1.193  10.792  18.790  0.00  0.00    +0.000 A 
ATOM      6  C   UNL     1      -1.177  11.630  19.916  0.00  0.00    +0.000 A 
ATOM      7  C   UNL     1      -0.171  11.522  20.866  0.00  0.00    +0.000 A 
ATOM      8  C   UNL     1       0.812  10.548  20.726  0.00  0.00    +0.000 A 
ATOM      9  C   UNL     1       0.790   9.648  19.657  0.00  0.00    +0.000 A 
ATOM     10  C   UNL     1      -0.197   9.802  18.666  0.00  0.00    +0.000 A 
BRANCH   5  15
ATOM     11  C   UNL     1      -3.221  10.173  14.483  0.00  0.00    +0.000 C 
ATOM     12  C   UNL     1      -3.128  10.680  15.862  0.00  0.00    +0.000 A 
ATOM     13  N   UNL     1      -3.993  11.363  16.579  0.00  0.00    +0.000 NA
ATOM     14  N   UNL     1      -3.410  11.544  17.824  0.00  0.00    +0.000 NA
ATOM     15  C   UNL     1      -2.230  10.959  17.775  0.00  0.00    +0.000 A 
ATOM     16  O   UNL     1      -1.982  10.393  16.548  0.00  0.00    +0.000 OA
ENDBRANCH   5  15
ENDBRANCH   1   9
BRANCH   2  17
ATOM     17  C   UNL     1       2.779   6.417  19.997  0.00  0.00    +0.000 C 
BRANCH  17  18
ATOM     18  C   UNL     1       2.200   5.048  19.783  0.00  0.00    +0.000 A 
ATOM     19  C   UNL     1       1.747   4.639  18.526  0.00  0.00    +0.000 A 
ATOM     20  F   UNL     1       1.850   5.464  17.475  0.00  0.00    +0.000 F 
ATOM     21  C   UNL     1       1.193   3.375  18.331  0.00  0.00    +0.000 A 
ATOM     22  C   UNL     1       1.087   2.491  19.406  0.00  0.00    +0.000 A 
ATOM     23  C   UNL     1       1.523   2.890  20.669  0.00  0.00    +0.000 A 
ATOM     24  C   UNL     1       2.062   4.160  20.846  0.00  0.00    +0.000 A 
ATOM     25  F   UNL     1       2.472   4.530  22.069  0.00  0.00    +0.000 F 
ENDBRANCH  17  18
ENDBRANCH   2  17
TORSDOF 4
ENDMDL
MODEL 8
REMARK VINA RESULT:      -7.8      2.626      3.366
REMARK  Name = 
REMARK  5 active torsions:
REMARK  status: ('A' for Active; 'I' for Inactive)
REMARK    1  A    between atoms: C_1  and  C_2
REMARK    2  A    between atoms: C_5  and  C_6
REMARK    3  A    between atoms: C_10  and  N_11
REMARK    4  A    between atoms: C_12  and  C_14
REMARK    5  A    between atoms: C_14  and  C_15
REMARK                            x       y       z     vdW  Elec       q    Type
REMARK                         _______ _______ _______ _____ _____    ______ ____
ROOT
ATOM      1  N   UNL     1       2.947   7.094  18.567  0.00  0.00    +0.000 N 
ATOM      2  C   UNL     1       2.789   5.737  18.298  0.00  0.00    +0.000 C 
ATOM      3  O   UNL     1       1.868   5.026  18.695  0.00  0.00    +0.000 OA
ATOM      4  H   UNL     1       3.692   7.585  18.085  0.00  0.00    +0.000 HD
ENDROOT
BRANCH   1   9
ATOM      5  C   UNL     1       0.331   9.628  19.389  0.00  0.00    +0.000 A 
ATOM      6  C   UNL     1       0.122   9.346  20.748  0.00  0.00    +0.000 A 
ATOM      7  C   UNL     1       0.892   8.395  21.403  0.00  0.00    +0.000 A 
ATOM      8  C   UNL     1       1.858   7.683  20.699  0.00  0.00    +0.000 A 
ATOM      9  C   UNL     1       2.048   7.883  19.329  0.00  0.00    +0.000 A 
ATOM     10  C   UNL     1       1.306   8.890  18.685  0.00  0.00    +0.000 A 
BRANCH   5  15
ATOM     11  C   UNL     1      -3.443  11.402  17.012  0.00  0.00    +0.000 C 
ATOM     12  C   UNL     1      -2.133  11.455  17.680  0.00  0.00    +0.000 A 
ATOM     13  N   UNL     1      -1.345  12.477  17.933  0.00  0.00    +0.000 NA
ATOM     14  N   UNL     1      -0.253  11.968  18.619  0.00  0.00    +0.000 NA
ATOM     15  C   UNL     1      -0.454  10.670  18.734  0.00  0.00    +0.000 A 
ATOM     16  O   UNL     1      -1.632  10.274  18.149  0.00  0.00    +0.000 OA
ENDBRANCH   5  15
ENDBRANCH   1   9
BRANCH   2  17
ATOM     17  C   UNL     1       3.866   5.137  17.414  0.00  0.00    +0.000 C 
BRANCH  17  18
ATOM     18  C   UNL     1       5.236   5.635  17.774  0.00  0.00    +0.000 A 
ATOM     19  C   UNL     1       5.893   6.587  16.991  0.00  0.00    +0.000 A 
ATOM     20  F   UNL     1       5.291   7.097  15.908  0.00  0.00    +0.000 F 
ATOM     21  C   UNL     1       7.172   7.036  17.317  0.00  0.00    +0.000 A 
ATOM     22  C   UNL     1       7.817   6.532  18.447  0.00  0.00    +0.000 A 
ATOM     23  C   UNL     1       7.179   5.572  19.231  0.00  0.00    +0.000 A 
ATOM     24  C   UNL     1       5.907   5.128  18.883  0.00  0.00    +0.000 A 
ATOM     25  F   UNL     1       5.309   4.199  19.646  0.00  0.00    +0.000 F 
ENDBRANCH  17  18
ENDBRANCH   2  17
TORSDOF 4
ENDMDL
MODEL 9
REMARK VINA RESULT:      -7.8      4.115      8.709
REMARK  Name = 
REMARK  5 active torsions:
REMARK  status: ('A' for Active; 'I' for Inactive)
REMARK    1  A    between atoms: C_1  and  C_2
REMARK    2  A    between atoms: C_5  and  C_6
REMARK    3  A    between atoms: C_10  and  N_11
REMARK    4  A    between atoms: C_12  and  C_14
REMARK    5  A    between atoms: C_14  and  C_15
REMARK                            x       y       z     vdW  Elec       q    Type
REMARK                         _______ _______ _______ _____ _____    ______ ____
ROOT
ATOM      1  N   UNL     1       4.226   5.138  17.998  0.00  0.00    +0.000 N 
ATOM      2  C   UNL     1       3.430   6.272  18.140  0.00  0.00    +0.000 C 
ATOM      3  O   UNL     1       3.516   7.301  17.474  0.00  0.00    +0.000 OA
ATOM      4  H   UNL     1       3.974   4.317  18.538  0.00  0.00    +0.000 HD
ENDROOT
BRANCH   1   9
ATOM      5  C   UNL     1       5.922   4.325  14.773  0.00  0.00    +0.000 A 
ATOM      6  C   UNL     1       7.210   4.821  15.031  0.00  0.00    +0.000 A 
ATOM      7  C   UNL     1       7.536   5.335  16.278  0.00  0.00    +0.000 A 
ATOM      8  C   UNL     1       6.568   5.398  17.275  0.00  0.00    +0.000 A 
ATOM      9  C   UNL     1       5.256   4.982  17.036  0.00  0.00    +0.000 A 
ATOM     10  C   UNL     1       4.948   4.406  15.790  0.00  0.00    +0.000 A 
BRANCH   5  15
ATOM     11  C   UNL     1       6.742   1.570  10.929  0.00  0.00    +0.000 C 
ATOM     12  C   UNL     1       5.983   2.512  11.767  0.00  0.00    +0.000 A 
ATOM     13  N   UNL     1       4.783   3.025  11.600  0.00  0.00    +0.000 NA
ATOM     14  N   UNL     1       4.544   3.823  12.709  0.00  0.00    +0.000 NA
ATOM     15  C   UNL     1       5.616   3.739  13.471  0.00  0.00    +0.000 A 
ATOM     16  O   UNL     1       6.578   2.924  12.925  0.00  0.00    +0.000 OA
ENDBRANCH   5  15
ENDBRANCH   1   9
BRANCH   2  17
ATOM     17  C   UNL     1       2.362   6.165  19.212  0.00  0.00    +0.000 C 
BRANCH  17  18
ATOM     18  C   UNL     1       1.915   4.748  19.426  0.00  0.00    +0.000 A 
ATOM     19  C   UNL     1       1.323   4.009  18.399  0.00  0.00    +0.000 A 
ATOM     20  F   UNL     1       1.168   4.553  17.185  0.00  0.00    +0.000 F 
ATOM     21  C   UNL     1       0.893   2.699  18.604  0.00  0.00    +0.000 A 
ATOM     22  C   UNL     1       1.054   2.104  19.855  0.00  0.00    +0.000 A 
ATOM     23  C   UNL     1       1.632   2.833  20.894  0.00  0.00    +0.000 A 
ATOM     24  C   UNL     1       2.044   4.143  20.674  0.00  0.00    +0.000 A 
ATOM     25  F   UNL     1       2.593   4.833  21.686  0.00  0.00    +0.000 F 
ENDBRANCH  17  18
ENDBRANCH   2  17
TORSDOF 4
ENDMDL
