MODEL 1
REMARK VINA RESULT:      -8.7      0.000      0.000
REMARK  Name = 
REMARK  8 active torsions:
REMARK  status: ('A' for Active; 'I' for Inactive)
REMARK    1  A    between atoms: C_1  and  C_2
REMARK    2  A    between atoms: C_2  and  N_3
REMARK    3  A    between atoms: C_7  and  C_8
REMARK    4  A    between atoms: C_8  and  C_9
REMARK    5  A    between atoms: C_9  and  C_10
REMARK    6  A    between atoms: C_14  and  N_15
REMARK    7  A    between atoms: C_20  and  N_21
REMARK    8  A    between atoms: C_26  and  C_27
REMARK                            x       y       z     vdW  Elec       q    Type
REMARK                         _______ _______ _______ _____ _____    ______ ____
ROOT
ATOM      1  N   UNL     1       6.077   5.303  15.606  0.00  0.00    +0.000 N 
ATOM      2  C   UNL     1       4.950   6.264  15.719  0.00  0.00    +0.000 C 
ATOM      3  C   UNL     1       4.096   5.624  16.772  0.00  0.00    +0.000 A 
ATOM      4  C   UNL     1       4.330   4.248  16.709  0.00  0.00    +0.000 A 
ATOM      5  C   UNL     1       3.847   3.357  17.651  0.00  0.00    +0.000 A 
ATOM      6  C   UNL     1       3.109   3.866  18.725  0.00  0.00    +0.000 A 
ATOM      7  C   UNL     1       2.853   5.259  18.776  0.00  0.00    +0.000 A 
ATOM      8  C   UNL     1       3.359   6.167  17.817  0.00  0.00    +0.000 A 
ATOM      9  C   UNL     1       5.495   4.023  15.820  0.00  0.00    +0.000 C 
ATOM     10  O   UNL     1       5.947   2.930  15.532  0.00  0.00    +0.000 OA
ENDROOT
BRANCH   1  15
ATOM     11  C   UNL     1       7.807   7.596  17.847  0.00  0.00    +0.000 A 
ATOM     12  C   UNL     1       7.857   6.775  18.983  0.00  0.00    +0.000 A 
ATOM     13  C   UNL     1       7.715   5.394  18.865  0.00  0.00    +0.000 A 
ATOM     14  C   UNL     1       7.416   4.830  17.631  0.00  0.00    +0.000 A 
ATOM     15  C   UNL     1       7.136   5.667  16.539  0.00  0.00    +0.000 A 
ATOM     16  C   UNL     1       7.500   7.015  16.609  0.00  0.00    +0.000 A 
BRANCH  11  17
ATOM     17  C   UNL     1       8.053   9.082  17.973  0.00  0.00    +0.000 C 
BRANCH  17  18
ATOM     18  C   UNL     1       9.019   9.464  19.105  0.00  0.00    +0.000 C 
BRANCH  18  23
ATOM     19  N   UNL     1       9.486  11.835  19.942  0.00  0.00    +0.000 N 
ATOM     20  C   UNL     1       9.944  12.973  19.349  0.00  0.00    +0.000 A 
ATOM     21  N   UNL     1      10.205  12.735  18.087  0.00  0.00    +0.000 NA
ATOM     22  N   UNL     1       9.909  11.417  17.840  0.00  0.00    +0.000 NA
ATOM     23  C   UNL     1       9.477  10.874  18.962  0.00  0.00    +0.000 A 
BRANCH  19  25
ATOM     24  C   UNL     1       9.385  13.005  22.103  0.00  0.00    +0.000 C 
ATOM     25  C   UNL     1       9.083  11.736  21.325  0.00  0.00    +0.000 C 
ENDBRANCH  19  25
ENDBRANCH  18  23
ENDBRANCH  17  18
ENDBRANCH  11  17
ENDBRANCH   1  15
BRANCH   6  26
ATOM     26  N   UNL     1       2.627   3.020  19.749  0.00  0.00    +0.000 N 
ATOM     27  C   UNL     1       1.251   2.814  20.142  0.00  0.00    +0.000 C 
ATOM     28  C   UNL     1       1.806   2.518  21.548  0.00  0.00    +0.000 C 
ATOM     29  N   UNL     1       3.004   3.232  21.092  0.00  0.00    +0.000 NA
ATOM     30  H   UNL     1       3.885   2.759  21.296  0.00  0.00    +0.000 HD
ENDBRANCH   6  26
BRANCH   8  31
ATOM     31  C   UNL     1       3.176   7.643  18.047  0.00  0.00    +0.000 C 
ATOM     32  F   UNL     1       2.614   7.962  19.246  0.00  0.00    +0.000 F 
ATOM     33  F   UNL     1       4.357   8.321  18.005  0.00  0.00    +0.000 F 
ATOM     34  F   UNL     1       2.379   8.224  17.107  0.00  0.00    +0.000 F 
ENDBRANCH   8  31
TORSDOF 7
ENDMDL
MODEL 2
REMARK VINA RESULT:      -8.6      4.180      7.046
REMARK  Name = 
REMARK  8 active torsions:
REMARK  status: ('A' for Active; 'I' for Inactive)
REMARK    1  A    between atoms: C_1  and  C_2
REMARK    2  A    between atoms: C_2  and  N_3
REMARK    3  A    between atoms: C_7  and  C_8
REMARK    4  A    between atoms: C_8  and  C_9
REMARK    5  A    between atoms: C_9  and  C_10
REMARK    6  A    between atoms: C_14  and  N_15
REMARK    7  A    between atoms: C_20  and  N_21
REMARK    8  A    between atoms: C_26  and  C_27
REMARK                            x       y       z     vdW  Elec       q    Type
REMARK                         _______ _______ _______ _____ _____    ______ ____
ROOT
ATOM      1  N   UNL     1       3.953   4.450  19.179  0.00  0.00    +0.000 N 
ATOM      2  C   UNL     1       5.319   5.027  19.257  0.00  0.00    +0.000 C 
ATOM      3  C   UNL     1       5.791   4.912  17.839  0.00  0.00    +0.000 A 
ATOM      4  C   UNL     1       5.114   3.831  17.268  0.00  0.00    +0.000 A 
ATOM      5  C   UNL     1       5.165   3.538  15.916  0.00  0.00    +0.000 A 
ATOM      6  C   UNL     1       5.913   4.379  15.085  0.00  0.00    +0.000 A 
ATOM      7  C   UNL     1       6.617   5.462  15.669  0.00  0.00    +0.000 A 
ATOM      8  C   UNL     1       6.552   5.764  17.048  0.00  0.00    +0.000 A 
ATOM      9  C   UNL     1       4.043   3.417  18.205  0.00  0.00    +0.000 C 
ATOM     10  O   UNL     1       3.282   2.485  18.021  0.00  0.00    +0.000 OA
ENDROOT
BRANCH   1  15
ATOM     11  C   UNL     1       1.869   7.308  20.050  0.00  0.00    +0.000 A 
ATOM     12  C   UNL     1       2.287   8.184  19.039  0.00  0.00    +0.000 A 
ATOM     13  C   UNL     1       2.898   7.694  17.886  0.00  0.00    +0.000 A 
ATOM     14  C   UNL     1       3.191   6.340  17.777  0.00  0.00    +0.000 A 
ATOM     15  C   UNL     1       2.985   5.499  18.882  0.00  0.00    +0.000 A 
ATOM     16  C   UNL     1       2.176   5.945  19.932  0.00  0.00    +0.000 A 
BRANCH  11  17
ATOM     17  C   UNL     1       1.127   7.838  21.255  0.00  0.00    +0.000 C 
BRANCH  17  18
ATOM     18  C   UNL     1       1.575   9.238  21.701  0.00  0.00    +0.000 C 
BRANCH  18  23
ATOM     19  N   UNL     1      -0.290  10.951  21.333  0.00  0.00    +0.000 N 
ATOM     20  C   UNL     1      -1.239  11.501  22.140  0.00  0.00    +0.000 A 
ATOM     21  N   UNL     1      -1.141  10.990  23.343  0.00  0.00    +0.000 NA
ATOM     22  N   UNL     1      -0.105  10.090  23.332  0.00  0.00    +0.000 NA
ATOM     23  C   UNL     1       0.407  10.065  22.117  0.00  0.00    +0.000 A 
BRANCH  19  25
ATOM     24  C   UNL     1      -0.702  10.269  19.006  0.00  0.00    +0.000 C 
ATOM     25  C   UNL     1      -0.093  11.296  19.945  0.00  0.00    +0.000 C 
ENDBRANCH  19  25
ENDBRANCH  18  23
ENDBRANCH  17  18
ENDBRANCH  11  17
ENDBRANCH   1  15
BRANCH   6  26
ATOM     26  N   UNL     1       5.970   4.168  13.689  0.00  0.00    +0.000 N 
ATOM     27  C   UNL     1       4.910   3.691  12.830  0.00  0.00    +0.000 C 
ATOM     28  C   UNL     1       6.029   3.113  11.944  0.00  0.00    +0.000 C 
ATOM     29  N   UNL     1       6.869   3.228  13.143  0.00  0.00    +0.000 NA
ATOM     30  H   UNL     1       7.782   3.656  12.982  0.00  0.00    +0.000 HD
ENDBRANCH   6  26
BRANCH   8  31
ATOM     31  C   UNL     1       7.196   7.031  17.546  0.00  0.00    +0.000 C 
ATOM     32  F   UNL     1       6.326   8.050  17.786  0.00  0.00    +0.000 F 
ATOM     33  F   UNL     1       7.870   6.841  18.714  0.00  0.00    +0.000 F 
ATOM     34  F   UNL     1       8.109   7.533  16.666  0.00  0.00    +0.000 F 
ENDBRANCH   8  31
TORSDOF 7
ENDMDL
MODEL 3
REMARK VINA RESULT:      -8.5      0.702      1.385
REMARK  Name = 
REMARK  8 active torsions:
REMARK  status: ('A' for Active; 'I' for Inactive)
REMARK    1  A    between atoms: C_1  and  C_2
REMARK    2  A    between atoms: C_2  and  N_3
REMARK    3  A    between atoms: C_7  and  C_8
REMARK    4  A    between atoms: C_8  and  C_9
REMARK    5  A    between atoms: C_9  and  C_10
REMARK    6  A    between atoms: C_14  and  N_15
REMARK    7  A    between atoms: C_20  and  N_21
REMARK    8  A    between atoms: C_26  and  C_27
REMARK                            x       y       z     vdW  Elec       q    Type
REMARK                         _______ _______ _______ _____ _____    ______ ____
ROOT
ATOM      1  N   UNL     1       6.063   5.265  15.624  0.00  0.00    +0.000 N 
ATOM      2  C   UNL     1       4.918   6.205  15.710  0.00  0.00    +0.000 C 
ATOM      3  C   UNL     1       4.105   5.611  16.821  0.00  0.00    +0.000 A 
ATOM      4  C   UNL     1       4.369   4.239  16.833  0.00  0.00    +0.000 A 
ATOM      5  C   UNL     1       3.931   3.395  17.838  0.00  0.00    +0.000 A 
ATOM      6  C   UNL     1       3.210   3.951  18.900  0.00  0.00    +0.000 A 
ATOM      7  C   UNL     1       2.923   5.339  18.876  0.00  0.00    +0.000 A 
ATOM      8  C   UNL     1       3.383   6.199  17.852  0.00  0.00    +0.000 A 
ATOM      9  C   UNL     1       5.517   3.987  15.928  0.00  0.00    +0.000 C 
ATOM     10  O   UNL     1       5.987   2.889  15.692  0.00  0.00    +0.000 OA
ENDROOT
BRANCH   1  15
ATOM     11  C   UNL     1       7.701   7.659  17.827  0.00  0.00    +0.000 A 
ATOM     12  C   UNL     1       7.895   6.822  18.934  0.00  0.00    +0.000 A 
ATOM     13  C   UNL     1       7.875   5.436  18.786  0.00  0.00    +0.000 A 
ATOM     14  C   UNL     1       7.558   4.874  17.555  0.00  0.00    +0.000 A 
ATOM     15  C   UNL     1       7.138   5.705  16.505  0.00  0.00    +0.000 A 
ATOM     16  C   UNL     1       7.377   7.080  16.592  0.00  0.00    +0.000 A 
BRANCH  11  17
ATOM     17  C   UNL     1       7.814   9.158  17.980  0.00  0.00    +0.000 C 
BRANCH  17  18
ATOM     18  C   UNL     1       9.251   9.660  18.190  0.00  0.00    +0.000 C 
BRANCH  18  23
ATOM     19  N   UNL     1       9.330  12.112  18.915  0.00  0.00    +0.000 N 
ATOM     20  C   UNL     1       9.396  12.738  20.123  0.00  0.00    +0.000 A 
ATOM     21  N   UNL     1       9.394  11.843  21.081  0.00  0.00    +0.000 NA
ATOM     22  N   UNL     1       9.330  10.604  20.495  0.00  0.00    +0.000 NA
ATOM     23  C   UNL     1       9.289  10.767  19.186  0.00  0.00    +0.000 A 
BRANCH  19  25
ATOM     24  C   UNL     1      10.721  13.262  17.244  0.00  0.00    +0.000 C 
ATOM     25  C   UNL     1       9.333  12.789  17.640  0.00  0.00    +0.000 C 
ENDBRANCH  19  25
ENDBRANCH  18  23
ENDBRANCH  17  18
ENDBRANCH  11  17
ENDBRANCH   1  15
BRANCH   6  26
ATOM     26  N   UNL     1       2.773   3.157  19.984  0.00  0.00    +0.000 N 
ATOM     27  C   UNL     1       1.599   2.315  20.040  0.00  0.00    +0.000 C 
ATOM     28  C   UNL     1       1.599   2.593  21.555  0.00  0.00    +0.000 C 
ATOM     29  N   UNL     1       2.435   3.752  21.218  0.00  0.00    +0.000 NA
ATOM     30  H   UNL     1       3.265   3.862  21.803  0.00  0.00    +0.000 HD
ENDBRANCH   6  26
BRANCH   8  31
ATOM     31  C   UNL     1       3.173   7.682  18.000  0.00  0.00    +0.000 C 
ATOM     32  F   UNL     1       2.592   8.055  19.174  0.00  0.00    +0.000 F 
ATOM     33  F   UNL     1       4.342   8.377  17.932  0.00  0.00    +0.000 F 
ATOM     34  F   UNL     1       2.375   8.197  17.022  0.00  0.00    +0.000 F 
ENDBRANCH   8  31
TORSDOF 7
ENDMDL
MODEL 4
REMARK VINA RESULT:      -8.4      4.686      7.828
REMARK  Name = 
REMARK  8 active torsions:
REMARK  status: ('A' for Active; 'I' for Inactive)
REMARK    1  A    between atoms: C_1  and  C_2
REMARK    2  A    between atoms: C_2  and  N_3
REMARK    3  A    between atoms: C_7  and  C_8
REMARK    4  A    between atoms: C_8  and  C_9
REMARK    5  A    between atoms: C_9  and  C_10
REMARK    6  A    between atoms: C_14  and  N_15
REMARK    7  A    between atoms: C_20  and  N_21
REMARK    8  A    between atoms: C_26  and  C_27
REMARK                            x       y       z     vdW  Elec       q    Type
REMARK                         _______ _______ _______ _____ _____    ______ ____
ROOT
ATOM      1  N   UNL     1       2.501   7.718  19.306  0.00  0.00    +0.000 N 
ATOM      2  C   UNL     1       2.192   8.493  20.534  0.00  0.00    +0.000 C 
ATOM      3  C   UNL     1       1.002   9.298  20.106  0.00  0.00    +0.000 A 
ATOM      4  C   UNL     1       1.102   9.474  18.724  0.00  0.00    +0.000 A 
ATOM      5  C   UNL     1       0.086  10.018  17.957  0.00  0.00    +0.000 A 
ATOM      6  C   UNL     1      -1.101  10.387  18.600  0.00  0.00    +0.000 A 
ATOM      7  C   UNL     1      -1.193  10.229  20.005  0.00  0.00    +0.000 A 
ATOM      8  C   UNL     1      -0.156   9.662  20.782  0.00  0.00    +0.000 A 
ATOM      9  C   UNL     1       2.183   8.590  18.228  0.00  0.00    +0.000 C 
ATOM     10  O   UNL     1       2.545   8.519  17.068  0.00  0.00    +0.000 OA
ENDROOT
BRANCH   1  15
ATOM     11  C   UNL     1       2.072   4.193  18.496  0.00  0.00    +0.000 A 
ATOM     12  C   UNL     1       1.799   3.717  19.786  0.00  0.00    +0.000 A 
ATOM     13  C   UNL     1       1.355   4.585  20.782  0.00  0.00    +0.000 A 
ATOM     14  C   UNL     1       1.281   5.950  20.530  0.00  0.00    +0.000 A 
ATOM     15  C   UNL     1       1.774   6.455  19.317  0.00  0.00    +0.000 A 
ATOM     16  C   UNL     1       1.999   5.571  18.257  0.00  0.00    +0.000 A 
BRANCH  11  17
ATOM     17  C   UNL     1       2.466   3.230  17.399  0.00  0.00    +0.000 C 
BRANCH  17  18
ATOM     18  C   UNL     1       3.801   2.511  17.645  0.00  0.00    +0.000 C 
BRANCH  18  23
ATOM     19  N   UNL     1       5.582   4.223  16.983  0.00  0.00    +0.000 N 
ATOM     20  C   UNL     1       6.504   4.944  17.680  0.00  0.00    +0.000 A 
ATOM     21  N   UNL     1       6.394   4.678  18.958  0.00  0.00    +0.000 NA
ATOM     22  N   UNL     1       5.383   3.761  19.109  0.00  0.00    +0.000 NA
ATOM     23  C   UNL     1       4.892   3.489  17.915  0.00  0.00    +0.000 A 
BRANCH  19  25
ATOM     24  C   UNL     1       6.748   4.519  14.838  0.00  0.00    +0.000 C 
ATOM     25  C   UNL     1       5.432   4.253  15.547  0.00  0.00    +0.000 C 
ENDBRANCH  19  25
ENDBRANCH  18  23
ENDBRANCH  17  18
ENDBRANCH  11  17
ENDBRANCH   1  15
BRANCH   6  26
ATOM     26  N   UNL     1      -2.198  10.903  17.872  0.00  0.00    +0.000 N 
ATOM     27  C   UNL     1      -3.389  10.196  17.461  0.00  0.00    +0.000 C 
ATOM     28  C   UNL     1      -3.439  11.179  16.276  0.00  0.00    +0.000 C 
ATOM     29  N   UNL     1      -2.018  11.410  16.568  0.00  0.00    +0.000 NA
ATOM     30  H   UNL     1      -1.744  12.393  16.599  0.00  0.00    +0.000 HD
ENDBRANCH   6  26
BRANCH   8  31
ATOM     31  C   UNL     1      -0.411   9.380  22.238  0.00  0.00    +0.000 C 
ATOM     32  F   UNL     1      -1.253  10.263  22.845  0.00  0.00    +0.000 F 
ATOM     33  F   UNL     1      -0.966   8.151  22.436  0.00  0.00    +0.000 F 
ATOM     34  F   UNL     1       0.731   9.398  22.982  0.00  0.00    +0.000 F 
ENDBRANCH   8  31
TORSDOF 7
ENDMDL
MODEL 5
REMARK VINA RESULT:      -8.3      4.024      6.959
REMARK  Name = 
REMARK  8 active torsions:
REMARK  status: ('A' for Active; 'I' for Inactive)
REMARK    1  A    between atoms: C_1  and  C_2
REMARK    2  A    between atoms: C_2  and  N_3
REMARK    3  A    between atoms: C_7  and  C_8
REMARK    4  A    between atoms: C_8  and  C_9
REMARK    5  A    between atoms: C_9  and  C_10
REMARK    6  A    between atoms: C_14  and  N_15
REMARK    7  A    between atoms: C_20  and  N_21
REMARK    8  A    between atoms: C_26  and  C_27
REMARK                            x       y       z     vdW  Elec       q    Type
REMARK                         _______ _______ _______ _____ _____    ______ ____
ROOT
ATOM      1  N   UNL     1       4.058   4.473  19.112  0.00  0.00    +0.000 N 
ATOM      2  C   UNL     1       5.405   5.080  19.256  0.00  0.00    +0.000 C 
ATOM      3  C   UNL     1       5.918   5.044  17.848  0.00  0.00    +0.000 A 
ATOM      4  C   UNL     1       5.286   3.975  17.209  0.00  0.00    +0.000 A 
ATOM      5  C   UNL     1       5.381   3.746  15.847  0.00  0.00    +0.000 A 
ATOM      6  C   UNL     1       6.129   4.645  15.077  0.00  0.00    +0.000 A 
ATOM      7  C   UNL     1       6.787   5.717  15.730  0.00  0.00    +0.000 A 
ATOM      8  C   UNL     1       6.677   5.952  17.119  0.00  0.00    +0.000 A 
ATOM      9  C   UNL     1       4.201   3.489  18.095  0.00  0.00    +0.000 C 
ATOM     10  O   UNL     1       3.471   2.548  17.846  0.00  0.00    +0.000 OA
ENDROOT
BRANCH   1  15
ATOM     11  C   UNL     1       2.087   7.413  19.975  0.00  0.00    +0.000 A 
ATOM     12  C   UNL     1       2.405   8.207  18.865  0.00  0.00    +0.000 A 
ATOM     13  C   UNL     1       2.894   7.627  17.695  0.00  0.00    +0.000 A 
ATOM     14  C   UNL     1       3.168   6.265  17.659  0.00  0.00    +0.000 A 
ATOM     15  C   UNL     1       3.070   5.510  18.838  0.00  0.00    +0.000 A 
ATOM     16  C   UNL     1       2.373   6.042  19.927  0.00  0.00    +0.000 A 
BRANCH  11  17
ATOM     17  C   UNL     1       1.473   8.039  21.206  0.00  0.00    +0.000 C 
BRANCH  17  18
ATOM     18  C   UNL     1       0.101   8.686  20.962  0.00  0.00    +0.000 C 
BRANCH  18  23
ATOM     19  N   UNL     1       0.048  10.986  19.843  0.00  0.00    +0.000 N 
ATOM     20  C   UNL     1       0.276  12.255  20.282  0.00  0.00    +0.000 A 
ATOM     21  N   UNL     1       0.557  12.232  21.562  0.00  0.00    +0.000 NA
ATOM     22  N   UNL     1       0.518  10.924  21.975  0.00  0.00    +0.000 NA
ATOM     23  C   UNL     1       0.208  10.171  20.936  0.00  0.00    +0.000 A 
BRANCH  19  25
ATOM     24  C   UNL     1      -1.745  10.327  18.293  0.00  0.00    +0.000 C 
ATOM     25  C   UNL     1      -0.269  10.635  18.479  0.00  0.00    +0.000 C 
ENDBRANCH  19  25
ENDBRANCH  18  23
ENDBRANCH  17  18
ENDBRANCH  11  17
ENDBRANCH   1  15
BRANCH   6  26
ATOM     26  N   UNL     1       6.229   4.501  13.675  0.00  0.00    +0.000 N 
ATOM     27  C   UNL     1       6.076   3.287  12.904  0.00  0.00    +0.000 C 
ATOM     28  C   UNL     1       7.042   3.932  11.892  0.00  0.00    +0.000 C 
ATOM     29  N   UNL     1       7.434   4.802  13.008  0.00  0.00    +0.000 NA
ATOM     30  H   UNL     1       7.478   5.796  12.777  0.00  0.00    +0.000 HD
ENDBRANCH   6  26
BRANCH   8  31
ATOM     31  C   UNL     1       7.273   7.210  17.693  0.00  0.00    +0.000 C 
ATOM     32  F   UNL     1       8.134   7.857  16.859  0.00  0.00    +0.000 F 
ATOM     33  F   UNL     1       6.321   8.127  18.021  0.00  0.00    +0.000 F 
ATOM     34  F   UNL     1       7.979   6.980  18.836  0.00  0.00    +0.000 F 
ENDBRANCH   8  31
TORSDOF 7
ENDMDL
MODEL 6
REMARK VINA RESULT:      -8.3      1.026      1.430
REMARK  Name = 
REMARK  8 active torsions:
REMARK  status: ('A' for Active; 'I' for Inactive)
REMARK    1  A    between atoms: C_1  and  C_2
REMARK    2  A    between atoms: C_2  and  N_3
REMARK    3  A    between atoms: C_7  and  C_8
REMARK    4  A    between atoms: C_8  and  C_9
REMARK    5  A    between atoms: C_9  and  C_10
REMARK    6  A    between atoms: C_14  and  N_15
REMARK    7  A    between atoms: C_20  and  N_21
REMARK    8  A    between atoms: C_26  and  C_27
REMARK                            x       y       z     vdW  Elec       q    Type
REMARK                         _______ _______ _______ _____ _____    ______ ____
ROOT
ATOM      1  N   UNL     1       6.126   5.387  15.632  0.00  0.00    +0.000 N 
ATOM      2  C   UNL     1       4.978   6.325  15.713  0.00  0.00    +0.000 C 
ATOM      3  C   UNL     1       4.127   5.690  16.771  0.00  0.00    +0.000 A 
ATOM      4  C   UNL     1       4.391   4.319  16.741  0.00  0.00    +0.000 A 
ATOM      5  C   UNL     1       3.917   3.438  17.698  0.00  0.00    +0.000 A 
ATOM      6  C   UNL     1       3.159   3.955  18.754  0.00  0.00    +0.000 A 
ATOM      7  C   UNL     1       2.873   5.344  18.771  0.00  0.00    +0.000 A 
ATOM      8  C   UNL     1       3.369   6.240  17.797  0.00  0.00    +0.000 A 
ATOM      9  C   UNL     1       5.569   4.100  15.869  0.00  0.00    +0.000 C 
ATOM     10  O   UNL     1       6.047   3.010  15.609  0.00  0.00    +0.000 OA
ENDROOT
BRANCH   1  15
ATOM     11  C   UNL     1       7.842   7.793  17.762  0.00  0.00    +0.000 A 
ATOM     12  C   UNL     1       7.849   7.049  18.950  0.00  0.00    +0.000 A 
ATOM     13  C   UNL     1       7.683   5.666  18.920  0.00  0.00    +0.000 A 
ATOM     14  C   UNL     1       7.405   5.025  17.718  0.00  0.00    +0.000 A 
ATOM     15  C   UNL     1       7.169   5.793  16.567  0.00  0.00    +0.000 A 
ATOM     16  C   UNL     1       7.556   7.137  16.557  0.00  0.00    +0.000 A 
BRANCH  11  17
ATOM     17  C   UNL     1       8.113   9.279  17.795  0.00  0.00    +0.000 C 
BRANCH  17  18
ATOM     18  C   UNL     1       8.927   9.741  19.014  0.00  0.00    +0.000 C 
BRANCH  18  23
ATOM     19  N   UNL     1       9.289  12.063  18.005  0.00  0.00    +0.000 N 
ATOM     20  C   UNL     1      10.363  12.898  17.918  0.00  0.00    +0.000 A 
ATOM     21  N   UNL     1      11.393  12.350  18.514  0.00  0.00    +0.000 NA
ATOM     22  N   UNL     1      10.995  11.130  19.000  0.00  0.00    +0.000 NA
ATOM     23  C   UNL     1       9.724  10.958  18.694  0.00  0.00    +0.000 A 
BRANCH  19  25
ATOM     24  C   UNL     1       7.557  13.776  17.664  0.00  0.00    +0.000 C 
ATOM     25  C   UNL     1       7.990  12.337  17.440  0.00  0.00    +0.000 C 
ENDBRANCH  19  25
ENDBRANCH  18  23
ENDBRANCH  17  18
ENDBRANCH  11  17
ENDBRANCH   1  15
BRANCH   6  26
ATOM     26  N   UNL     1       2.684   3.122  19.792  0.00  0.00    +0.000 N 
ATOM     27  C   UNL     1       1.675   3.436  20.778  0.00  0.00    +0.000 C 
ATOM     28  C   UNL     1       2.420   2.456  21.702  0.00  0.00    +0.000 C 
ATOM     29  N   UNL     1       3.559   2.662  20.798  0.00  0.00    +0.000 NA
ATOM     30  H   UNL     1       4.028   1.805  20.502  0.00  0.00    +0.000 HD
ENDBRANCH   6  26
BRANCH   8  31
ATOM     31  C   UNL     1       3.153   7.717  17.993  0.00  0.00    +0.000 C 
ATOM     32  F   UNL     1       2.326   8.293  17.077  0.00  0.00    +0.000 F 
ATOM     33  F   UNL     1       2.608   8.001  19.209  0.00  0.00    +0.000 F 
ATOM     34  F   UNL     1       4.315   8.428  17.930  0.00  0.00    +0.000 F 
ENDBRANCH   8  31
TORSDOF 7
ENDMDL
MODEL 7
REMARK VINA RESULT:      -8.2      4.492      7.508
REMARK  Name = 
REMARK  8 active torsions:
REMARK  status: ('A' for Active; 'I' for Inactive)
REMARK    1  A    between atoms: C_1  and  C_2
REMARK    2  A    between atoms: C_2  and  N_3
REMARK    3  A    between atoms: C_7  and  C_8
REMARK    4  A    between atoms: C_8  and  C_9
REMARK    5  A    between atoms: C_9  and  C_10
REMARK    6  A    between atoms: C_14  and  N_15
REMARK    7  A    between atoms: C_20  and  N_21
REMARK    8  A    between atoms: C_26  and  C_27
REMARK                            x       y       z     vdW  Elec       q    Type
REMARK                         _______ _______ _______ _____ _____    ______ ____
ROOT
ATOM      1  N   UNL     1       2.588   7.769  19.329  0.00  0.00    +0.000 N 
ATOM      2  C   UNL     1       2.226   8.573  20.524  0.00  0.00    +0.000 C 
ATOM      3  C   UNL     1       1.010   9.311  20.051  0.00  0.00    +0.000 A 
ATOM      4  C   UNL     1       1.125   9.442  18.665  0.00  0.00    +0.000 A 
ATOM      5  C   UNL     1       0.099   9.915  17.864  0.00  0.00    +0.000 A 
ATOM      6  C   UNL     1      -1.113  10.255  18.476  0.00  0.00    +0.000 A 
ATOM      7  C   UNL     1      -1.220  10.142  19.885  0.00  0.00    +0.000 A 
ATOM      8  C   UNL     1      -0.173   9.648  20.696  0.00  0.00    +0.000 A 
ATOM      9  C   UNL     1       2.251   8.588  18.216  0.00  0.00    +0.000 C 
ATOM     10  O   UNL     1       2.633   8.493  17.064  0.00  0.00    +0.000 OA
ENDROOT
BRANCH   1  15
ATOM     11  C   UNL     1       2.254   4.233  18.519  0.00  0.00    +0.000 A 
ATOM     12  C   UNL     1       2.079   3.740  19.820  0.00  0.00    +0.000 A 
ATOM     13  C   UNL     1       1.662   4.584  20.847  0.00  0.00    +0.000 A 
ATOM     14  C   UNL     1       1.517   5.946  20.611  0.00  0.00    +0.000 A 
ATOM     15  C   UNL     1       1.914   6.477  19.375  0.00  0.00    +0.000 A 
ATOM     16  C   UNL     1       2.110   5.609  18.296  0.00  0.00    +0.000 A 
BRANCH  11  17
ATOM     17  C   UNL     1       2.618   3.293  17.393  0.00  0.00    +0.000 C 
BRANCH  17  18
ATOM     18  C   UNL     1       4.104   2.906  17.356  0.00  0.00    +0.000 C 
BRANCH  18  23
ATOM     19  N   UNL     1       5.642   4.948  17.453  0.00  0.00    +0.000 N 
ATOM     20  C   UNL     1       6.197   5.758  16.508  0.00  0.00    +0.000 A 
ATOM     21  N   UNL     1       5.852   5.340  15.315  0.00  0.00    +0.000 NA
ATOM     22  N   UNL     1       5.051   4.236  15.474  0.00  0.00    +0.000 NA
ATOM     23  C   UNL     1       4.926   3.999  16.766  0.00  0.00    +0.000 A 
BRANCH  19  25
ATOM     24  C   UNL     1       7.195   5.579  19.253  0.00  0.00    +0.000 C 
ATOM     25  C   UNL     1       5.795   5.126  18.878  0.00  0.00    +0.000 C 
ENDBRANCH  19  25
ENDBRANCH  18  23
ENDBRANCH  17  18
ENDBRANCH  11  17
ENDBRANCH   1  15
BRANCH   6  26
ATOM     26  N   UNL     1      -2.218  10.698  17.715  0.00  0.00    +0.000 N 
ATOM     27  C   UNL     1      -3.101   9.895  16.899  0.00  0.00    +0.000 C 
ATOM     28  C   UNL     1      -3.291  11.160  16.042  0.00  0.00    +0.000 C 
ATOM     29  N   UNL     1      -2.040  11.618  16.660  0.00  0.00    +0.000 NA
ATOM     30  H   UNL     1      -2.065  12.576  17.011  0.00  0.00    +0.000 HD
ENDBRANCH   6  26
BRANCH   8  31
ATOM     31  C   UNL     1      -0.439   9.406  22.158  0.00  0.00    +0.000 C 
ATOM     32  F   UNL     1      -1.307  10.288  22.726  0.00  0.00    +0.000 F 
ATOM     33  F   UNL     1      -0.968   8.172  22.388  0.00  0.00    +0.000 F 
ATOM     34  F   UNL     1       0.693   9.474  22.913  0.00  0.00    +0.000 F 
ENDBRANCH   8  31
TORSDOF 7
ENDMDL
MODEL 8
REMARK VINA RESULT:      -8.1      4.095      7.258
REMARK  Name = 
REMARK  8 active torsions:
REMARK  status: ('A' for Active; 'I' for Inactive)
REMARK    1  A    between atoms: C_1  and  C_2
REMARK    2  A    between atoms: C_2  and  N_3
REMARK    3  A    between atoms: C_7  and  C_8
REMARK    4  A    between atoms: C_8  and  C_9
REMARK    5  A    between atoms: C_9  and  C_10
REMARK    6  A    between atoms: C_14  and  N_15
REMARK    7  A    between atoms: C_20  and  N_21
REMARK    8  A    between atoms: C_26  and  C_27
REMARK                            x       y       z     vdW  Elec       q    Type
REMARK                         _______ _______ _______ _____ _____    ______ ____
ROOT
ATOM      1  N   UNL     1       4.177   4.660  19.311  0.00  0.00    +0.000 N 
ATOM      2  C   UNL     1       5.511   5.302  19.427  0.00  0.00    +0.000 C 
ATOM      3  C   UNL     1       6.093   5.065  18.066  0.00  0.00    +0.000 A 
ATOM      4  C   UNL     1       5.503   3.902  17.565  0.00  0.00    +0.000 A 
ATOM      5  C   UNL     1       5.668   3.474  16.259  0.00  0.00    +0.000 A 
ATOM      6  C   UNL     1       6.445   4.259  15.400  0.00  0.00    +0.000 A 
ATOM      7  C   UNL     1       7.062   5.427  15.916  0.00  0.00    +0.000 A 
ATOM      8  C   UNL     1       6.880   5.865  17.247  0.00  0.00    +0.000 A 
ATOM      9  C   UNL     1       4.379   3.538  18.461  0.00  0.00    +0.000 C 
ATOM     10  O   UNL     1       3.670   2.558  18.321  0.00  0.00    +0.000 OA
ENDROOT
BRANCH   1  15
ATOM     11  C   UNL     1       2.062   7.604  19.669  0.00  0.00    +0.000 A 
ATOM     12  C   UNL     1       2.467   8.290  18.516  0.00  0.00    +0.000 A 
ATOM     13  C   UNL     1       3.080   7.609  17.465  0.00  0.00    +0.000 A 
ATOM     14  C   UNL     1       3.390   6.261  17.599  0.00  0.00    +0.000 A 
ATOM     15  C   UNL     1       3.197   5.629  18.837  0.00  0.00    +0.000 A 
ATOM     16  C   UNL     1       2.385   6.246  19.794  0.00  0.00    +0.000 A 
BRANCH  11  17
ATOM     17  C   UNL     1       1.317   8.333  20.763  0.00  0.00    +0.000 C 
BRANCH  17  18
ATOM     18  C   UNL     1       0.389   9.447  20.255  0.00  0.00    +0.000 C 
BRANCH  18  23
ATOM     19  N   UNL     1      -0.922  11.359  21.337  0.00  0.00    +0.000 N 
ATOM     20  C   UNL     1      -1.324  11.625  22.611  0.00  0.00    +0.000 A 
ATOM     21  N   UNL     1      -0.949  10.650  23.402  0.00  0.00    +0.000 NA
ATOM     22  N   UNL     1      -0.284   9.724  22.638  0.00  0.00    +0.000 NA
ATOM     23  C   UNL     1      -0.270  10.152  21.390  0.00  0.00    +0.000 A 
BRANCH  19  25
ATOM     24  C   UNL     1      -2.533  12.849  20.227  0.00  0.00    +0.000 C 
ATOM     25  C   UNL     1      -1.147  12.228  20.207  0.00  0.00    +0.000 C 
ENDBRANCH  19  25
ENDBRANCH  18  23
ENDBRANCH  17  18
ENDBRANCH  11  17
ENDBRANCH   1  15
BRANCH   6  26
ATOM     26  N   UNL     1       6.617   3.908  14.042  0.00  0.00    +0.000 N 
ATOM     27  C   UNL     1       7.157   4.732  12.984  0.00  0.00    +0.000 C 
ATOM     28  C   UNL     1       6.259   3.920  12.033  0.00  0.00    +0.000 C 
ATOM     29  N   UNL     1       5.504   3.570  13.244  0.00  0.00    +0.000 NA
ATOM     30  H   UNL     1       5.285   2.577  13.335  0.00  0.00    +0.000 HD
ENDBRANCH   6  26
BRANCH   8  31
ATOM     31  C   UNL     1       7.437   7.203  17.653  0.00  0.00    +0.000 C 
ATOM     32  F   UNL     1       8.236   7.789  16.719  0.00  0.00    +0.000 F 
ATOM     33  F   UNL     1       6.456   8.110  17.917  0.00  0.00    +0.000 F 
ATOM     34  F   UNL     1       8.195   7.133  18.784  0.00  0.00    +0.000 F 
ENDBRANCH   8  31
TORSDOF 7
ENDMDL
MODEL 9
REMARK VINA RESULT:      -8.0      4.086      7.126
REMARK  Name = 
REMARK  8 active torsions:
REMARK  status: ('A' for Active; 'I' for Inactive)
REMARK    1  A    between atoms: C_1  and  C_2
REMARK    2  A    between atoms: C_2  and  N_3
REMARK    3  A    between atoms: C_7  and  C_8
REMARK    4  A    between atoms: C_8  and  C_9
REMARK    5  A    between atoms: C_9  and  C_10
REMARK    6  A    between atoms: C_14  and  N_15
REMARK    7  A    between atoms: C_20  and  N_21
REMARK    8  A    between atoms: C_26  and  C_27
REMARK                            x       y       z     vdW  Elec       q    Type
REMARK                         _______ _______ _______ _____ _____    ______ ____
ROOT
ATOM      1  N   UNL     1       3.953   4.527  19.142  0.00  0.00    +0.000 N 
ATOM      2  C   UNL     1       5.311   5.106  19.294  0.00  0.00    +0.000 C 
ATOM      3  C   UNL     1       5.837   5.047  17.891  0.00  0.00    +0.000 A 
ATOM      4  C   UNL     1       5.189   3.986  17.255  0.00  0.00    +0.000 A 
ATOM      5  C   UNL     1       5.293   3.744  15.896  0.00  0.00    +0.000 A 
ATOM      6  C   UNL     1       6.067   4.620  15.127  0.00  0.00    +0.000 A 
ATOM      7  C   UNL     1       6.742   5.683  15.777  0.00  0.00    +0.000 A 
ATOM      8  C   UNL     1       6.623   5.932  17.164  0.00  0.00    +0.000 A 
ATOM      9  C   UNL     1       4.085   3.532  18.134  0.00  0.00    +0.000 C 
ATOM     10  O   UNL     1       3.337   2.604  17.885  0.00  0.00    +0.000 OA
ENDROOT
BRANCH   1  15
ATOM     11  C   UNL     1       2.092   7.557  19.932  0.00  0.00    +0.000 A 
ATOM     12  C   UNL     1       2.408   8.298  18.784  0.00  0.00    +0.000 A 
ATOM     13  C   UNL     1       2.851   7.658  17.628  0.00  0.00    +0.000 A 
ATOM     14  C   UNL     1       3.083   6.288  17.639  0.00  0.00    +0.000 A 
ATOM     15  C   UNL     1       2.991   5.582  18.848  0.00  0.00    +0.000 A 
ATOM     16  C   UNL     1       2.336   6.177  19.931  0.00  0.00    +0.000 A 
BRANCH  11  17
ATOM     17  C   UNL     1       1.527   8.250  21.150  0.00  0.00    +0.000 C 
BRANCH  17  18
ATOM     18  C   UNL     1      -0.001   8.416  21.124  0.00  0.00    +0.000 C 
BRANCH  18  23
ATOM     19  N   UNL     1      -0.786  10.832  21.423  0.00  0.00    +0.000 N 
ATOM     20  C   UNL     1      -1.067  11.847  20.559  0.00  0.00    +0.000 A 
ATOM     21  N   UNL     1      -0.849  11.449  19.329  0.00  0.00    +0.000 NA
ATOM     22  N   UNL     1      -0.422  10.146  19.381  0.00  0.00    +0.000 NA
ATOM     23  C   UNL     1      -0.382   9.774  20.647  0.00  0.00    +0.000 A 
BRANCH  19  25
ATOM     24  C   UNL     1      -2.107  11.782  23.267  0.00  0.00    +0.000 C 
ATOM     25  C   UNL     1      -0.932  10.911  22.857  0.00  0.00    +0.000 C 
ENDBRANCH  19  25
ENDBRANCH  18  23
ENDBRANCH  17  18
ENDBRANCH  11  17
ENDBRANCH   1  15
BRANCH   6  26
ATOM     26  N   UNL     1       6.178   4.462  13.727  0.00  0.00    +0.000 N 
ATOM     27  C   UNL     1       6.099   3.231  12.973  0.00  0.00    +0.000 C 
ATOM     28  C   UNL     1       7.027   3.917  11.953  0.00  0.00    +0.000 C 
ATOM     29  N   UNL     1       7.365   4.825  13.056  0.00  0.00    +0.000 NA
ATOM     30  H   UNL     1       7.351   5.815  12.811  0.00  0.00    +0.000 HD
ENDBRANCH   6  26
BRANCH   8  31
ATOM     31  C   UNL     1       7.240   7.182  17.733  0.00  0.00    +0.000 C 
ATOM     32  F   UNL     1       8.144   7.788  16.913  0.00  0.00    +0.000 F 
ATOM     33  F   UNL     1       6.308   8.133  18.018  0.00  0.00    +0.000 F 
ATOM     34  F   UNL     1       7.907   6.951  18.899  0.00  0.00    +0.000 F 
ENDBRANCH   8  31
TORSDOF 7
ENDMDL
