MODEL 1
REMARK VINA RESULT:      -9.0      0.000      0.000
REMARK  Name = 
REMARK  7 active torsions:
REMARK  status: ('A' for Active; 'I' for Inactive)
REMARK    1  A    between atoms: C_1  and  C_2
REMARK    2  A    between atoms: C_5  and  O_6
REMARK    3  A    between atoms: O_6  and  C_7
REMARK    4  A    between atoms: C_10  and  N_11
REMARK    5  A    between atoms: C_12  and  C_14
REMARK    6  A    between atoms: N_16  and  C_17
REMARK    7  A    between atoms: C_29  and  C_30
REMARK                            x       y       z     vdW  Elec       q    Type
REMARK                         _______ _______ _______ _____ _____    ______ ____
ROOT
ATOM      1  N   UNL     1       1.900   8.602  17.688  0.00  0.00    +0.000 N 
ATOM      2  C   UNL     1       2.411   7.676  18.578  0.00  0.00    +0.000 C 
ATOM      3  O   UNL     1       2.249   7.650  19.789  0.00  0.00    +0.000 OA
ATOM      4  H   UNL     1       2.273   8.559  16.743  0.00  0.00    +0.000 HD
ENDROOT
BRANCH   2   5
ATOM      5  C   UNL     1       3.324   6.622  17.956  0.00  0.00    +0.000 A 
ATOM      6  N   UNL     1       4.512   7.019  17.603  0.00  0.00    +0.000 NA
ATOM      7  N   UNL     1       5.419   6.071  17.182  0.00  0.00    +0.000 N 
ATOM      8  C   UNL     1       6.777   6.523  16.943  0.00  0.00    +0.000 C 
ATOM      9  C   UNL     1       5.177   4.698  17.165  0.00  0.00    +0.000 A 
ATOM     10  O   UNL     1       6.018   3.857  16.859  0.00  0.00    +0.000 OA
ATOM     11  C   UNL     1       3.821   4.265  17.543  0.00  0.00    +0.000 A 
ATOM     12  C   UNL     1       3.502   2.900  17.580  0.00  0.00    +0.000 A 
ATOM     13  C   UNL     1       2.218   2.491  17.942  0.00  0.00    +0.000 A 
ATOM     14  C   UNL     1       1.244   3.446  18.224  0.00  0.00    +0.000 A 
ATOM     15  C   UNL     1       1.561   4.807  18.177  0.00  0.00    +0.000 A 
ATOM     16  C   UNL     1       2.867   5.218  17.878  0.00  0.00    +0.000 A 
ENDBRANCH   2   5
BRANCH   1  20
ATOM     17  C   UNL     1      -0.466  11.830  18.851  0.00  0.00    +0.000 A 
ATOM     18  C   UNL     1      -1.118  10.709  18.371  0.00  0.00    +0.000 A 
ATOM     19  C   UNL     1      -0.345   9.624  17.958  0.00  0.00    +0.000 A 
ATOM     20  C   UNL     1       1.048   9.679  18.028  0.00  0.00    +0.000 A 
ATOM     21  C   UNL     1       1.601  10.876  18.475  0.00  0.00    +0.000 A 
ATOM     22  N   UNL     1       0.880  11.953  18.872  0.00  0.00    +0.000 NA
BRANCH  17  23
ATOM     23  O   UNL     1      -1.272  12.866  19.303  0.00  0.00    +0.000 OA
BRANCH  23  28
ATOM     24  C   UNL     1      -3.950  12.323  24.292  0.00  0.00    +0.000 C 
ATOM     25  C   UNL     1      -3.250  12.449  22.966  0.00  0.00    +0.000 A 
ATOM     26  C   UNL     1      -1.852  12.371  22.925  0.00  0.00    +0.000 A 
ATOM     27  C   UNL     1      -1.166  12.493  21.718  0.00  0.00    +0.000 A 
ATOM     28  C   UNL     1      -1.868  12.731  20.536  0.00  0.00    +0.000 A 
ATOM     29  C   UNL     1      -3.263  12.776  20.560  0.00  0.00    +0.000 A 
ATOM     30  C   UNL     1      -3.967  12.649  21.769  0.00  0.00    +0.000 A 
ATOM     31  C   UNL     1      -5.467  12.752  21.762  0.00  0.00    +0.000 C 
ENDBRANCH  23  28
ENDBRANCH  17  23
ENDBRANCH   1  20
TORSDOF 4
ENDMDL
MODEL 2
REMARK VINA RESULT:      -8.6      2.176      2.684
REMARK  Name = 
REMARK  7 active torsions:
REMARK  status: ('A' for Active; 'I' for Inactive)
REMARK    1  A    between atoms: C_1  and  C_2
REMARK    2  A    between atoms: C_5  and  O_6
REMARK    3  A    between atoms: O_6  and  C_7
REMARK    4  A    between atoms: C_10  and  N_11
REMARK    5  A    between atoms: C_12  and  C_14
REMARK    6  A    between atoms: N_16  and  C_17
REMARK    7  A    between atoms: C_29  and  C_30
REMARK                            x       y       z     vdW  Elec       q    Type
REMARK                         _______ _______ _______ _____ _____    ______ ____
ROOT
ATOM      1  N   UNL     1       1.816   7.918  20.896  0.00  0.00    +0.000 N 
ATOM      2  C   UNL     1       2.030   7.711  19.546  0.00  0.00    +0.000 C 
ATOM      3  O   UNL     1       1.540   8.336  18.617  0.00  0.00    +0.000 OA
ATOM      4  H   UNL     1       2.179   7.200  21.516  0.00  0.00    +0.000 HD
ENDROOT
BRANCH   2   5
ATOM      5  C   UNL     1       2.932   6.525  19.213  0.00  0.00    +0.000 A 
ATOM      6  N   UNL     1       4.011   6.789  18.534  0.00  0.00    +0.000 NA
ATOM      7  N   UNL     1       4.927   5.777  18.345  0.00  0.00    +0.000 N 
ATOM      8  C   UNL     1       6.185   6.140  17.719  0.00  0.00    +0.000 C 
ATOM      9  C   UNL     1       4.813   4.497  18.886  0.00  0.00    +0.000 A 
ATOM     10  O   UNL     1       5.673   3.626  18.773  0.00  0.00    +0.000 OA
ATOM     11  C   UNL     1       3.577   4.205  19.631  0.00  0.00    +0.000 A 
ATOM     12  C   UNL     1       3.396   2.951  20.232  0.00  0.00    +0.000 A 
ATOM     13  C   UNL     1       2.226   2.677  20.940  0.00  0.00    +0.000 A 
ATOM     14  C   UNL     1       1.222   3.640  21.012  0.00  0.00    +0.000 A 
ATOM     15  C   UNL     1       1.399   4.886  20.404  0.00  0.00    +0.000 A 
ATOM     16  C   UNL     1       2.601   5.187  19.747  0.00  0.00    +0.000 A 
ENDBRANCH   2   5
BRANCH   1  20
ATOM     17  C   UNL     1      -0.389  11.061  22.519  0.00  0.00    +0.000 A 
ATOM     18  C   UNL     1      -0.737   9.779  22.904  0.00  0.00    +0.000 A 
ATOM     19  C   UNL     1      -0.025   8.711  22.359  0.00  0.00    +0.000 A 
ATOM     20  C   UNL     1       1.008   8.940  21.447  0.00  0.00    +0.000 A 
ATOM     21  C   UNL     1       1.236  10.265  21.088  0.00  0.00    +0.000 A 
ATOM     22  N   UNL     1       0.556  11.325  21.589  0.00  0.00    +0.000 NA
BRANCH  17  23
ATOM     23  O   UNL     1      -1.084  12.097  23.127  0.00  0.00    +0.000 OA
BRANCH  23  28
ATOM     24  C   UNL     1      -6.351  13.349  21.382  0.00  0.00    +0.000 C 
ATOM     25  C   UNL     1      -4.958  13.036  21.854  0.00  0.00    +0.000 A 
ATOM     26  C   UNL     1      -3.913  13.014  20.922  0.00  0.00    +0.000 A 
ATOM     27  C   UNL     1      -2.610  12.718  21.318  0.00  0.00    +0.000 A 
ATOM     28  C   UNL     1      -2.339  12.402  22.649  0.00  0.00    +0.000 A 
ATOM     29  C   UNL     1      -3.366  12.455  23.594  0.00  0.00    +0.000 A 
ATOM     30  C   UNL     1      -4.683  12.758  23.209  0.00  0.00    +0.000 A 
ATOM     31  C   UNL     1      -5.771  12.756  24.245  0.00  0.00    +0.000 C 
ENDBRANCH  23  28
ENDBRANCH  17  23
ENDBRANCH   1  20
TORSDOF 4
ENDMDL
MODEL 3
REMARK VINA RESULT:      -8.6      1.765      2.232
REMARK  Name = 
REMARK  7 active torsions:
REMARK  status: ('A' for Active; 'I' for Inactive)
REMARK    1  A    between atoms: C_1  and  C_2
REMARK    2  A    between atoms: C_5  and  O_6
REMARK    3  A    between atoms: O_6  and  C_7
REMARK    4  A    between atoms: C_10  and  N_11
REMARK    5  A    between atoms: C_12  and  C_14
REMARK    6  A    between atoms: N_16  and  C_17
REMARK    7  A    between atoms: C_29  and  C_30
REMARK                            x       y       z     vdW  Elec       q    Type
REMARK                         _______ _______ _______ _____ _____    ______ ____
ROOT
ATOM      1  N   UNL     1       2.211   7.784  20.006  0.00  0.00    +0.000 N 
ATOM      2  C   UNL     1       2.239   7.758  18.624  0.00  0.00    +0.000 C 
ATOM      3  O   UNL     1       1.527   8.391  17.859  0.00  0.00    +0.000 OA
ATOM      4  H   UNL     1       2.764   7.072  20.473  0.00  0.00    +0.000 HD
ENDROOT
BRANCH   2   5
ATOM      5  C   UNL     1       3.238   6.774  18.021  0.00  0.00    +0.000 A 
ATOM      6  N   UNL     1       4.413   7.248  17.724  0.00  0.00    +0.000 NA
ATOM      7  N   UNL     1       5.392   6.365  17.322  0.00  0.00    +0.000 N 
ATOM      8  C   UNL     1       6.728   6.902  17.147  0.00  0.00    +0.000 C 
ATOM      9  C   UNL     1       5.234   4.980  17.271  0.00  0.00    +0.000 A 
ATOM     10  O   UNL     1       6.136   4.197  16.984  0.00  0.00    +0.000 OA
ATOM     11  C   UNL     1       3.893   4.459  17.587  0.00  0.00    +0.000 A 
ATOM     12  C   UNL     1       3.656   3.078  17.586  0.00  0.00    +0.000 A 
ATOM     13  C   UNL     1       2.386   2.585  17.889  0.00  0.00    +0.000 A 
ATOM     14  C   UNL     1       1.346   3.474  18.148  0.00  0.00    +0.000 A 
ATOM     15  C   UNL     1       1.581   4.852  18.138  0.00  0.00    +0.000 A 
ATOM     16  C   UNL     1       2.871   5.347  17.899  0.00  0.00    +0.000 A 
ENDBRANCH   2   5
BRANCH   1  20
ATOM     17  C   UNL     1      -0.116  10.298  22.381  0.00  0.00    +0.000 A 
ATOM     18  C   UNL     1      -0.534   8.987  22.250  0.00  0.00    +0.000 A 
ATOM     19  C   UNL     1       0.219   8.133  21.445  0.00  0.00    +0.000 A 
ATOM     20  C   UNL     1       1.360   8.599  20.790  0.00  0.00    +0.000 A 
ATOM     21  C   UNL     1       1.658   9.950  20.947  0.00  0.00    +0.000 A 
ATOM     22  N   UNL     1       0.942  10.810  21.712  0.00  0.00    +0.000 NA
BRANCH  17  23
ATOM     23  O   UNL     1      -0.860  11.101  23.234  0.00  0.00    +0.000 OA
BRANCH  23  28
ATOM     24  C   UNL     1      -5.353  13.979  21.264  0.00  0.00    +0.000 C 
ATOM     25  C   UNL     1      -4.162  13.233  21.798  0.00  0.00    +0.000 A 
ATOM     26  C   UNL     1      -3.065  13.010  20.955  0.00  0.00    +0.000 A 
ATOM     27  C   UNL     1      -1.946  12.314  21.409  0.00  0.00    +0.000 A 
ATOM     28  C   UNL     1      -1.922  11.799  22.705  0.00  0.00    +0.000 A 
ATOM     29  C   UNL     1      -2.993  12.046  23.565  0.00  0.00    +0.000 A 
ATOM     30  C   UNL     1      -4.125  12.751  23.122  0.00  0.00    +0.000 A 
ATOM     31  C   UNL     1      -5.281  12.954  24.062  0.00  0.00    +0.000 C 
ENDBRANCH  23  28
ENDBRANCH  17  23
ENDBRANCH   1  20
TORSDOF 4
ENDMDL
MODEL 4
REMARK VINA RESULT:      -8.6      2.314      3.263
REMARK  Name = 
REMARK  7 active torsions:
REMARK  status: ('A' for Active; 'I' for Inactive)
REMARK    1  A    between atoms: C_1  and  C_2
REMARK    2  A    between atoms: C_5  and  O_6
REMARK    3  A    between atoms: O_6  and  C_7
REMARK    4  A    between atoms: C_10  and  N_11
REMARK    5  A    between atoms: C_12  and  C_14
REMARK    6  A    between atoms: N_16  and  C_17
REMARK    7  A    between atoms: C_29  and  C_30
REMARK                            x       y       z     vdW  Elec       q    Type
REMARK                         _______ _______ _______ _____ _____    ______ ____
ROOT
ATOM      1  N   UNL     1       1.581   7.558  20.752  0.00  0.00    +0.000 N 
ATOM      2  C   UNL     1       2.261   7.208  19.601  0.00  0.00    +0.000 C 
ATOM      3  O   UNL     1       2.528   7.931  18.652  0.00  0.00    +0.000 OA
ATOM      4  H   UNL     1       1.310   6.787  21.356  0.00  0.00    +0.000 HD
ENDROOT
BRANCH   2   5
ATOM      5  C   UNL     1       2.652   5.735  19.508  0.00  0.00    +0.000 A 
ATOM      6  N   UNL     1       2.094   4.931  20.367  0.00  0.00    +0.000 NA
ATOM      7  N   UNL     1       2.298   3.576  20.221  0.00  0.00    +0.000 N 
ATOM      8  C   UNL     1       1.542   2.702  21.098  0.00  0.00    +0.000 C 
ATOM      9  C   UNL     1       3.013   2.993  19.175  0.00  0.00    +0.000 A 
ATOM     10  O   UNL     1       3.125   1.780  19.015  0.00  0.00    +0.000 OA
ATOM     11  C   UNL     1       3.659   3.914  18.225  0.00  0.00    +0.000 A 
ATOM     12  C   UNL     1       4.372   3.410  17.129  0.00  0.00    +0.000 A 
ATOM     13  C   UNL     1       4.980   4.284  16.228  0.00  0.00    +0.000 A 
ATOM     14  C   UNL     1       4.911   5.657  16.446  0.00  0.00    +0.000 A 
ATOM     15  C   UNL     1       4.208   6.159  17.545  0.00  0.00    +0.000 A 
ATOM     16  C   UNL     1       3.541   5.285  18.416  0.00  0.00    +0.000 A 
ENDBRANCH   2   5
BRANCH   1  20
ATOM     17  C   UNL     1       0.056  11.289  21.815  0.00  0.00    +0.000 A 
ATOM     18  C   UNL     1       0.292  11.062  20.472  0.00  0.00    +0.000 A 
ATOM     19  C   UNL     1       0.820   9.827  20.095  0.00  0.00    +0.000 A 
ATOM     20  C   UNL     1       1.102   8.854  21.056  0.00  0.00    +0.000 A 
ATOM     21  C   UNL     1       0.879   9.210  22.383  0.00  0.00    +0.000 A 
ATOM     22  N   UNL     1       0.379  10.403  22.785  0.00  0.00    +0.000 NA
BRANCH  17  23
ATOM     23  O   UNL     1      -0.521  12.508  22.142  0.00  0.00    +0.000 OA
BRANCH  23  28
ATOM     24  C   UNL     1      -6.195  12.875  22.277  0.00  0.00    +0.000 C 
ATOM     25  C   UNL     1      -4.694  12.795  22.253  0.00  0.00    +0.000 A 
ATOM     26  C   UNL     1      -4.025  12.943  21.030  0.00  0.00    +0.000 A 
ATOM     27  C   UNL     1      -2.635  12.865  20.964  0.00  0.00    +0.000 A 
ATOM     28  C   UNL     1      -1.894  12.602  22.116  0.00  0.00    +0.000 A 
ATOM     29  C   UNL     1      -2.546  12.489  23.345  0.00  0.00    +0.000 A 
ATOM     30  C   UNL     1      -3.947  12.571  23.427  0.00  0.00    +0.000 A 
ATOM     31  C   UNL     1      -4.618  12.394  24.761  0.00  0.00    +0.000 C 
ENDBRANCH  23  28
ENDBRANCH  17  23
ENDBRANCH   1  20
TORSDOF 4
ENDMDL
MODEL 5
REMARK VINA RESULT:      -8.4      2.296      3.293
REMARK  Name = 
REMARK  7 active torsions:
REMARK  status: ('A' for Active; 'I' for Inactive)
REMARK    1  A    between atoms: C_1  and  C_2
REMARK    2  A    between atoms: C_5  and  O_6
REMARK    3  A    between atoms: O_6  and  C_7
REMARK    4  A    between atoms: C_10  and  N_11
REMARK    5  A    between atoms: C_12  and  C_14
REMARK    6  A    between atoms: N_16  and  C_17
REMARK    7  A    between atoms: C_29  and  C_30
REMARK                            x       y       z     vdW  Elec       q    Type
REMARK                         _______ _______ _______ _____ _____    ______ ____
ROOT
ATOM      1  N   UNL     1       1.659   7.374  20.846  0.00  0.00    +0.000 N 
ATOM      2  C   UNL     1       2.172   7.258  19.568  0.00  0.00    +0.000 C 
ATOM      3  O   UNL     1       2.112   8.085  18.671  0.00  0.00    +0.000 OA
ATOM      4  H   UNL     1       1.661   6.523  21.402  0.00  0.00    +0.000 HD
ENDROOT
BRANCH   2   5
ATOM      5  C   UNL     1       2.821   5.911  19.256  0.00  0.00    +0.000 A 
ATOM      6  N   UNL     1       2.436   4.900  19.979  0.00  0.00    +0.000 NA
ATOM      7  N   UNL     1       2.880   3.642  19.631  0.00  0.00    +0.000 N 
ATOM      8  C   UNL     1       2.313   2.523  20.360  0.00  0.00    +0.000 C 
ATOM      9  C   UNL     1       3.667   3.363  18.515  0.00  0.00    +0.000 A 
ATOM     10  O   UNL     1       3.994   2.228  18.173  0.00  0.00    +0.000 OA
ATOM     11  C   UNL     1       4.115   4.518  17.719  0.00  0.00    +0.000 A 
ATOM     12  C   UNL     1       4.886   4.323  16.565  0.00  0.00    +0.000 A 
ATOM     13  C   UNL     1       5.306   5.418  15.811  0.00  0.00    +0.000 A 
ATOM     14  C   UNL     1       4.994   6.708  16.234  0.00  0.00    +0.000 A 
ATOM     15  C   UNL     1       4.234   6.902  17.391  0.00  0.00    +0.000 A 
ATOM     16  C   UNL     1       3.755   5.801  18.115  0.00  0.00    +0.000 A 
ENDBRANCH   2   5
BRANCH   1  20
ATOM     17  C   UNL     1      -0.090  10.836  22.371  0.00  0.00    +0.000 A 
ATOM     18  C   UNL     1      -0.660   9.629  22.731  0.00  0.00    +0.000 A 
ATOM     19  C   UNL     1      -0.103   8.458  22.217  0.00  0.00    +0.000 A 
ATOM     20  C   UNL     1       0.999   8.514  21.361  0.00  0.00    +0.000 A 
ATOM     21  C   UNL     1       1.457   9.784  21.021  0.00  0.00    +0.000 A 
ATOM     22  N   UNL     1       0.932  10.941  21.492  0.00  0.00    +0.000 NA
BRANCH  17  23
ATOM     23  O   UNL     1      -0.639  11.973  22.948  0.00  0.00    +0.000 OA
BRANCH  23  28
ATOM     24  C   UNL     1      -6.028  13.359  21.769  0.00  0.00    +0.000 C 
ATOM     25  C   UNL     1      -4.602  13.009  22.092  0.00  0.00    +0.000 A 
ATOM     26  C   UNL     1      -3.645  13.041  21.069  0.00  0.00    +0.000 A 
ATOM     27  C   UNL     1      -2.315  12.714  21.327  0.00  0.00    +0.000 A 
ATOM     28  C   UNL     1      -1.928  12.314  22.606  0.00  0.00    +0.000 A 
ATOM     29  C   UNL     1      -2.865  12.313  23.641  0.00  0.00    +0.000 A 
ATOM     30  C   UNL     1      -4.208  12.646  23.397  0.00  0.00    +0.000 A 
ATOM     31  C   UNL     1      -5.199  12.585  24.526  0.00  0.00    +0.000 C 
ENDBRANCH  23  28
ENDBRANCH  17  23
ENDBRANCH   1  20
TORSDOF 4
ENDMDL
MODEL 6
REMARK VINA RESULT:      -8.4      2.408      3.329
REMARK  Name = 
REMARK  7 active torsions:
REMARK  status: ('A' for Active; 'I' for Inactive)
REMARK    1  A    between atoms: C_1  and  C_2
REMARK    2  A    between atoms: C_5  and  O_6
REMARK    3  A    between atoms: O_6  and  C_7
REMARK    4  A    between atoms: C_10  and  N_11
REMARK    5  A    between atoms: C_12  and  C_14
REMARK    6  A    between atoms: N_16  and  C_17
REMARK    7  A    between atoms: C_29  and  C_30
REMARK                            x       y       z     vdW  Elec       q    Type
REMARK                         _______ _______ _______ _____ _____    ______ ____
ROOT
ATOM      1  N   UNL     1       1.459   7.815  21.240  0.00  0.00    +0.000 N 
ATOM      2  C   UNL     1       1.924   7.560  19.964  0.00  0.00    +0.000 C 
ATOM      3  O   UNL     1       1.786   8.262  18.974  0.00  0.00    +0.000 OA
ATOM      4  H   UNL     1       1.526   7.043  21.898  0.00  0.00    +0.000 HD
ENDROOT
BRANCH   2   5
ATOM      5  C   UNL     1       2.628   6.216  19.793  0.00  0.00    +0.000 A 
ATOM      6  N   UNL     1       2.320   5.286  20.651  0.00  0.00    +0.000 NA
ATOM      7  N   UNL     1       2.812   4.016  20.443  0.00  0.00    +0.000 N 
ATOM      8  C   UNL     1       2.329   2.973  21.328  0.00  0.00    +0.000 C 
ATOM      9  C   UNL     1       3.571   3.634  19.337  0.00  0.00    +0.000 A 
ATOM     10  O   UNL     1       3.941   2.482  19.125  0.00  0.00    +0.000 OA
ATOM     11  C   UNL     1       3.932   4.700  18.387  0.00  0.00    +0.000 A 
ATOM     12  C   UNL     1       4.668   4.396  17.234  0.00  0.00    +0.000 A 
ATOM     13  C   UNL     1       5.006   5.406  16.333  0.00  0.00    +0.000 A 
ATOM     14  C   UNL     1       4.646   6.723  16.607  0.00  0.00    +0.000 A 
ATOM     15  C   UNL     1       3.920   7.026  17.762  0.00  0.00    +0.000 A 
ATOM     16  C   UNL     1       3.523   6.004  18.636  0.00  0.00    +0.000 A 
ENDBRANCH   2   5
BRANCH   1  20
ATOM     17  C   UNL     1      -0.404  11.364  22.383  0.00  0.00    +0.000 A 
ATOM     18  C   UNL     1      -0.838  10.200  22.988  0.00  0.00    +0.000 A 
ATOM     19  C   UNL     1      -0.242   8.997  22.607  0.00  0.00    +0.000 A 
ATOM     20  C   UNL     1       0.763   8.981  21.638  0.00  0.00    +0.000 A 
ATOM     21  C   UNL     1       1.083  10.204  21.054  0.00  0.00    +0.000 A 
ATOM     22  N   UNL     1       0.516  11.387  21.392  0.00  0.00    +0.000 NA
BRANCH  17  23
ATOM     23  O   UNL     1      -0.983  12.544  22.830  0.00  0.00    +0.000 OA
BRANCH  23  28
ATOM     24  C   UNL     1      -6.605  13.061  22.142  0.00  0.00    +0.000 C 
ATOM     25  C   UNL     1      -5.120  12.905  22.317  0.00  0.00    +0.000 A 
ATOM     26  C   UNL     1      -4.583  12.912  23.611  0.00  0.00    +0.000 A 
ATOM     27  C   UNL     1      -3.210  12.781  23.813  0.00  0.00    +0.000 A 
ATOM     28  C   UNL     1      -2.349  12.676  22.721  0.00  0.00    +0.000 A 
ATOM     29  C   UNL     1      -2.876  12.632  21.430  0.00  0.00    +0.000 A 
ATOM     30  C   UNL     1      -4.258  12.758  21.211  0.00  0.00    +0.000 A 
ATOM     31  C   UNL     1      -4.784  12.757  19.802  0.00  0.00    +0.000 C 
ENDBRANCH  23  28
ENDBRANCH  17  23
ENDBRANCH   1  20
TORSDOF 4
ENDMDL
MODEL 7
REMARK VINA RESULT:      -8.4      1.275      1.811
REMARK  Name = 
REMARK  7 active torsions:
REMARK  status: ('A' for Active; 'I' for Inactive)
REMARK    1  A    between atoms: C_1  and  C_2
REMARK    2  A    between atoms: C_5  and  O_6
REMARK    3  A    between atoms: O_6  and  C_7
REMARK    4  A    between atoms: C_10  and  N_11
REMARK    5  A    between atoms: C_12  and  C_14
REMARK    6  A    between atoms: N_16  and  C_17
REMARK    7  A    between atoms: C_29  and  C_30
REMARK                            x       y       z     vdW  Elec       q    Type
REMARK                         _______ _______ _______ _____ _____    ______ ____
ROOT
ATOM      1  N   UNL     1       1.791   8.270  18.976  0.00  0.00    +0.000 N 
ATOM      2  C   UNL     1       2.218   7.061  19.494  0.00  0.00    +0.000 C 
ATOM      3  O   UNL     1       2.141   6.687  20.655  0.00  0.00    +0.000 OA
ATOM      4  H   UNL     1       2.084   8.471  18.024  0.00  0.00    +0.000 HD
ENDROOT
BRANCH   2   5
ATOM      5  C   UNL     1       2.913   6.143  18.492  0.00  0.00    +0.000 A 
ATOM      6  N   UNL     1       3.918   6.651  17.839  0.00  0.00    +0.000 NA
ATOM      7  N   UNL     1       4.669   5.815  17.041  0.00  0.00    +0.000 N 
ATOM      8  C   UNL     1       5.868   6.377  16.449  0.00  0.00    +0.000 C 
ATOM      9  C   UNL     1       4.469   4.439  16.930  0.00  0.00    +0.000 A 
ATOM     10  O   UNL     1       5.192   3.693  16.274  0.00  0.00    +0.000 OA
ATOM     11  C   UNL     1       3.315   3.881  17.655  0.00  0.00    +0.000 A 
ATOM     12  C   UNL     1       3.060   2.503  17.620  0.00  0.00    +0.000 A 
ATOM     13  C   UNL     1       1.969   1.976  18.310  0.00  0.00    +0.000 A 
ATOM     14  C   UNL     1       1.110   2.830  18.998  0.00  0.00    +0.000 A 
ATOM     15  C   UNL     1       1.360   4.205  19.024  0.00  0.00    +0.000 A 
ATOM     16  C   UNL     1       2.492   4.730  18.386  0.00  0.00    +0.000 A 
ENDBRANCH   2   5
BRANCH   1  20
ATOM     17  C   UNL     1       0.028  11.411  21.074  0.00  0.00    +0.000 A 
ATOM     18  C   UNL     1      -0.095  10.143  21.612  0.00  0.00    +0.000 A 
ATOM     19  C   UNL     1       0.471   9.074  20.917  0.00  0.00    +0.000 A 
ATOM     20  C   UNL     1       1.139   9.288  19.710  0.00  0.00    +0.000 A 
ATOM     21  C   UNL     1       1.154  10.596  19.232  0.00  0.00    +0.000 A 
ATOM     22  N   UNL     1       0.605  11.655  19.875  0.00  0.00    +0.000 NA
BRANCH  17  23
ATOM     23  O   UNL     1      -0.500  12.453  21.823  0.00  0.00    +0.000 OA
BRANCH  23  28
ATOM     24  C   UNL     1      -6.144  12.927  22.349  0.00  0.00    +0.000 C 
ATOM     25  C   UNL     1      -4.649  12.819  22.220  0.00  0.00    +0.000 A 
ATOM     26  C   UNL     1      -4.066  12.929  20.951  0.00  0.00    +0.000 A 
ATOM     27  C   UNL     1      -2.685  12.824  20.790  0.00  0.00    +0.000 A 
ATOM     28  C   UNL     1      -1.870  12.571  21.892  0.00  0.00    +0.000 A 
ATOM     29  C   UNL     1      -2.436  12.495  23.166  0.00  0.00    +0.000 A 
ATOM     30  C   UNL     1      -3.825  12.605  23.344  0.00  0.00    +0.000 A 
ATOM     31  C   UNL     1      -4.403  12.467  24.725  0.00  0.00    +0.000 C 
ENDBRANCH  23  28
ENDBRANCH  17  23
ENDBRANCH   1  20
TORSDOF 4
ENDMDL
MODEL 8
REMARK VINA RESULT:      -8.3      6.727     10.150
REMARK  Name = 
REMARK  7 active torsions:
REMARK  status: ('A' for Active; 'I' for Inactive)
REMARK    1  A    between atoms: C_1  and  C_2
REMARK    2  A    between atoms: C_5  and  O_6
REMARK    3  A    between atoms: O_6  and  C_7
REMARK    4  A    between atoms: C_10  and  N_11
REMARK    5  A    between atoms: C_12  and  C_14
REMARK    6  A    between atoms: N_16  and  C_17
REMARK    7  A    between atoms: C_29  and  C_30
REMARK                            x       y       z     vdW  Elec       q    Type
REMARK                         _______ _______ _______ _____ _____    ______ ____
ROOT
ATOM      1  N   UNL     1       8.923   8.750  18.738  0.00  0.00    +0.000 N 
ATOM      2  C   UNL     1       8.650  10.035  18.309  0.00  0.00    +0.000 C 
ATOM      3  O   UNL     1       7.723  10.396  17.600  0.00  0.00    +0.000 OA
ATOM      4  H   UNL     1       9.825   8.615  19.185  0.00  0.00    +0.000 HD
ENDROOT
BRANCH   2   5
ATOM      5  C   UNL     1       9.676  11.085  18.733  0.00  0.00    +0.000 A 
ATOM      6  N   UNL     1      10.551  11.436  17.836  0.00  0.00    +0.000 NA
ATOM      7  N   UNL     1      11.395  12.487  18.124  0.00  0.00    +0.000 N 
ATOM      8  C   UNL     1      12.252  12.952  17.050  0.00  0.00    +0.000 C 
ATOM      9  C   UNL     1      11.337  13.250  19.290  0.00  0.00    +0.000 A 
ATOM     10  O   UNL     1      12.045  14.232  19.502  0.00  0.00    +0.000 OA
ATOM     11  C   UNL     1      10.359  12.827  20.306  0.00  0.00    +0.000 A 
ATOM     12  C   UNL     1      10.217  13.556  21.495  0.00  0.00    +0.000 A 
ATOM     13  C   UNL     1       9.287  13.155  22.454  0.00  0.00    +0.000 A 
ATOM     14  C   UNL     1       8.532  12.004  22.244  0.00  0.00    +0.000 A 
ATOM     15  C   UNL     1       8.682  11.272  21.063  0.00  0.00    +0.000 A 
ATOM     16  C   UNL     1       9.568  11.709  20.069  0.00  0.00    +0.000 A 
ENDBRANCH   2   5
BRANCH   1  20
ATOM     17  C   UNL     1       6.758   5.268  17.987  0.00  0.00    +0.000 A 
ATOM     18  C   UNL     1       6.554   6.336  17.132  0.00  0.00    +0.000 A 
ATOM     19  C   UNL     1       7.253   7.518  17.376  0.00  0.00    +0.000 A 
ATOM     20  C   UNL     1       8.132   7.611  18.458  0.00  0.00    +0.000 A 
ATOM     21  C   UNL     1       8.218   6.494  19.285  0.00  0.00    +0.000 A 
ATOM     22  N   UNL     1       7.545   5.336  19.084  0.00  0.00    +0.000 NA
BRANCH  17  23
ATOM     23  O   UNL     1       6.086   4.094  17.677  0.00  0.00    +0.000 OA
BRANCH  23  28
ATOM     24  C   UNL     1       1.041   3.144  20.127  0.00  0.00    +0.000 C 
ATOM     25  C   UNL     1       2.370   3.382  19.464  0.00  0.00    +0.000 A 
ATOM     26  C   UNL     1       3.539   2.977  20.121  0.00  0.00    +0.000 A 
ATOM     27  C   UNL     1       4.791   3.189  19.544  0.00  0.00    +0.000 A 
ATOM     28  C   UNL     1       4.893   3.842  18.317  0.00  0.00    +0.000 A 
ATOM     29  C   UNL     1       3.734   4.219  17.637  0.00  0.00    +0.000 A 
ATOM     30  C   UNL     1       2.465   4.006  18.204  0.00  0.00    +0.000 A 
ATOM     31  C   UNL     1       1.241   4.470  17.465  0.00  0.00    +0.000 C 
ENDBRANCH  23  28
ENDBRANCH  17  23
ENDBRANCH   1  20
TORSDOF 4
ENDMDL
MODEL 9
REMARK VINA RESULT:      -8.3      0.745      1.549
REMARK  Name = 
REMARK  7 active torsions:
REMARK  status: ('A' for Active; 'I' for Inactive)
REMARK    1  A    between atoms: C_1  and  C_2
REMARK    2  A    between atoms: C_5  and  O_6
REMARK    3  A    between atoms: O_6  and  C_7
REMARK    4  A    between atoms: C_10  and  N_11
REMARK    5  A    between atoms: C_12  and  C_14
REMARK    6  A    between atoms: N_16  and  C_17
REMARK    7  A    between atoms: C_29  and  C_30
REMARK                            x       y       z     vdW  Elec       q    Type
REMARK                         _______ _______ _______ _____ _____    ______ ____
ROOT
ATOM      1  N   UNL     1       2.195   8.829  17.736  0.00  0.00    +0.000 N 
ATOM      2  C   UNL     1       2.526   7.762  18.550  0.00  0.00    +0.000 C 
ATOM      3  O   UNL     1       2.189   7.588  19.712  0.00  0.00    +0.000 OA
ATOM      4  H   UNL     1       2.698   8.885  16.855  0.00  0.00    +0.000 HD
ENDROOT
BRANCH   2   5
ATOM      5  C   UNL     1       3.469   6.740  17.919  0.00  0.00    +0.000 A 
ATOM      6  N   UNL     1       4.662   7.162  17.614  0.00  0.00    +0.000 NA
ATOM      7  N   UNL     1       5.592   6.239  17.187  0.00  0.00    +0.000 N 
ATOM      8  C   UNL     1       6.950   6.715  17.002  0.00  0.00    +0.000 C 
ATOM      9  C   UNL     1       5.366   4.865  17.117  0.00  0.00    +0.000 A 
ATOM     10  O   UNL     1       6.226   4.044  16.806  0.00  0.00    +0.000 OA
ATOM     11  C   UNL     1       4.006   4.404  17.441  0.00  0.00    +0.000 A 
ATOM     12  C   UNL     1       3.702   3.036  17.422  0.00  0.00    +0.000 A 
ATOM     13  C   UNL     1       2.414   2.601  17.733  0.00  0.00    +0.000 A 
ATOM     14  C   UNL     1       1.421   3.534  18.020  0.00  0.00    +0.000 A 
ATOM     15  C   UNL     1       1.722   4.899  18.028  0.00  0.00    +0.000 A 
ATOM     16  C   UNL     1       3.032   5.335  17.780  0.00  0.00    +0.000 A 
ENDBRANCH   2   5
BRANCH   1  20
ATOM     17  C   UNL     1      -0.428  11.932  18.665  0.00  0.00    +0.000 A 
ATOM     18  C   UNL     1       0.925  12.194  18.773  0.00  0.00    +0.000 A 
ATOM     19  C   UNL     1       1.821  11.165  18.486  0.00  0.00    +0.000 A 
ATOM     20  C   UNL     1       1.354   9.906  18.102  0.00  0.00    +0.000 A 
ATOM     21  C   UNL     1      -0.028   9.736  18.080  0.00  0.00    +0.000 A 
ATOM     22  N   UNL     1      -0.925  10.711  18.365  0.00  0.00    +0.000 NA
BRANCH  17  23
ATOM     23  O   UNL     1      -1.284  12.998  18.906  0.00  0.00    +0.000 OA
BRANCH  23  28
ATOM     24  C   UNL     1      -4.199  13.011  23.790  0.00  0.00    +0.000 C 
ATOM     25  C   UNL     1      -3.427  13.029  22.499  0.00  0.00    +0.000 A 
ATOM     26  C   UNL     1      -4.061  12.608  21.323  0.00  0.00    +0.000 A 
ATOM     27  C   UNL     1      -3.376  12.599  20.108  0.00  0.00    +0.000 A 
ATOM     28  C   UNL     1      -2.035  12.978  20.059  0.00  0.00    +0.000 A 
ATOM     29  C   UNL     1      -1.404  13.432  21.218  0.00  0.00    +0.000 A 
ATOM     30  C   UNL     1      -2.083  13.452  22.448  0.00  0.00    +0.000 A 
ATOM     31  C   UNL     1      -1.355  13.900  23.685  0.00  0.00    +0.000 C 
ENDBRANCH  23  28
ENDBRANCH  17  23
ENDBRANCH   1  20
TORSDOF 4
ENDMDL
