MODEL 1
REMARK VINA RESULT:      -9.3      0.000      0.000
REMARK  Name = 
REMARK  3 active torsions:
REMARK  status: ('A' for Active; 'I' for Inactive)
REMARK    1  A    between atoms: C_2  and  C_3
REMARK    2  A    between atoms: N_6  and  C_7
REMARK    3  A    between atoms: C_17  and  C_18
REMARK                            x       y       z     vdW  Elec       q    Type
REMARK                         _______ _______ _______ _____ _____    ______ ____
ROOT
ATOM      1  O   UNL     1       4.711   5.028  19.778  0.00  0.00    +0.000 OA
ATOM      2  C   UNL     1       4.427   5.712  18.797  0.00  0.00    +0.000 C 
ATOM      3  N   UNL     1       3.274   6.500  18.748  0.00  0.00    +0.000 N 
ATOM      4  C   UNL     1       2.935   7.378  17.638  0.00  0.00    +0.000 C 
ATOM      5  C   UNL     1       2.055   8.509  18.032  0.00  0.00    +0.000 C 
ATOM      6  C   UNL     1       1.550   8.704  19.261  0.00  0.00    +0.000 C 
ATOM      7  C   UNL     1       1.825   7.698  20.351  0.00  0.00    +0.000 C 
ATOM      8  C   UNL     1       2.265   6.343  19.791  0.00  0.00    +0.000 C 
ENDROOT
BRANCH   6   9
ATOM      9  C   UNL     1       0.682   9.799  19.589  0.00  0.00    +0.000 A 
ATOM     10  C   UNL     1       0.876  10.637  20.675  0.00  0.00    +0.000 A 
ATOM     11  N   UNL     1      -0.079  11.618  20.635  0.00  0.00    +0.000 N 
ATOM     12  C   UNL     1      -0.864  11.450  19.531  0.00  0.00    +0.000 A 
ATOM     13  N   UNL     1      -1.834  12.305  19.160  0.00  0.00    +0.000 NA
ATOM     14  C   UNL     1      -2.480  11.910  18.041  0.00  0.00    +0.000 A 
ATOM     15  C   UNL     1      -2.254  10.728  17.351  0.00  0.00    +0.000 A 
ATOM     16  C   UNL     1      -1.245   9.874  17.789  0.00  0.00    +0.000 A 
ATOM     17  C   UNL     1      -0.478  10.271  18.898  0.00  0.00    +0.000 A 
ATOM     18  H   UNL     1      -0.186  12.380  21.288  0.00  0.00    +0.000 HD
ENDBRANCH   6   9
BRANCH   2  19
ATOM     19  C   UNL     1       5.336   5.766  17.661  0.00  0.00    +0.000 A 
ATOM     20  C   UNL     1       6.549   6.454  17.466  0.00  0.00    +0.000 A 
ATOM     21  N   UNL     1       7.148   6.145  16.320  0.00  0.00    +0.000 NA
ATOM     22  N   UNL     1       6.260   5.341  15.683  0.00  0.00    +0.000 N 
ATOM     23  C   UNL     1       5.144   5.120  16.456  0.00  0.00    +0.000 A 
BRANCH  22  24
ATOM     24  C   UNL     1       6.537   4.850  14.382  0.00  0.00    +0.000 A 
ATOM     25  C   UNL     1       7.587   5.416  13.642  0.00  0.00    +0.000 A 
ATOM     26  C   UNL     1       7.855   4.963  12.351  0.00  0.00    +0.000 A 
ATOM     27  C   UNL     1       7.073   3.954  11.793  0.00  0.00    +0.000 A 
ATOM     28  C   UNL     1       6.034   3.385  12.525  0.00  0.00    +0.000 A 
ATOM     29  C   UNL     1       5.768   3.823  13.824  0.00  0.00    +0.000 A 
ENDBRANCH  22  24
ENDBRANCH   2  19
TORSDOF 3
ENDMDL
MODEL 2
REMARK VINA RESULT:      -9.2      1.177      1.464
REMARK  Name = 
REMARK  3 active torsions:
REMARK  status: ('A' for Active; 'I' for Inactive)
REMARK    1  A    between atoms: C_2  and  C_3
REMARK    2  A    between atoms: N_6  and  C_7
REMARK    3  A    between atoms: C_17  and  C_18
REMARK                            x       y       z     vdW  Elec       q    Type
REMARK                         _______ _______ _______ _____ _____    ______ ____
ROOT
ATOM      1  O   UNL     1       4.194   3.294  19.491  0.00  0.00    +0.000 OA
ATOM      2  C   UNL     1       4.160   4.288  18.768  0.00  0.00    +0.000 C 
ATOM      3  N   UNL     1       3.189   5.282  18.914  0.00  0.00    +0.000 N 
ATOM      4  C   UNL     1       3.153   6.506  18.128  0.00  0.00    +0.000 C 
ATOM      5  C   UNL     1       2.460   7.626  18.817  0.00  0.00    +0.000 C 
ATOM      6  C   UNL     1       1.861   7.544  20.017  0.00  0.00    +0.000 C 
ATOM      7  C   UNL     1       1.813   6.220  20.739  0.00  0.00    +0.000 C 
ATOM      8  C   UNL     1       2.054   5.037  19.798  0.00  0.00    +0.000 C 
ENDROOT
BRANCH   6   9
ATOM      9  C   UNL     1       1.182   8.647  20.633  0.00  0.00    +0.000 A 
ATOM     10  C   UNL     1       1.203   8.902  21.994  0.00  0.00    +0.000 A 
ATOM     11  N   UNL     1       0.532  10.073  22.221  0.00  0.00    +0.000 N 
ATOM     12  C   UNL     1       0.107  10.598  21.035  0.00  0.00    +0.000 A 
ATOM     13  N   UNL     1      -0.502  11.791  20.914  0.00  0.00    +0.000 NA
ATOM     14  C   UNL     1      -0.841  12.078  19.638  0.00  0.00    +0.000 A 
ATOM     15  C   UNL     1      -0.664  11.242  18.545  0.00  0.00    +0.000 A 
ATOM     16  C   UNL     1      -0.039  10.011  18.733  0.00  0.00    +0.000 A 
ATOM     17  C   UNL     1       0.415   9.690  20.024  0.00  0.00    +0.000 A 
ATOM     18  H   UNL     1       0.390  10.522  23.115  0.00  0.00    +0.000 HD
ENDBRANCH   6   9
BRANCH   2  19
ATOM     19  C   UNL     1       5.189   4.487  17.757  0.00  0.00    +0.000 A 
ATOM     20  C   UNL     1       6.532   4.896  17.859  0.00  0.00    +0.000 A 
ATOM     21  N   UNL     1       7.187   4.837  16.704  0.00  0.00    +0.000 NA
ATOM     22  N   UNL     1       6.235   4.510  15.794  0.00  0.00    +0.000 N 
ATOM     23  C   UNL     1       5.013   4.322  16.398  0.00  0.00    +0.000 A 
BRANCH  22  24
ATOM     24  C   UNL     1       6.558   4.409  14.418  0.00  0.00    +0.000 A 
ATOM     25  C   UNL     1       7.539   5.254  13.877  0.00  0.00    +0.000 A 
ATOM     26  C   UNL     1       7.848   5.186  12.519  0.00  0.00    +0.000 A 
ATOM     27  C   UNL     1       7.176   4.284  11.698  0.00  0.00    +0.000 A 
ATOM     28  C   UNL     1       6.205   3.438  12.231  0.00  0.00    +0.000 A 
ATOM     29  C   UNL     1       5.899   3.490  13.592  0.00  0.00    +0.000 A 
ENDBRANCH  22  24
ENDBRANCH   2  19
TORSDOF 3
ENDMDL
MODEL 3
REMARK VINA RESULT:      -9.2      1.144      2.023
REMARK  Name = 
REMARK  3 active torsions:
REMARK  status: ('A' for Active; 'I' for Inactive)
REMARK    1  A    between atoms: C_2  and  C_3
REMARK    2  A    between atoms: N_6  and  C_7
REMARK    3  A    between atoms: C_17  and  C_18
REMARK                            x       y       z     vdW  Elec       q    Type
REMARK                         _______ _______ _______ _____ _____    ______ ____
ROOT
ATOM      1  O   UNL     1       4.847   4.617  19.670  0.00  0.00    +0.000 OA
ATOM      2  C   UNL     1       4.580   5.361  18.729  0.00  0.00    +0.000 C 
ATOM      3  N   UNL     1       3.448   6.180  18.725  0.00  0.00    +0.000 N 
ATOM      4  C   UNL     1       3.130   7.125  17.665  0.00  0.00    +0.000 C 
ATOM      5  C   UNL     1       2.280   8.255  18.121  0.00  0.00    +0.000 C 
ATOM      6  C   UNL     1       1.782   8.397  19.361  0.00  0.00    +0.000 C 
ATOM      7  C   UNL     1       2.032   7.326  20.394  0.00  0.00    +0.000 C 
ATOM      8  C   UNL     1       2.436   5.992  19.760  0.00  0.00    +0.000 C 
ENDROOT
BRANCH   6   9
ATOM      9  C   UNL     1       0.943   9.494  19.750  0.00  0.00    +0.000 A 
ATOM     10  C   UNL     1       0.461  10.446  18.866  0.00  0.00    +0.000 A 
ATOM     11  N   UNL     1      -0.373  11.286  19.555  0.00  0.00    +0.000 N 
ATOM     12  C   UNL     1      -0.464  10.880  20.854  0.00  0.00    +0.000 A 
ATOM     13  N   UNL     1      -1.279  11.444  21.764  0.00  0.00    +0.000 NA
ATOM     14  C   UNL     1      -1.175  10.873  22.984  0.00  0.00    +0.000 A 
ATOM     15  C   UNL     1      -0.294   9.860  23.332  0.00  0.00    +0.000 A 
ATOM     16  C   UNL     1       0.536   9.322  22.351  0.00  0.00    +0.000 A 
ATOM     17  C   UNL     1       0.414   9.815  21.039  0.00  0.00    +0.000 A 
ATOM     18  H   UNL     1      -0.882  12.071  19.176  0.00  0.00    +0.000 HD
ENDBRANCH   6   9
BRANCH   2  19
ATOM     19  C   UNL     1       5.488   5.453  17.595  0.00  0.00    +0.000 A 
ATOM     20  C   UNL     1       6.741   6.080  17.449  0.00  0.00    +0.000 A 
ATOM     21  N   UNL     1       7.318   5.829  16.278  0.00  0.00    +0.000 NA
ATOM     22  N   UNL     1       6.383   5.136  15.583  0.00  0.00    +0.000 N 
ATOM     23  C   UNL     1       5.256   4.919  16.343  0.00  0.00    +0.000 A 
BRANCH  22  24
ATOM     24  C   UNL     1       6.627   4.737  14.245  0.00  0.00    +0.000 A 
ATOM     25  C   UNL     1       7.628   5.386  13.505  0.00  0.00    +0.000 A 
ATOM     26  C   UNL     1       7.862   5.024  12.179  0.00  0.00    +0.000 A 
ATOM     27  C   UNL     1       7.096   4.023  11.587  0.00  0.00    +0.000 A 
ATOM     28  C   UNL     1       6.106   3.371  12.318  0.00  0.00    +0.000 A 
ATOM     29  C   UNL     1       5.874   3.718  13.650  0.00  0.00    +0.000 A 
ENDBRANCH  22  24
ENDBRANCH   2  19
TORSDOF 3
ENDMDL
MODEL 4
REMARK VINA RESULT:      -9.2      1.456      2.322
REMARK  Name = 
REMARK  3 active torsions:
REMARK  status: ('A' for Active; 'I' for Inactive)
REMARK    1  A    between atoms: C_2  and  C_3
REMARK    2  A    between atoms: N_6  and  C_7
REMARK    3  A    between atoms: C_17  and  C_18
REMARK                            x       y       z     vdW  Elec       q    Type
REMARK                         _______ _______ _______ _____ _____    ______ ____
ROOT
ATOM      1  O   UNL     1       4.353   3.888  19.722  0.00  0.00    +0.000 OA
ATOM      2  C   UNL     1       4.306   4.723  18.821  0.00  0.00    +0.000 C 
ATOM      3  N   UNL     1       3.309   5.700  18.764  0.00  0.00    +0.000 N 
ATOM      4  C   UNL     1       3.254   6.749  17.756  0.00  0.00    +0.000 C 
ATOM      5  C   UNL     1       2.525   7.962  18.210  0.00  0.00    +0.000 C 
ATOM      6  C   UNL     1       1.910   8.095  19.398  0.00  0.00    +0.000 C 
ATOM      7  C   UNL     1       1.884   6.935  20.361  0.00  0.00    +0.000 C 
ATOM      8  C   UNL     1       2.167   5.599  19.667  0.00  0.00    +0.000 C 
ENDROOT
BRANCH   6   9
ATOM      9  C   UNL     1       1.195   9.278  19.783  0.00  0.00    +0.000 A 
ATOM     10  C   UNL     1       0.909  10.322  18.918  0.00  0.00    +0.000 A 
ATOM     11  N   UNL     1       0.144  11.237  19.590  0.00  0.00    +0.000 N 
ATOM     12  C   UNL     1      -0.099  10.793  20.857  0.00  0.00    +0.000 A 
ATOM     13  N   UNL     1      -0.899  11.422  21.736  0.00  0.00    +0.000 NA
ATOM     14  C   UNL     1      -0.964  10.792  22.929  0.00  0.00    +0.000 A 
ATOM     15  C   UNL     1      -0.252   9.656  23.285  0.00  0.00    +0.000 A 
ATOM     16  C   UNL     1       0.572   9.053  22.337  0.00  0.00    +0.000 A 
ATOM     17  C   UNL     1       0.616   9.612  21.048  0.00  0.00    +0.000 A 
ATOM     18  H   UNL     1      -0.228  12.099  19.218  0.00  0.00    +0.000 HD
ENDBRANCH   6   9
BRANCH   2  19
ATOM     19  C   UNL     1       5.344   4.751  17.800  0.00  0.00    +0.000 A 
ATOM     20  C   UNL     1       6.743   4.876  17.895  0.00  0.00    +0.000 A 
ATOM     21  N   UNL     1       7.361   4.734  16.726  0.00  0.00    +0.000 NA
ATOM     22  N   UNL     1       6.355   4.644  15.822  0.00  0.00    +0.000 N 
ATOM     23  C   UNL     1       5.125   4.681  16.439  0.00  0.00    +0.000 A 
BRANCH  22  24
ATOM     24  C   UNL     1       6.637   4.536  14.437  0.00  0.00    +0.000 A 
ATOM     25  C   UNL     1       5.948   3.587  13.666  0.00  0.00    +0.000 A 
ATOM     26  C   UNL     1       6.234   3.449  12.308  0.00  0.00    +0.000 A 
ATOM     27  C   UNL     1       7.211   4.249  11.720  0.00  0.00    +0.000 A 
ATOM     28  C   UNL     1       7.893   5.196  12.479  0.00  0.00    +0.000 A 
ATOM     29  C   UNL     1       7.603   5.350  13.836  0.00  0.00    +0.000 A 
ENDBRANCH  22  24
ENDBRANCH   2  19
TORSDOF 3
ENDMDL
MODEL 5
REMARK VINA RESULT:      -8.9      0.608      1.096
REMARK  Name = 
REMARK  3 active torsions:
REMARK  status: ('A' for Active; 'I' for Inactive)
REMARK    1  A    between atoms: C_2  and  C_3
REMARK    2  A    between atoms: N_6  and  C_7
REMARK    3  A    between atoms: C_17  and  C_18
REMARK                            x       y       z     vdW  Elec       q    Type
REMARK                         _______ _______ _______ _____ _____    ______ ____
ROOT
ATOM      1  O   UNL     1       4.423   4.325  19.763  0.00  0.00    +0.000 OA
ATOM      2  C   UNL     1       4.266   5.174  18.887  0.00  0.00    +0.000 C 
ATOM      3  N   UNL     1       3.193   6.070  18.903  0.00  0.00    +0.000 N 
ATOM      4  C   UNL     1       3.007   7.134  17.928  0.00  0.00    +0.000 C 
ATOM      5  C   UNL     1       2.208   8.274  18.448  0.00  0.00    +0.000 C 
ATOM      6  C   UNL     1       1.643   8.331  19.666  0.00  0.00    +0.000 C 
ATOM      7  C   UNL     1       1.756   7.150  20.598  0.00  0.00    +0.000 C 
ATOM      8  C   UNL     1       2.109   5.858  19.856  0.00  0.00    +0.000 C 
ENDROOT
BRANCH   6   9
ATOM      9  C   UNL     1       0.857   9.444  20.116  0.00  0.00    +0.000 A 
ATOM     10  C   UNL     1       0.975  10.012  21.374  0.00  0.00    +0.000 A 
ATOM     11  N   UNL     1       0.147  11.100  21.433  0.00  0.00    +0.000 N 
ATOM     12  C   UNL     1      -0.479  11.267  20.231  0.00  0.00    +0.000 A 
ATOM     13  N   UNL     1      -1.286  12.302  19.940  0.00  0.00    +0.000 NA
ATOM     14  C   UNL     1      -1.796  12.232  18.690  0.00  0.00    +0.000 A 
ATOM     15  C   UNL     1      -1.597  11.195  17.791  0.00  0.00    +0.000 A 
ATOM     16  C   UNL     1      -0.761  10.141  18.152  0.00  0.00    +0.000 A 
ATOM     17  C   UNL     1      -0.130  10.198  19.408  0.00  0.00    +0.000 A 
ATOM     18  H   UNL     1       0.025  11.722  22.218  0.00  0.00    +0.000 HD
ENDBRANCH   6   9
BRANCH   2  19
ATOM     19  C   UNL     1       5.247   5.309  17.821  0.00  0.00    +0.000 A 
ATOM     20  C   UNL     1       6.537   5.873  17.804  0.00  0.00    +0.000 A 
ATOM     21  N   UNL     1       7.174   5.689  16.651  0.00  0.00    +0.000 NA
ATOM     22  N   UNL     1       6.249   5.111  15.845  0.00  0.00    +0.000 N 
ATOM     23  C   UNL     1       5.066   4.897  16.516  0.00  0.00    +0.000 A 
BRANCH  22  24
ATOM     24  C   UNL     1       6.556   4.813  14.493  0.00  0.00    +0.000 A 
ATOM     25  C   UNL     1       5.884   3.761  13.851  0.00  0.00    +0.000 A 
ATOM     26  C   UNL     1       6.195   3.436  12.531  0.00  0.00    +0.000 A 
ATOM     27  C   UNL     1       7.179   4.152  11.853  0.00  0.00    +0.000 A 
ATOM     28  C   UNL     1       7.844   5.201  12.484  0.00  0.00    +0.000 A 
ATOM     29  C   UNL     1       7.530   5.541  13.801  0.00  0.00    +0.000 A 
ENDBRANCH  22  24
ENDBRANCH   2  19
TORSDOF 3
ENDMDL
MODEL 6
REMARK VINA RESULT:      -8.5      4.052     10.429
REMARK  Name = 
REMARK  3 active torsions:
REMARK  status: ('A' for Active; 'I' for Inactive)
REMARK    1  A    between atoms: C_2  and  C_3
REMARK    2  A    between atoms: N_6  and  C_7
REMARK    3  A    between atoms: C_17  and  C_18
REMARK                            x       y       z     vdW  Elec       q    Type
REMARK                         _______ _______ _______ _____ _____    ______ ____
ROOT
ATOM      1  O   UNL     1       1.483  12.019  18.113  0.00  0.00    +0.000 OA
ATOM      2  C   UNL     1       1.162  11.393  19.122  0.00  0.00    +0.000 C 
ATOM      3  N   UNL     1       1.212   9.997  19.179  0.00  0.00    +0.000 N 
ATOM      4  C   UNL     1       0.908   9.220  20.371  0.00  0.00    +0.000 C 
ATOM      5  C   UNL     1       1.576   7.893  20.393  0.00  0.00    +0.000 C 
ATOM      6  C   UNL     1       2.339   7.395  19.405  0.00  0.00    +0.000 C 
ATOM      7  C   UNL     1       2.522   8.183  18.132  0.00  0.00    +0.000 C 
ATOM      8  C   UNL     1       1.436   9.247  17.948  0.00  0.00    +0.000 C 
ENDROOT
BRANCH   6   9
ATOM      9  C   UNL     1       2.944   6.095  19.460  0.00  0.00    +0.000 A 
ATOM     10  C   UNL     1       4.224   5.821  19.006  0.00  0.00    +0.000 A 
ATOM     11  N   UNL     1       4.509   4.513  19.292  0.00  0.00    +0.000 N 
ATOM     12  C   UNL     1       3.456   3.946  19.948  0.00  0.00    +0.000 A 
ATOM     13  N   UNL     1       3.464   2.697  20.447  0.00  0.00    +0.000 NA
ATOM     14  C   UNL     1       2.296   2.362  21.038  0.00  0.00    +0.000 A 
ATOM     15  C   UNL     1       1.159   3.155  21.092  0.00  0.00    +0.000 A 
ATOM     16  C   UNL     1       1.205   4.436  20.547  0.00  0.00    +0.000 A 
ATOM     17  C   UNL     1       2.420   4.876  19.994  0.00  0.00    +0.000 A 
ATOM     18  H   UNL     1       5.372   4.028  19.092  0.00  0.00    +0.000 HD
ENDBRANCH   6   9
BRANCH   2  19
ATOM     19  C   UNL     1       0.771  12.108  20.327  0.00  0.00    +0.000 A 
ATOM     20  C   UNL     1       1.466  13.028  21.136  0.00  0.00    +0.000 A 
ATOM     21  N   UNL     1       0.711  13.559  22.092  0.00  0.00    +0.000 NA
ATOM     22  N   UNL     1      -0.464  12.889  22.005  0.00  0.00    +0.000 N 
ATOM     23  C   UNL     1      -0.447  11.986  20.966  0.00  0.00    +0.000 A 
BRANCH  22  24
ATOM     24  C   UNL     1      -1.514  13.153  22.919  0.00  0.00    +0.000 A 
ATOM     25  C   UNL     1      -2.592  12.257  23.007  0.00  0.00    +0.000 A 
ATOM     26  C   UNL     1      -3.647  12.517  23.881  0.00  0.00    +0.000 A 
ATOM     27  C   UNL     1      -3.634  13.670  24.662  0.00  0.00    +0.000 A 
ATOM     28  C   UNL     1      -2.564  14.559  24.584  0.00  0.00    +0.000 A 
ATOM     29  C   UNL     1      -1.497  14.300  23.721  0.00  0.00    +0.000 A 
ENDBRANCH  22  24
ENDBRANCH   2  19
TORSDOF 3
ENDMDL
MODEL 7
REMARK VINA RESULT:      -8.5      1.432      2.014
REMARK  Name = 
REMARK  3 active torsions:
REMARK  status: ('A' for Active; 'I' for Inactive)
REMARK    1  A    between atoms: C_2  and  C_3
REMARK    2  A    between atoms: N_6  and  C_7
REMARK    3  A    between atoms: C_17  and  C_18
REMARK                            x       y       z     vdW  Elec       q    Type
REMARK                         _______ _______ _______ _____ _____    ______ ____
ROOT
ATOM      1  O   UNL     1       4.344   5.172  19.813  0.00  0.00    +0.000 OA
ATOM      2  C   UNL     1       4.226   5.858  18.800  0.00  0.00    +0.000 C 
ATOM      3  N   UNL     1       3.172   6.759  18.630  0.00  0.00    +0.000 N 
ATOM      4  C   UNL     1       3.031   7.639  17.479  0.00  0.00    +0.000 C 
ATOM      5  C   UNL     1       2.242   8.864  17.770  0.00  0.00    +0.000 C 
ATOM      6  C   UNL     1       1.648   9.141  18.943  0.00  0.00    +0.000 C 
ATOM      7  C   UNL     1       1.713   8.139  20.069  0.00  0.00    +0.000 C 
ATOM      8  C   UNL     1       2.059   6.733  19.574  0.00  0.00    +0.000 C 
ENDROOT
BRANCH   6   9
ATOM      9  C   UNL     1       0.874  10.328  19.171  0.00  0.00    +0.000 A 
ATOM     10  C   UNL     1      -0.383  10.327  19.754  0.00  0.00    +0.000 A 
ATOM     11  N   UNL     1      -0.788  11.627  19.899  0.00  0.00    +0.000 N 
ATOM     12  C   UNL     1       0.191  12.466  19.453  0.00  0.00    +0.000 A 
ATOM     13  N   UNL     1       0.134  13.807  19.547  0.00  0.00    +0.000 NA
ATOM     14  C   UNL     1       1.219  14.415  19.019  0.00  0.00    +0.000 A 
ATOM     15  C   UNL     1       2.272  13.779  18.378  0.00  0.00    +0.000 A 
ATOM     16  C   UNL     1       2.271  12.388  18.299  0.00  0.00    +0.000 A 
ATOM     17  C   UNL     1       1.211  11.692  18.906  0.00  0.00    +0.000 A 
ATOM     18  H   UNL     1      -1.657  11.945  20.303  0.00  0.00    +0.000 HD
ENDBRANCH   6   9
BRANCH   2  19
ATOM     19  C   UNL     1       5.236   5.789  17.754  0.00  0.00    +0.000 A 
ATOM     20  C   UNL     1       6.592   6.169  17.739  0.00  0.00    +0.000 A 
ATOM     21  N   UNL     1       7.219   5.828  16.617  0.00  0.00    +0.000 NA
ATOM     22  N   UNL     1       6.238   5.333  15.821  0.00  0.00    +0.000 N 
ATOM     23  C   UNL     1       5.025   5.325  16.472  0.00  0.00    +0.000 A 
BRANCH  22  24
ATOM     24  C   UNL     1       6.527   4.911  14.499  0.00  0.00    +0.000 A 
ATOM     25  C   UNL     1       5.760   3.887  13.921  0.00  0.00    +0.000 A 
ATOM     26  C   UNL     1       6.049   3.441  12.632  0.00  0.00    +0.000 A 
ATOM     27  C   UNL     1       7.105   4.007  11.922  0.00  0.00    +0.000 A 
ATOM     28  C   UNL     1       7.866   5.027  12.489  0.00  0.00    +0.000 A 
ATOM     29  C   UNL     1       7.575   5.489  13.774  0.00  0.00    +0.000 A 
ENDBRANCH  22  24
ENDBRANCH   2  19
TORSDOF 3
ENDMDL
MODEL 8
REMARK VINA RESULT:      -8.1      3.897     10.611
REMARK  Name = 
REMARK  3 active torsions:
REMARK  status: ('A' for Active; 'I' for Inactive)
REMARK    1  A    between atoms: C_2  and  C_3
REMARK    2  A    between atoms: N_6  and  C_7
REMARK    3  A    between atoms: C_17  and  C_18
REMARK                            x       y       z     vdW  Elec       q    Type
REMARK                         _______ _______ _______ _____ _____    ______ ____
ROOT
ATOM      1  O   UNL     1       1.255  11.335  18.968  0.00  0.00    +0.000 OA
ATOM      2  C   UNL     1       0.936  10.427  19.733  0.00  0.00    +0.000 C 
ATOM      3  N   UNL     1       1.230   9.088  19.463  0.00  0.00    +0.000 N 
ATOM      4  C   UNL     1       0.933   7.991  20.372  0.00  0.00    +0.000 C 
ATOM      5  C   UNL     1       1.823   6.815  20.183  0.00  0.00    +0.000 C 
ATOM      6  C   UNL     1       2.775   6.710  19.240  0.00  0.00    +0.000 C 
ATOM      7  C   UNL     1       2.961   7.822  18.238  0.00  0.00    +0.000 C 
ATOM      8  C   UNL     1       1.730   8.727  18.141  0.00  0.00    +0.000 C 
ENDROOT
BRANCH   6   9
ATOM      9  C   UNL     1       3.594   5.543  19.079  0.00  0.00    +0.000 A 
ATOM     10  C   UNL     1       4.958   5.519  19.323  0.00  0.00    +0.000 A 
ATOM     11  N   UNL     1       5.401   4.234  19.157  0.00  0.00    +0.000 N 
ATOM     12  C   UNL     1       4.349   3.423  18.844  0.00  0.00    +0.000 A 
ATOM     13  N   UNL     1       4.442   2.087  18.711  0.00  0.00    +0.000 NA
ATOM     14  C   UNL     1       3.265   1.511  18.382  0.00  0.00    +0.000 A 
ATOM     15  C   UNL     1       2.077   2.182  18.132  0.00  0.00    +0.000 A 
ATOM     16  C   UNL     1       2.043   3.567  18.273  0.00  0.00    +0.000 A 
ATOM     17  C   UNL     1       3.215   4.218  18.698  0.00  0.00    +0.000 A 
ATOM     18  H   UNL     1       6.347   3.904  19.277  0.00  0.00    +0.000 HD
ENDBRANCH   6   9
BRANCH   2  19
ATOM     19  C   UNL     1       0.281  10.738  20.996  0.00  0.00    +0.000 A 
ATOM     20  C   UNL     1       0.349  10.120  22.260  0.00  0.00    +0.000 A 
ATOM     21  N   UNL     1      -0.311  10.785  23.203  0.00  0.00    +0.000 NA
ATOM     22  N   UNL     1      -0.936  11.786  22.534  0.00  0.00    +0.000 N 
ATOM     23  C   UNL     1      -0.620  11.764  21.195  0.00  0.00    +0.000 A 
BRANCH  22  24
ATOM     24  C   UNL     1      -1.793  12.684  23.218  0.00  0.00    +0.000 A 
ATOM     25  C   UNL     1      -3.110  12.293  23.509  0.00  0.00    +0.000 A 
ATOM     26  C   UNL     1      -3.974  13.176  24.156  0.00  0.00    +0.000 A 
ATOM     27  C   UNL     1      -3.532  14.449  24.506  0.00  0.00    +0.000 A 
ATOM     28  C   UNL     1      -2.224  14.840  24.225  0.00  0.00    +0.000 A 
ATOM     29  C   UNL     1      -1.349  13.958  23.590  0.00  0.00    +0.000 A 
ENDBRANCH  22  24
ENDBRANCH   2  19
TORSDOF 3
ENDMDL
MODEL 9
REMARK VINA RESULT:      -8.1      2.630      9.795
REMARK  Name = 
REMARK  3 active torsions:
REMARK  status: ('A' for Active; 'I' for Inactive)
REMARK    1  A    between atoms: C_2  and  C_3
REMARK    2  A    between atoms: N_6  and  C_7
REMARK    3  A    between atoms: C_17  and  C_18
REMARK                            x       y       z     vdW  Elec       q    Type
REMARK                         _______ _______ _______ _____ _____    ______ ____
ROOT
ATOM      1  O   UNL     1      -0.431   8.789  21.739  0.00  0.00    +0.000 OA
ATOM      2  C   UNL     1       0.130   9.198  20.724  0.00  0.00    +0.000 C 
ATOM      3  N   UNL     1       1.216   8.530  20.153  0.00  0.00    +0.000 N 
ATOM      4  C   UNL     1       1.865   8.939  18.917  0.00  0.00    +0.000 C 
ATOM      5  C   UNL     1       2.543   7.821  18.211  0.00  0.00    +0.000 C 
ATOM      6  C   UNL     1       2.627   6.558  18.664  0.00  0.00    +0.000 C 
ATOM      7  C   UNL     1       2.049   6.208  20.012  0.00  0.00    +0.000 C 
ATOM      8  C   UNL     1       1.847   7.443  20.895  0.00  0.00    +0.000 C 
ENDROOT
BRANCH   6   9
ATOM      9  C   UNL     1       3.315   5.515  17.958  0.00  0.00    +0.000 A 
ATOM     10  C   UNL     1       2.732   4.309  17.607  0.00  0.00    +0.000 A 
ATOM     11  N   UNL     1       3.638   3.593  16.871  0.00  0.00    +0.000 N 
ATOM     12  C   UNL     1       4.780   4.323  16.713  0.00  0.00    +0.000 A 
ATOM     13  N   UNL     1       5.825   3.933  15.960  0.00  0.00    +0.000 NA
ATOM     14  C   UNL     1       6.842   4.823  15.976  0.00  0.00    +0.000 A 
ATOM     15  C   UNL     1       6.885   5.990  16.724  0.00  0.00    +0.000 A 
ATOM     16  C   UNL     1       5.779   6.337  17.496  0.00  0.00    +0.000 A 
ATOM     17  C   UNL     1       4.653   5.496  17.454  0.00  0.00    +0.000 A 
ATOM     18  H   UNL     1       3.497   2.679  16.466  0.00  0.00    +0.000 HD
ENDBRANCH   6   9
BRANCH   2  19
ATOM     19  C   UNL     1      -0.373  10.382  20.044  0.00  0.00    +0.000 A 
ATOM     20  C   UNL     1      -1.216  10.531  18.926  0.00  0.00    +0.000 A 
ATOM     21  N   UNL     1      -1.546  11.795  18.683  0.00  0.00    +0.000 NA
ATOM     22  N   UNL     1      -0.808  12.511  19.568  0.00  0.00    +0.000 N 
ATOM     23  C   UNL     1      -0.068  11.685  20.383  0.00  0.00    +0.000 A 
BRANCH  22  24
ATOM     24  C   UNL     1      -0.857  13.928  19.568  0.00  0.00    +0.000 A 
ATOM     25  C   UNL     1      -1.682  14.588  20.492  0.00  0.00    +0.000 A 
ATOM     26  C   UNL     1      -1.763  15.980  20.487  0.00  0.00    +0.000 A 
ATOM     27  C   UNL     1      -1.031  16.714  19.557  0.00  0.00    +0.000 A 
ATOM     28  C   UNL     1      -0.206  16.065  18.641  0.00  0.00    +0.000 A 
ATOM     29  C   UNL     1      -0.109  14.672  18.649  0.00  0.00    +0.000 A 
ENDBRANCH  22  24
ENDBRANCH   2  19
TORSDOF 3
ENDMDL
