MODEL 1
REMARK VINA RESULT:      -8.5      0.000      0.000
REMARK  Name = 
REMARK  7 active torsions:
REMARK  status: ('A' for Active; 'I' for Inactive)
REMARK    1  A    between atoms: C_1  and  C_2
REMARK    2  A    between atoms: C_5  and  O_6
REMARK    3  A    between atoms: C_7  and  S_8
REMARK    4  A    between atoms: S_8  and  N_11
REMARK    5  A    between atoms: N_11  and  C_12
REMARK    6  A    between atoms: C_14  and  C_15
REMARK    7  A    between atoms: C_21  and  N_22
REMARK                            x       y       z     vdW  Elec       q    Type
REMARK                         _______ _______ _______ _____ _____    ______ ____
ROOT
ATOM      1  C   UNL     1       5.879   4.059  16.166  0.00  0.00    +0.000 A 
ATOM      2  C   UNL     1       5.487   3.501  14.940  0.00  0.00    +0.000 A 
ATOM      3  C   UNL     1       6.066   3.917  13.729  0.00  0.00    +0.000 A 
ATOM      4  C   UNL     1       7.058   4.903  13.758  0.00  0.00    +0.000 A 
ATOM      5  C   UNL     1       7.510   5.412  14.974  0.00  0.00    +0.000 A 
ATOM      6  C   UNL     1       6.946   4.977  16.190  0.00  0.00    +0.000 A 
ENDROOT
BRANCH   6   7
ATOM      7  N   UNL     1       7.493   5.487  17.399  0.00  0.00    +0.000 N 
ATOM      8  C   UNL     1       7.636   6.820  17.736  0.00  0.00    +0.000 A 
ATOM      9  C   UNL     1       8.177   6.872  18.989  0.00  0.00    +0.000 A 
ATOM     10  C   UNL     1       8.332   5.523  19.357  0.00  0.00    +0.000 A 
ATOM     11  N   UNL     1       7.934   4.682  18.401  0.00  0.00    +0.000 NA
ENDBRANCH   6   7
BRANCH   3  12
ATOM     12  C   UNL     1       5.629   3.343  12.405  0.00  0.00    +0.000 C 
ATOM     13  F   UNL     1       5.841   2.006  12.285  0.00  0.00    +0.000 F 
ATOM     14  F   UNL     1       4.300   3.537  12.174  0.00  0.00    +0.000 F 
ATOM     15  F   UNL     1       6.273   3.923  11.352  0.00  0.00    +0.000 F 
ENDBRANCH   3  12
BRANCH   1  16
ATOM     16  N   UNL     1       5.168   3.614  17.328  0.00  0.00    +0.000 N 
ATOM     17  H   UNL     1       4.627   2.758  17.178  0.00  0.00    +0.000 HD
BRANCH  16  18
ATOM     18  S   UNL     1       4.230   4.760  18.168  0.00  0.00    +0.000 S 
ATOM     19  O   UNL     1       3.725   5.726  17.209  0.00  0.00    +0.000 OA
ATOM     20  O   UNL     1       4.975   5.211  19.327  0.00  0.00    +0.000 OA
BRANCH  18  26
ATOM     21  C   UNL     1       1.417   2.765  22.142  0.00  0.00    +0.000 C 
ATOM     22  C   UNL     1       1.595   2.906  20.658  0.00  0.00    +0.000 A 
ATOM     23  C   UNL     1       0.726   2.270  19.766  0.00  0.00    +0.000 A 
ATOM     24  C   UNL     1       0.897   2.416  18.387  0.00  0.00    +0.000 A 
ATOM     25  C   UNL     1       1.943   3.196  17.885  0.00  0.00    +0.000 A 
ATOM     26  C   UNL     1       2.830   3.820  18.762  0.00  0.00    +0.000 A 
ATOM     27  C   UNL     1       2.649   3.680  20.147  0.00  0.00    +0.000 A 
BRANCH  25  28
ATOM     28  O   UNL     1       2.063   3.348  16.536  0.00  0.00    +0.000 OA
ATOM     29  H   UNL     1       1.571   4.137  16.252  0.00  0.00    +0.000 HD
ENDBRANCH  25  28
ENDBRANCH  18  26
ENDBRANCH  16  18
ENDBRANCH   1  16
TORSDOF 6
ENDMDL
MODEL 2
REMARK VINA RESULT:      -8.0      1.443      1.978
REMARK  Name = 
REMARK  7 active torsions:
REMARK  status: ('A' for Active; 'I' for Inactive)
REMARK    1  A    between atoms: C_1  and  C_2
REMARK    2  A    between atoms: C_5  and  O_6
REMARK    3  A    between atoms: C_7  and  S_8
REMARK    4  A    between atoms: S_8  and  N_11
REMARK    5  A    between atoms: N_11  and  C_12
REMARK    6  A    between atoms: C_14  and  C_15
REMARK    7  A    between atoms: C_21  and  N_22
REMARK                            x       y       z     vdW  Elec       q    Type
REMARK                         _______ _______ _______ _____ _____    ______ ____
ROOT
ATOM      1  C   UNL     1       5.316   4.680  15.695  0.00  0.00    +0.000 A 
ATOM      2  C   UNL     1       4.944   4.087  14.480  0.00  0.00    +0.000 A 
ATOM      3  C   UNL     1       5.861   3.949  13.423  0.00  0.00    +0.000 A 
ATOM      4  C   UNL     1       7.171   4.409  13.600  0.00  0.00    +0.000 A 
ATOM      5  C   UNL     1       7.574   4.932  14.827  0.00  0.00    +0.000 A 
ATOM      6  C   UNL     1       6.661   5.049  15.895  0.00  0.00    +0.000 A 
ENDROOT
BRANCH   6   7
ATOM      7  N   UNL     1       7.148   5.531  17.139  0.00  0.00    +0.000 N 
ATOM      8  C   UNL     1       7.556   6.822  17.415  0.00  0.00    +0.000 A 
ATOM      9  C   UNL     1       7.923   6.867  18.729  0.00  0.00    +0.000 A 
ATOM     10  C   UNL     1       7.706   5.557  19.195  0.00  0.00    +0.000 A 
ATOM     11  N   UNL     1       7.250   4.743  18.241  0.00  0.00    +0.000 NA
ENDBRANCH   6   7
BRANCH   3  12
ATOM     12  C   UNL     1       5.462   3.339  12.104  0.00  0.00    +0.000 C 
ATOM     13  F   UNL     1       5.651   1.994  12.036  0.00  0.00    +0.000 F 
ATOM     14  F   UNL     1       4.145   3.549  11.817  0.00  0.00    +0.000 F 
ATOM     15  F   UNL     1       6.155   3.870  11.056  0.00  0.00    +0.000 F 
ENDBRANCH   3  12
BRANCH   1  16
ATOM     16  N   UNL     1       4.281   4.838  16.674  0.00  0.00    +0.000 N 
ATOM     17  H   UNL     1       4.541   5.448  17.454  0.00  0.00    +0.000 HD
BRANCH  16  18
ATOM     18  S   UNL     1       3.525   3.429  17.258  0.00  0.00    +0.000 S 
ATOM     19  O   UNL     1       4.553   2.534  17.757  0.00  0.00    +0.000 OA
ATOM     20  O   UNL     1       2.578   2.963  16.265  0.00  0.00    +0.000 OA
BRANCH  18  26
ATOM     21  C   UNL     1       1.978   7.307  20.460  0.00  0.00    +0.000 C 
ATOM     22  C   UNL     1       1.936   5.844  20.126  0.00  0.00    +0.000 A 
ATOM     23  C   UNL     1       1.231   4.943  20.930  0.00  0.00    +0.000 A 
ATOM     24  C   UNL     1       1.191   3.585  20.602  0.00  0.00    +0.000 A 
ATOM     25  C   UNL     1       1.862   3.114  19.469  0.00  0.00    +0.000 A 
ATOM     26  C   UNL     1       2.586   3.997  18.669  0.00  0.00    +0.000 A 
ATOM     27  C   UNL     1       2.615   5.362  18.995  0.00  0.00    +0.000 A 
BRANCH  25  28
ATOM     28  O   UNL     1       1.776   1.789  19.157  0.00  0.00    +0.000 OA
ATOM     29  H   UNL     1       2.139   1.640  18.267  0.00  0.00    +0.000 HD
ENDBRANCH  25  28
ENDBRANCH  18  26
ENDBRANCH  16  18
ENDBRANCH   1  16
TORSDOF 6
ENDMDL
MODEL 3
REMARK VINA RESULT:      -7.9      1.517      2.251
REMARK  Name = 
REMARK  7 active torsions:
REMARK  status: ('A' for Active; 'I' for Inactive)
REMARK    1  A    between atoms: C_1  and  C_2
REMARK    2  A    between atoms: C_5  and  O_6
REMARK    3  A    between atoms: C_7  and  S_8
REMARK    4  A    between atoms: S_8  and  N_11
REMARK    5  A    between atoms: N_11  and  C_12
REMARK    6  A    between atoms: C_14  and  C_15
REMARK    7  A    between atoms: C_21  and  N_22
REMARK                            x       y       z     vdW  Elec       q    Type
REMARK                         _______ _______ _______ _____ _____    ______ ____
ROOT
ATOM      1  C   UNL     1       5.307   4.763  15.630  0.00  0.00    +0.000 A 
ATOM      2  C   UNL     1       4.925   4.110  14.449  0.00  0.00    +0.000 A 
ATOM      3  C   UNL     1       5.819   3.960  13.375  0.00  0.00    +0.000 A 
ATOM      4  C   UNL     1       7.117   4.469  13.500  0.00  0.00    +0.000 A 
ATOM      5  C   UNL     1       7.533   5.052  14.695  0.00  0.00    +0.000 A 
ATOM      6  C   UNL     1       6.643   5.181  15.781  0.00  0.00    +0.000 A 
ENDROOT
BRANCH   6   7
ATOM      7  N   UNL     1       7.145   5.728  16.992  0.00  0.00    +0.000 N 
ATOM      8  C   UNL     1       7.407   5.034  18.158  0.00  0.00    +0.000 A 
ATOM      9  C   UNL     1       7.900   5.926  19.067  0.00  0.00    +0.000 A 
ATOM     10  C   UNL     1       7.915   7.152  18.378  0.00  0.00    +0.000 A 
ATOM     11  N   UNL     1       7.451   7.044  17.132  0.00  0.00    +0.000 NA
ENDBRANCH   6   7
BRANCH   3  12
ATOM     12  C   UNL     1       5.407   3.286  12.091  0.00  0.00    +0.000 C 
ATOM     13  F   UNL     1       4.075   3.361  11.830  0.00  0.00    +0.000 F 
ATOM     14  F   UNL     1       6.036   3.820  11.006  0.00  0.00    +0.000 F 
ATOM     15  F   UNL     1       5.719   1.958  12.080  0.00  0.00    +0.000 F 
ENDBRANCH   3  12
BRANCH   1  16
ATOM     16  N   UNL     1       4.292   4.926  16.629  0.00  0.00    +0.000 N 
ATOM     17  H   UNL     1       4.580   5.510  17.419  0.00  0.00    +0.000 HD
BRANCH  16  18
ATOM     18  S   UNL     1       3.506   3.524  17.193  0.00  0.00    +0.000 S 
ATOM     19  O   UNL     1       4.516   2.591  17.657  0.00  0.00    +0.000 OA
ATOM     20  O   UNL     1       2.534   3.107  16.203  0.00  0.00    +0.000 OA
BRANCH  18  26
ATOM     21  C   UNL     1       1.988   7.397  20.416  0.00  0.00    +0.000 C 
ATOM     22  C   UNL     1       1.964   5.931  20.093  0.00  0.00    +0.000 A 
ATOM     23  C   UNL     1       1.302   5.023  20.926  0.00  0.00    +0.000 A 
ATOM     24  C   UNL     1       1.279   3.662  20.610  0.00  0.00    +0.000 A 
ATOM     25  C   UNL     1       1.922   3.195  19.459  0.00  0.00    +0.000 A 
ATOM     26  C   UNL     1       2.602   4.085  18.630  0.00  0.00    +0.000 A 
ATOM     27  C   UNL     1       2.615   5.453  18.944  0.00  0.00    +0.000 A 
BRANCH  25  28
ATOM     28  O   UNL     1       1.852   1.866  19.159  0.00  0.00    +0.000 OA
ATOM     29  H   UNL     1       2.070   1.733  18.221  0.00  0.00    +0.000 HD
ENDBRANCH  25  28
ENDBRANCH  18  26
ENDBRANCH  16  18
ENDBRANCH   1  16
TORSDOF 6
ENDMDL
MODEL 4
REMARK VINA RESULT:      -7.9      1.239      1.648
REMARK  Name = 
REMARK  7 active torsions:
REMARK  status: ('A' for Active; 'I' for Inactive)
REMARK    1  A    between atoms: C_1  and  C_2
REMARK    2  A    between atoms: C_5  and  O_6
REMARK    3  A    between atoms: C_7  and  S_8
REMARK    4  A    between atoms: S_8  and  N_11
REMARK    5  A    between atoms: N_11  and  C_12
REMARK    6  A    between atoms: C_14  and  C_15
REMARK    7  A    between atoms: C_21  and  N_22
REMARK                            x       y       z     vdW  Elec       q    Type
REMARK                         _______ _______ _______ _____ _____    ______ ____
ROOT
ATOM      1  C   UNL     1       5.856   3.847  15.802  0.00  0.00    +0.000 A 
ATOM      2  C   UNL     1       5.570   3.277  14.553  0.00  0.00    +0.000 A 
ATOM      3  C   UNL     1       6.156   3.768  13.373  0.00  0.00    +0.000 A 
ATOM      4  C   UNL     1       7.047   4.843  13.459  0.00  0.00    +0.000 A 
ATOM      5  C   UNL     1       7.398   5.370  14.700  0.00  0.00    +0.000 A 
ATOM      6  C   UNL     1       6.829   4.862  15.885  0.00  0.00    +0.000 A 
ENDROOT
BRANCH   6   7
ATOM      7  N   UNL     1       7.275   5.399  17.123  0.00  0.00    +0.000 N 
ATOM      8  C   UNL     1       7.489   6.734  17.408  0.00  0.00    +0.000 A 
ATOM      9  C   UNL     1       7.885   6.819  18.711  0.00  0.00    +0.000 A 
ATOM     10  C   UNL     1       7.885   5.486  19.162  0.00  0.00    +0.000 A 
ATOM     11  N   UNL     1       7.530   4.624  18.209  0.00  0.00    +0.000 NA
ENDBRANCH   6   7
BRANCH   3  12
ATOM     12  C   UNL     1       5.830   3.180  12.024  0.00  0.00    +0.000 C 
ATOM     13  F   UNL     1       5.646   1.833  12.037  0.00  0.00    +0.000 F 
ATOM     14  F   UNL     1       4.693   3.711  11.492  0.00  0.00    +0.000 F 
ATOM     15  F   UNL     1       6.811   3.417  11.106  0.00  0.00    +0.000 F 
ENDBRANCH   3  12
BRANCH   1  16
ATOM     16  N   UNL     1       5.144   3.316  16.927  0.00  0.00    +0.000 N 
ATOM     17  H   UNL     1       5.049   2.296  16.911  0.00  0.00    +0.000 HD
BRANCH  16  18
ATOM     18  S   UNL     1       3.656   4.036  17.332  0.00  0.00    +0.000 S 
ATOM     19  O   UNL     1       2.628   3.469  16.479  0.00  0.00    +0.000 OA
ATOM     20  O   UNL     1       3.836   5.473  17.392  0.00  0.00    +0.000 OA
BRANCH  18  26
ATOM     21  C   UNL     1       5.044   1.183  21.530  0.00  0.00    +0.000 C 
ATOM     22  C   UNL     1       4.038   2.096  20.892  0.00  0.00    +0.000 A 
ATOM     23  C   UNL     1       2.857   2.442  21.557  0.00  0.00    +0.000 A 
ATOM     24  C   UNL     1       1.932   3.299  20.957  0.00  0.00    +0.000 A 
ATOM     25  C   UNL     1       2.176   3.816  19.681  0.00  0.00    +0.000 A 
ATOM     26  C   UNL     1       3.339   3.465  18.996  0.00  0.00    +0.000 A 
ATOM     27  C   UNL     1       4.271   2.612  19.607  0.00  0.00    +0.000 A 
BRANCH  25  28
ATOM     28  O   UNL     1       1.271   4.678  19.135  0.00  0.00    +0.000 OA
ATOM     29  H   UNL     1       0.650   4.976  19.822  0.00  0.00    +0.000 HD
ENDBRANCH  25  28
ENDBRANCH  18  26
ENDBRANCH  16  18
ENDBRANCH   1  16
TORSDOF 6
ENDMDL
MODEL 5
REMARK VINA RESULT:      -7.8      4.065      6.670
REMARK  Name = 
REMARK  7 active torsions:
REMARK  status: ('A' for Active; 'I' for Inactive)
REMARK    1  A    between atoms: C_1  and  C_2
REMARK    2  A    between atoms: C_5  and  O_6
REMARK    3  A    between atoms: C_7  and  S_8
REMARK    4  A    between atoms: S_8  and  N_11
REMARK    5  A    between atoms: N_11  and  C_12
REMARK    6  A    between atoms: C_14  and  C_15
REMARK    7  A    between atoms: C_21  and  N_22
REMARK                            x       y       z     vdW  Elec       q    Type
REMARK                         _______ _______ _______ _____ _____    ______ ____
ROOT
ATOM      1  C   UNL     1       3.612   5.328  17.574  0.00  0.00    +0.000 A 
ATOM      2  C   UNL     1       3.289   6.686  17.439  0.00  0.00    +0.000 A 
ATOM      3  C   UNL     1       2.523   7.355  18.410  0.00  0.00    +0.000 A 
ATOM      4  C   UNL     1       2.087   6.645  19.534  0.00  0.00    +0.000 A 
ATOM      5  C   UNL     1       2.465   5.316  19.718  0.00  0.00    +0.000 A 
ATOM      6  C   UNL     1       3.252   4.652  18.756  0.00  0.00    +0.000 A 
ENDROOT
BRANCH   6   7
ATOM      7  N   UNL     1       3.656   3.318  19.031  0.00  0.00    +0.000 N 
ATOM      8  C   UNL     1       3.160   2.172  18.439  0.00  0.00    +0.000 A 
ATOM      9  C   UNL     1       3.835   1.109  18.966  0.00  0.00    +0.000 A 
ATOM     10  C   UNL     1       4.739   1.688  19.877  0.00  0.00    +0.000 A 
ATOM     11  N   UNL     1       4.629   3.017  19.931  0.00  0.00    +0.000 NA
ENDBRANCH   6   7
BRANCH   3  12
ATOM     12  C   UNL     1       2.146   8.806  18.258  0.00  0.00    +0.000 C 
ATOM     13  F   UNL     1       1.712   9.388  19.408  0.00  0.00    +0.000 F 
ATOM     14  F   UNL     1       3.190   9.566  17.822  0.00  0.00    +0.000 F 
ATOM     15  F   UNL     1       1.150   8.990  17.344  0.00  0.00    +0.000 F 
ENDBRANCH   3  12
BRANCH   1  16
ATOM     16  N   UNL     1       4.331   4.730  16.488  0.00  0.00    +0.000 N 
ATOM     17  H   UNL     1       4.691   3.794  16.697  0.00  0.00    +0.000 HD
BRANCH  16  18
ATOM     18  S   UNL     1       5.533   5.664  15.727  0.00  0.00    +0.000 S 
ATOM     19  O   UNL     1       4.916   6.876  15.220  0.00  0.00    +0.000 OA
ATOM     20  O   UNL     1       6.291   4.809  14.835  0.00  0.00    +0.000 OA
BRANCH  18  26
ATOM     21  C   UNL     1       8.378   9.319  18.225  0.00  0.00    +0.000 C 
ATOM     22  C   UNL     1       7.937   7.886  18.149  0.00  0.00    +0.000 A 
ATOM     23  C   UNL     1       8.410   6.939  19.064  0.00  0.00    +0.000 A 
ATOM     24  C   UNL     1       7.985   5.610  18.989  0.00  0.00    +0.000 A 
ATOM     25  C   UNL     1       7.085   5.213  17.995  0.00  0.00    +0.000 A 
ATOM     26  C   UNL     1       6.620   6.142  17.064  0.00  0.00    +0.000 A 
ATOM     27  C   UNL     1       7.041   7.478  17.148  0.00  0.00    +0.000 A 
BRANCH  25  28
ATOM     28  O   UNL     1       6.662   3.917  17.969  0.00  0.00    +0.000 OA
ATOM     29  H   UNL     1       5.944   3.796  18.613  0.00  0.00    +0.000 HD
ENDBRANCH  25  28
ENDBRANCH  18  26
ENDBRANCH  16  18
ENDBRANCH   1  16
TORSDOF 6
ENDMDL
MODEL 6
REMARK VINA RESULT:      -7.7      4.111      6.657
REMARK  Name = 
REMARK  7 active torsions:
REMARK  status: ('A' for Active; 'I' for Inactive)
REMARK    1  A    between atoms: C_1  and  C_2
REMARK    2  A    between atoms: C_5  and  O_6
REMARK    3  A    between atoms: C_7  and  S_8
REMARK    4  A    between atoms: S_8  and  N_11
REMARK    5  A    between atoms: N_11  and  C_12
REMARK    6  A    between atoms: C_14  and  C_15
REMARK    7  A    between atoms: C_21  and  N_22
REMARK                            x       y       z     vdW  Elec       q    Type
REMARK                         _______ _______ _______ _____ _____    ______ ____
ROOT
ATOM      1  C   UNL     1       3.623   5.304  17.551  0.00  0.00    +0.000 A 
ATOM      2  C   UNL     1       3.289   6.659  17.412  0.00  0.00    +0.000 A 
ATOM      3  C   UNL     1       2.521   7.326  18.383  0.00  0.00    +0.000 A 
ATOM      4  C   UNL     1       2.094   6.616  19.510  0.00  0.00    +0.000 A 
ATOM      5  C   UNL     1       2.482   5.291  19.698  0.00  0.00    +0.000 A 
ATOM      6  C   UNL     1       3.272   4.630  18.736  0.00  0.00    +0.000 A 
ENDROOT
BRANCH   6   7
ATOM      7  N   UNL     1       3.687   3.300  19.014  0.00  0.00    +0.000 N 
ATOM      8  C   UNL     1       4.354   2.868  20.145  0.00  0.00    +0.000 A 
ATOM      9  C   UNL     1       4.538   1.521  20.026  0.00  0.00    +0.000 A 
ATOM     10  C   UNL     1       3.948   1.197  18.791  0.00  0.00    +0.000 A 
ATOM     11  N   UNL     1       3.443   2.264  18.169  0.00  0.00    +0.000 NA
ENDBRANCH   6   7
BRANCH   3  12
ATOM     12  C   UNL     1       2.133   8.774  18.227  0.00  0.00    +0.000 C 
ATOM     13  F   UNL     1       3.135   9.569  17.767  0.00  0.00    +0.000 F 
ATOM     14  F   UNL     1       1.093   8.937  17.360  0.00  0.00    +0.000 F 
ATOM     15  F   UNL     1       1.721   9.329  19.403  0.00  0.00    +0.000 F 
ENDBRANCH   3  12
BRANCH   1  16
ATOM     16  N   UNL     1       4.344   4.708  16.464  0.00  0.00    +0.000 N 
ATOM     17  H   UNL     1       4.707   3.774  16.674  0.00  0.00    +0.000 HD
BRANCH  16  18
ATOM     18  S   UNL     1       5.544   5.646  15.703  0.00  0.00    +0.000 S 
ATOM     19  O   UNL     1       4.924   6.855  15.194  0.00  0.00    +0.000 OA
ATOM     20  O   UNL     1       6.306   4.792  14.814  0.00  0.00    +0.000 OA
BRANCH  18  26
ATOM     21  C   UNL     1       8.343   9.323  18.221  0.00  0.00    +0.000 C 
ATOM     22  C   UNL     1       7.922   7.884  18.136  0.00  0.00    +0.000 A 
ATOM     23  C   UNL     1       8.411   6.937  19.042  0.00  0.00    +0.000 A 
ATOM     24  C   UNL     1       8.005   5.603  18.959  0.00  0.00    +0.000 A 
ATOM     25  C   UNL     1       7.108   5.200  17.964  0.00  0.00    +0.000 A 
ATOM     26  C   UNL     1       6.627   6.129  17.041  0.00  0.00    +0.000 A 
ATOM     27  C   UNL     1       7.029   7.470  17.134  0.00  0.00    +0.000 A 
BRANCH  25  28
ATOM     28  O   UNL     1       6.704   3.899  17.929  0.00  0.00    +0.000 OA
ATOM     29  H   UNL     1       5.764   3.856  17.684  0.00  0.00    +0.000 HD
ENDBRANCH  25  28
ENDBRANCH  18  26
ENDBRANCH  16  18
ENDBRANCH   1  16
TORSDOF 6
ENDMDL
MODEL 7
REMARK VINA RESULT:      -7.7      4.879      6.173
REMARK  Name = 
REMARK  7 active torsions:
REMARK  status: ('A' for Active; 'I' for Inactive)
REMARK    1  A    between atoms: C_1  and  C_2
REMARK    2  A    between atoms: C_5  and  O_6
REMARK    3  A    between atoms: C_7  and  S_8
REMARK    4  A    between atoms: S_8  and  N_11
REMARK    5  A    between atoms: N_11  and  C_12
REMARK    6  A    between atoms: C_14  and  C_15
REMARK    7  A    between atoms: C_21  and  N_22
REMARK                            x       y       z     vdW  Elec       q    Type
REMARK                         _______ _______ _______ _____ _____    ______ ____
ROOT
ATOM      1  C   UNL     1       3.664   5.410  19.665  0.00  0.00    +0.000 A 
ATOM      2  C   UNL     1       2.576   4.661  20.134  0.00  0.00    +0.000 A 
ATOM      3  C   UNL     1       2.586   3.256  20.099  0.00  0.00    +0.000 A 
ATOM      4  C   UNL     1       3.714   2.601  19.592  0.00  0.00    +0.000 A 
ATOM      5  C   UNL     1       4.832   3.331  19.193  0.00  0.00    +0.000 A 
ATOM      6  C   UNL     1       4.831   4.739  19.250  0.00  0.00    +0.000 A 
ENDROOT
BRANCH   6   7
ATOM      7  N   UNL     1       6.023   5.422  18.889  0.00  0.00    +0.000 N 
ATOM      8  C   UNL     1       6.246   6.118  17.715  0.00  0.00    +0.000 A 
ATOM      9  C   UNL     1       7.504   6.643  17.780  0.00  0.00    +0.000 A 
ATOM     10  C   UNL     1       7.990   6.228  19.034  0.00  0.00    +0.000 A 
ATOM     11  N   UNL     1       7.109   5.482  19.702  0.00  0.00    +0.000 NA
ENDBRANCH   6   7
BRANCH   3  12
ATOM     12  C   UNL     1       1.409   2.444  20.574  0.00  0.00    +0.000 C 
ATOM     13  F   UNL     1       1.487   2.064  21.877  0.00  0.00    +0.000 F 
ATOM     14  F   UNL     1       0.232   3.122  20.449  0.00  0.00    +0.000 F 
ATOM     15  F   UNL     1       1.249   1.295  19.856  0.00  0.00    +0.000 F 
ENDBRANCH   3  12
BRANCH   1  16
ATOM     16  N   UNL     1       3.513   6.836  19.677  0.00  0.00    +0.000 N 
ATOM     17  H   UNL     1       3.197   7.209  20.577  0.00  0.00    +0.000 HD
BRANCH  16  18
ATOM     18  S   UNL     1       2.634   7.548  18.405  0.00  0.00    +0.000 S 
ATOM     19  O   UNL     1       1.735   6.550  17.857  0.00  0.00    +0.000 OA
ATOM     20  O   UNL     1       3.559   8.247  17.535  0.00  0.00    +0.000 OA
BRANCH  18  26
ATOM     21  C   UNL     1      -0.224   9.126  22.532  0.00  0.00    +0.000 C 
ATOM     22  C   UNL     1       0.293   9.429  21.156  0.00  0.00    +0.000 A 
ATOM     23  C   UNL     1      -0.053  10.617  20.503  0.00  0.00    +0.000 A 
ATOM     24  C   UNL     1       0.443  10.892  19.226  0.00  0.00    +0.000 A 
ATOM     25  C   UNL     1       1.287   9.979  18.586  0.00  0.00    +0.000 A 
ATOM     26  C   UNL     1       1.625   8.782  19.216  0.00  0.00    +0.000 A 
ATOM     27  C   UNL     1       1.134   8.513  20.503  0.00  0.00    +0.000 A 
BRANCH  25  28
ATOM     28  O   UNL     1       1.782  10.291  17.355  0.00  0.00    +0.000 OA
ATOM     29  H   UNL     1       2.642   9.856  17.230  0.00  0.00    +0.000 HD
ENDBRANCH  25  28
ENDBRANCH  18  26
ENDBRANCH  16  18
ENDBRANCH   1  16
TORSDOF 6
ENDMDL
MODEL 8
REMARK VINA RESULT:      -7.7      1.122      1.962
REMARK  Name = 
REMARK  7 active torsions:
REMARK  status: ('A' for Active; 'I' for Inactive)
REMARK    1  A    between atoms: C_1  and  C_2
REMARK    2  A    between atoms: C_5  and  O_6
REMARK    3  A    between atoms: C_7  and  S_8
REMARK    4  A    between atoms: S_8  and  N_11
REMARK    5  A    between atoms: N_11  and  C_12
REMARK    6  A    between atoms: C_14  and  C_15
REMARK    7  A    between atoms: C_21  and  N_22
REMARK                            x       y       z     vdW  Elec       q    Type
REMARK                         _______ _______ _______ _____ _____    ______ ____
ROOT
ATOM      1  C   UNL     1       5.332   4.786  15.664  0.00  0.00    +0.000 A 
ATOM      2  C   UNL     1       4.938   4.181  14.462  0.00  0.00    +0.000 A 
ATOM      3  C   UNL     1       5.849   3.983  13.410  0.00  0.00    +0.000 A 
ATOM      4  C   UNL     1       7.175   4.395  13.578  0.00  0.00    +0.000 A 
ATOM      5  C   UNL     1       7.598   4.929  14.793  0.00  0.00    +0.000 A 
ATOM      6  C   UNL     1       6.690   5.105  15.857  0.00  0.00    +0.000 A 
ENDROOT
BRANCH   6   7
ATOM      7  N   UNL     1       7.196   5.596  17.091  0.00  0.00    +0.000 N 
ATOM      8  C   UNL     1       7.574   6.897  17.363  0.00  0.00    +0.000 A 
ATOM      9  C   UNL     1       7.974   6.946  18.668  0.00  0.00    +0.000 A 
ATOM     10  C   UNL     1       7.806   5.628  19.132  0.00  0.00    +0.000 A 
ATOM     11  N   UNL     1       7.350   4.806  18.186  0.00  0.00    +0.000 NA
ENDBRANCH   6   7
BRANCH   3  12
ATOM     12  C   UNL     1       5.426   3.360  12.104  0.00  0.00    +0.000 C 
ATOM     13  F   UNL     1       5.924   3.987  11.005  0.00  0.00    +0.000 F 
ATOM     14  F   UNL     1       5.817   2.058  12.005  0.00  0.00    +0.000 F 
ATOM     15  F   UNL     1       4.071   3.350  11.949  0.00  0.00    +0.000 F 
ENDBRANCH   3  12
BRANCH   1  16
ATOM     16  N   UNL     1       4.304   5.007  16.637  0.00  0.00    +0.000 N 
ATOM     17  H   UNL     1       4.598   5.595  17.422  0.00  0.00    +0.000 HD
BRANCH  16  18
ATOM     18  S   UNL     1       3.453   3.647  17.210  0.00  0.00    +0.000 S 
ATOM     19  O   UNL     1       4.410   2.589  17.473  0.00  0.00    +0.000 OA
ATOM     20  O   UNL     1       2.324   3.403  16.334  0.00  0.00    +0.000 OA
BRANCH  18  26
ATOM     21  C   UNL     1       1.679   2.528  22.036  0.00  0.00    +0.000 C 
ATOM     22  C   UNL     1       1.966   3.576  21.000  0.00  0.00    +0.000 A 
ATOM     23  C   UNL     1       1.678   4.924  21.242  0.00  0.00    +0.000 A 
ATOM     24  C   UNL     1       1.959   5.891  20.274  0.00  0.00    +0.000 A 
ATOM     25  C   UNL     1       2.527   5.520  19.051  0.00  0.00    +0.000 A 
ATOM     26  C   UNL     1       2.803   4.179  18.788  0.00  0.00    +0.000 A 
ATOM     27  C   UNL     1       2.529   3.211  19.767  0.00  0.00    +0.000 A 
BRANCH  25  28
ATOM     28  O   UNL     1       2.822   6.491  18.141  0.00  0.00    +0.000 OA
ATOM     29  H   UNL     1       3.677   6.897  18.362  0.00  0.00    +0.000 HD
ENDBRANCH  25  28
ENDBRANCH  18  26
ENDBRANCH  16  18
ENDBRANCH   1  16
TORSDOF 6
ENDMDL
MODEL 9
REMARK VINA RESULT:      -7.6      0.926      1.767
REMARK  Name = 
REMARK  7 active torsions:
REMARK  status: ('A' for Active; 'I' for Inactive)
REMARK    1  A    between atoms: C_1  and  C_2
REMARK    2  A    between atoms: C_5  and  O_6
REMARK    3  A    between atoms: C_7  and  S_8
REMARK    4  A    between atoms: S_8  and  N_11
REMARK    5  A    between atoms: N_11  and  C_12
REMARK    6  A    between atoms: C_14  and  C_15
REMARK    7  A    between atoms: C_21  and  N_22
REMARK                            x       y       z     vdW  Elec       q    Type
REMARK                         _______ _______ _______ _____ _____    ______ ____
ROOT
ATOM      1  C   UNL     1       5.942   3.973  16.155  0.00  0.00    +0.000 A 
ATOM      2  C   UNL     1       5.595   3.383  14.931  0.00  0.00    +0.000 A 
ATOM      3  C   UNL     1       6.076   3.892  13.712  0.00  0.00    +0.000 A 
ATOM      4  C   UNL     1       6.923   5.006  13.732  0.00  0.00    +0.000 A 
ATOM      5  C   UNL     1       7.336   5.555  14.944  0.00  0.00    +0.000 A 
ATOM      6  C   UNL     1       6.873   5.030  16.167  0.00  0.00    +0.000 A 
ENDROOT
BRANCH   6   7
ATOM      7  N   UNL     1       7.379   5.593  17.369  0.00  0.00    +0.000 N 
ATOM      8  C   UNL     1       7.650   6.929  17.598  0.00  0.00    +0.000 A 
ATOM      9  C   UNL     1       8.093   7.045  18.884  0.00  0.00    +0.000 A 
ATOM     10  C   UNL     1       8.060   5.730  19.383  0.00  0.00    +0.000 A 
ATOM     11  N   UNL     1       7.642   4.848  18.474  0.00  0.00    +0.000 NA
ENDBRANCH   6   7
BRANCH   3  12
ATOM     12  C   UNL     1       5.684   3.282  12.390  0.00  0.00    +0.000 C 
ATOM     13  F   UNL     1       5.853   1.935  12.331  0.00  0.00    +0.000 F 
ATOM     14  F   UNL     1       4.375   3.512  12.085  0.00  0.00    +0.000 F 
ATOM     15  F   UNL     1       6.400   3.797  11.349  0.00  0.00    +0.000 F 
ENDBRANCH   3  12
BRANCH   1  16
ATOM     16  N   UNL     1       5.333   3.419  17.328  0.00  0.00    +0.000 N 
ATOM     17  H   UNL     1       5.831   2.608  17.707  0.00  0.00    +0.000 HD
BRANCH  16  18
ATOM     18  S   UNL     1       3.660   3.108  17.278  0.00  0.00    +0.000 S 
ATOM     19  O   UNL     1       3.459   1.675  17.395  0.00  0.00    +0.000 OA
ATOM     20  O   UNL     1       3.086   3.832  16.161  0.00  0.00    +0.000 OA
BRANCH  18  26
ATOM     21  C   UNL     1       1.301   2.679  21.963  0.00  0.00    +0.000 C 
ATOM     22  C   UNL     1       1.913   3.577  20.927  0.00  0.00    +0.000 A 
ATOM     23  C   UNL     1       1.940   4.964  21.103  0.00  0.00    +0.000 A 
ATOM     24  C   UNL     1       2.520   5.789  20.136  0.00  0.00    +0.000 A 
ATOM     25  C   UNL     1       3.075   5.234  18.978  0.00  0.00    +0.000 A 
ATOM     26  C   UNL     1       3.037   3.855  18.778  0.00  0.00    +0.000 A 
ATOM     27  C   UNL     1       2.463   3.028  19.757  0.00  0.00    +0.000 A 
BRANCH  25  28
ATOM     28  O   UNL     1       3.664   6.062  18.069  0.00  0.00    +0.000 OA
ATOM     29  H   UNL     1       2.993   6.647  17.678  0.00  0.00    +0.000 HD
ENDBRANCH  25  28
ENDBRANCH  18  26
ENDBRANCH  16  18
ENDBRANCH   1  16
TORSDOF 6
ENDMDL
