MODEL 1
REMARK VINA RESULT:     -10.8      0.000      0.000
REMARK  Name = 
REMARK  7 active torsions:
REMARK  status: ('A' for Active; 'I' for Inactive)
REMARK    1  A    between atoms: C_1  and  C_2
REMARK    2  A    between atoms: C_6  and  C_7
REMARK    3  A    between atoms: N_13  and  C_14
REMARK    4  A    between atoms: C_18  and  C_19
REMARK    5  A    between atoms: C_20  and  C_21
REMARK    6  A    between atoms: C_21  and  C_22
REMARK    7  A    between atoms: N_26  and  C_27
REMARK                            x       y       z     vdW  Elec       q    Type
REMARK                         _______ _______ _______ _____ _____    ______ ____
ROOT
ATOM      1  C   UNL     1       2.888   6.145  19.319  0.00  0.00    +0.000 A 
ATOM      2  C   UNL     1       2.429   4.970  19.939  0.00  0.00    +0.000 A 
ATOM      3  C   UNL     1       3.091   3.748  19.807  0.00  0.00    +0.000 A 
ATOM      4  C   UNL     1       4.246   3.677  19.050  0.00  0.00    +0.000 A 
ATOM      5  C   UNL     1       4.717   4.831  18.421  0.00  0.00    +0.000 A 
ATOM      6  C   UNL     1       4.052   6.061  18.541  0.00  0.00    +0.000 A 
ENDROOT
BRANCH   1  15
ATOM      7  C   UNL     1      -0.595  12.642  18.521  0.00  0.00    +0.000 C 
ATOM      8  C   UNL     1      -0.075  11.400  19.182  0.00  0.00    +0.000 A 
ATOM      9  C   UNL     1       0.740  10.526  18.472  0.00  0.00    +0.000 A 
ATOM     10  C   UNL     1       1.185   9.392  19.123  0.00  0.00    +0.000 A 
ATOM     11  C   UNL     1       0.868   9.056  20.433  0.00  0.00    +0.000 A 
ATOM     12  C   UNL     1       0.077   9.930  21.174  0.00  0.00    +0.000 A 
ATOM     13  C   UNL     1      -0.391  11.104  20.526  0.00  0.00    +0.000 A 
ATOM     14  C   UNL     1       1.502   7.730  20.766  0.00  0.00    +0.000 C 
ATOM     15  N   UNL     1       2.208   7.378  19.537  0.00  0.00    +0.000 N 
ATOM     16  C   UNL     1       2.057   8.365  18.563  0.00  0.00    +0.000 C 
ATOM     17  O   UNL     1       2.515   8.481  17.443  0.00  0.00    +0.000 OA
BRANCH  12  18
ATOM     18  C   UNL     1      -0.281   9.697  22.618  0.00  0.00    +0.000 C 
ATOM     19  F   UNL     1      -1.026  10.697  23.162  0.00  0.00    +0.000 F 
ATOM     20  F   UNL     1      -1.000   8.554  22.793  0.00  0.00    +0.000 F 
ATOM     21  F   UNL     1       0.817   9.574  23.413  0.00  0.00    +0.000 F 
ENDBRANCH  12  18
ENDBRANCH   1  15
BRANCH   5  22
ATOM     22  C   UNL     1       6.046   4.774  17.800  0.00  0.00    +0.000 C 
ATOM     23  C   UNL     1       6.600   4.414  16.618  0.00  0.00    +0.000 C 
ATOM     24  O   UNL     1       7.824   4.595  16.993  0.00  0.00    +0.000 OA
ATOM     25  C   UNL     1       7.425   5.004  18.321  0.00  0.00    +0.000 C 
BRANCH  23  26
ATOM     26  C   UNL     1       6.040   3.918  15.282  0.00  0.00    +0.000 C 
BRANCH  26  27
ATOM     27  C   UNL     1       6.764   4.515  14.119  0.00  0.00    +0.000 A 
ATOM     28  N   UNL     1       7.668   5.478  14.174  0.00  0.00    +0.000 NA
ATOM     29  N   UNL     1       8.130   5.713  12.902  0.00  0.00    +0.000 NA
ATOM     30  C   UNL     1       7.510   4.884  12.097  0.00  0.00    +0.000 A 
ATOM     31  N   UNL     1       6.634   4.126  12.810  0.00  0.00    +0.000 N 
ATOM     32  C   UNL     1       5.754   3.126  12.269  0.00  0.00    +0.000 C 
ENDBRANCH  26  27
ENDBRANCH  23  26
ENDBRANCH   5  22
TORSDOF 5
ENDMDL
MODEL 2
REMARK VINA RESULT:      -9.8      3.966      8.876
REMARK  Name = 
REMARK  7 active torsions:
REMARK  status: ('A' for Active; 'I' for Inactive)
REMARK    1  A    between atoms: C_1  and  C_2
REMARK    2  A    between atoms: C_6  and  C_7
REMARK    3  A    between atoms: N_13  and  C_14
REMARK    4  A    between atoms: C_18  and  C_19
REMARK    5  A    between atoms: C_20  and  C_21
REMARK    6  A    between atoms: C_21  and  C_22
REMARK    7  A    between atoms: N_26  and  C_27
REMARK                            x       y       z     vdW  Elec       q    Type
REMARK                         _______ _______ _______ _____ _____    ______ ____
ROOT
ATOM      1  C   UNL     1       1.687   8.128  19.805  0.00  0.00    +0.000 A 
ATOM      2  C   UNL     1       1.408   8.008  21.177  0.00  0.00    +0.000 A 
ATOM      3  C   UNL     1       0.781   9.021  21.905  0.00  0.00    +0.000 A 
ATOM      4  C   UNL     1       0.406  10.188  21.263  0.00  0.00    +0.000 A 
ATOM      5  C   UNL     1       0.679  10.330  19.902  0.00  0.00    +0.000 A 
ATOM      6  C   UNL     1       1.317   9.319  19.166  0.00  0.00    +0.000 A 
ENDROOT
BRANCH   1  15
ATOM      7  C   UNL     1       5.944   3.838  15.509  0.00  0.00    +0.000 C 
ATOM      8  C   UNL     1       4.916   4.219  16.533  0.00  0.00    +0.000 A 
ATOM      9  C   UNL     1       4.604   5.558  16.737  0.00  0.00    +0.000 A 
ATOM     10  C   UNL     1       3.657   5.856  17.698  0.00  0.00    +0.000 A 
ATOM     11  C   UNL     1       3.002   4.916  18.482  0.00  0.00    +0.000 A 
ATOM     12  C   UNL     1       3.277   3.567  18.276  0.00  0.00    +0.000 A 
ATOM     13  C   UNL     1       4.246   3.235  17.292  0.00  0.00    +0.000 A 
ATOM     14  C   UNL     1       2.083   5.630  19.439  0.00  0.00    +0.000 C 
ATOM     15  N   UNL     1       2.274   7.038  19.099  0.00  0.00    +0.000 N 
ATOM     16  C   UNL     1       3.180   7.189  18.050  0.00  0.00    +0.000 C 
ATOM     17  O   UNL     1       3.570   8.170  17.446  0.00  0.00    +0.000 OA
BRANCH  12  18
ATOM     18  C   UNL     1       2.585   2.460  19.026  0.00  0.00    +0.000 C 
ATOM     19  F   UNL     1       1.234   2.451  18.859  0.00  0.00    +0.000 F 
ATOM     20  F   UNL     1       3.020   1.227  18.643  0.00  0.00    +0.000 F 
ATOM     21  F   UNL     1       2.796   2.530  20.369  0.00  0.00    +0.000 F 
ENDBRANCH  12  18
ENDBRANCH   1  15
BRANCH   5  22
ATOM     22  C   UNL     1       0.090  11.481  19.206  0.00  0.00    +0.000 C 
ATOM     23  C   UNL     1      -1.099  11.843  18.668  0.00  0.00    +0.000 C 
ATOM     24  O   UNL     1      -0.681  12.968  18.186  0.00  0.00    +0.000 OA
ATOM     25  C   UNL     1       0.659  12.756  18.682  0.00  0.00    +0.000 C 
BRANCH  23  26
ATOM     26  C   UNL     1      -2.479  11.185  18.584  0.00  0.00    +0.000 C 
BRANCH  26  27
ATOM     27  C   UNL     1      -2.827  10.798  17.183  0.00  0.00    +0.000 A 
ATOM     28  N   UNL     1      -2.099  10.044  16.379  0.00  0.00    +0.000 NA
ATOM     29  N   UNL     1      -2.781   9.882  15.197  0.00  0.00    +0.000 NA
ATOM     30  C   UNL     1      -3.917  10.530  15.306  0.00  0.00    +0.000 A 
ATOM     31  N   UNL     1      -3.982  11.132  16.524  0.00  0.00    +0.000 N 
ATOM     32  C   UNL     1      -5.063  11.955  16.996  0.00  0.00    +0.000 C 
ENDBRANCH  26  27
ENDBRANCH  23  26
ENDBRANCH   5  22
TORSDOF 5
ENDMDL
MODEL 3
REMARK VINA RESULT:      -9.8      1.039      1.283
REMARK  Name = 
REMARK  7 active torsions:
REMARK  status: ('A' for Active; 'I' for Inactive)
REMARK    1  A    between atoms: C_1  and  C_2
REMARK    2  A    between atoms: C_6  and  C_7
REMARK    3  A    between atoms: N_13  and  C_14
REMARK    4  A    between atoms: C_18  and  C_19
REMARK    5  A    between atoms: C_20  and  C_21
REMARK    6  A    between atoms: C_21  and  C_22
REMARK    7  A    between atoms: N_26  and  C_27
REMARK                            x       y       z     vdW  Elec       q    Type
REMARK                         _______ _______ _______ _____ _____    ______ ____
ROOT
ATOM      1  C   UNL     1       2.570   7.109  18.618  0.00  0.00    +0.000 A 
ATOM      2  C   UNL     1       2.008   5.826  18.737  0.00  0.00    +0.000 A 
ATOM      3  C   UNL     1       2.659   4.679  18.281  0.00  0.00    +0.000 A 
ATOM      4  C   UNL     1       3.908   4.791  17.697  0.00  0.00    +0.000 A 
ATOM      5  C   UNL     1       4.483   6.056  17.564  0.00  0.00    +0.000 A 
ATOM      6  C   UNL     1       3.830   7.215  18.010  0.00  0.00    +0.000 A 
ENDROOT
BRANCH   1  15
ATOM      7  C   UNL     1      -1.050  13.512  19.552  0.00  0.00    +0.000 C 
ATOM      8  C   UNL     1      -0.470  12.167  19.876  0.00  0.00    +0.000 A 
ATOM      9  C   UNL     1       0.309  11.503  18.935  0.00  0.00    +0.000 A 
ATOM     10  C   UNL     1       0.812  10.263  19.279  0.00  0.00    +0.000 A 
ATOM     11  C   UNL     1       0.588   9.628  20.494  0.00  0.00    +0.000 A 
ATOM     12  C   UNL     1      -0.165  10.285  21.462  0.00  0.00    +0.000 A 
ATOM     13  C   UNL     1      -0.692  11.563  21.133  0.00  0.00    +0.000 A 
ATOM     14  C   UNL     1       1.261   8.280  20.473  0.00  0.00    +0.000 C 
ATOM     15  N   UNL     1       1.889   8.239  19.154  0.00  0.00    +0.000 N 
ATOM     16  C   UNL     1       1.659   9.418  18.445  0.00  0.00    +0.000 C 
ATOM     17  O   UNL     1       2.041   9.800  17.356  0.00  0.00    +0.000 OA
BRANCH  12  18
ATOM     18  C   UNL     1      -0.423   9.718  22.833  0.00  0.00    +0.000 C 
ATOM     19  F   UNL     1      -1.032   8.502  22.813  0.00  0.00    +0.000 F 
ATOM     20  F   UNL     1       0.726   9.551  23.546  0.00  0.00    +0.000 F 
ATOM     21  F   UNL     1      -1.218  10.523  23.589  0.00  0.00    +0.000 F 
ENDBRANCH  12  18
ENDBRANCH   1  15
BRANCH   5  22
ATOM     22  C   UNL     1       5.885   6.124  17.133  0.00  0.00    +0.000 C 
ATOM     23  C   UNL     1       6.719   5.479  16.284  0.00  0.00    +0.000 C 
ATOM     24  O   UNL     1       7.779   6.137  16.625  0.00  0.00    +0.000 OA
ATOM     25  C   UNL     1       7.054   6.928  17.592  0.00  0.00    +0.000 C 
BRANCH  23  26
ATOM     26  C   UNL     1       6.547   4.337  15.277  0.00  0.00    +0.000 C 
BRANCH  26  27
ATOM     27  C   UNL     1       7.046   4.712  13.919  0.00  0.00    +0.000 A 
ATOM     28  N   UNL     1       7.994   5.593  13.653  0.00  0.00    +0.000 NA
ATOM     29  N   UNL     1       8.194   5.619  12.294  0.00  0.00    +0.000 NA
ATOM     30  C   UNL     1       7.375   4.746  11.758  0.00  0.00    +0.000 A 
ATOM     31  N   UNL     1       6.625   4.167  12.734  0.00  0.00    +0.000 N 
ATOM     32  C   UNL     1       5.597   3.182  12.530  0.00  0.00    +0.000 C 
ENDBRANCH  26  27
ENDBRANCH  23  26
ENDBRANCH   5  22
TORSDOF 5
ENDMDL
MODEL 4
REMARK VINA RESULT:      -9.7      4.546      9.161
REMARK  Name = 
REMARK  7 active torsions:
REMARK  status: ('A' for Active; 'I' for Inactive)
REMARK    1  A    between atoms: C_1  and  C_2
REMARK    2  A    between atoms: C_6  and  C_7
REMARK    3  A    between atoms: N_13  and  C_14
REMARK    4  A    between atoms: C_18  and  C_19
REMARK    5  A    between atoms: C_20  and  C_21
REMARK    6  A    between atoms: C_21  and  C_22
REMARK    7  A    between atoms: N_26  and  C_27
REMARK                            x       y       z     vdW  Elec       q    Type
REMARK                         _______ _______ _______ _____ _____    ______ ____
ROOT
ATOM      1  C   UNL     1       1.540   8.433  20.087  0.00  0.00    +0.000 A 
ATOM      2  C   UNL     1       1.054   8.328  21.402  0.00  0.00    +0.000 A 
ATOM      3  C   UNL     1       0.324   9.349  22.014  0.00  0.00    +0.000 A 
ATOM      4  C   UNL     1       0.054  10.509  21.310  0.00  0.00    +0.000 A 
ATOM      5  C   UNL     1       0.532  10.637  20.005  0.00  0.00    +0.000 A 
ATOM      6  C   UNL     1       1.275   9.618  19.387  0.00  0.00    +0.000 A 
ENDROOT
BRANCH   1  15
ATOM      7  C   UNL     1       3.739   1.706  17.875  0.00  0.00    +0.000 C 
ATOM      8  C   UNL     1       3.654   3.202  17.947  0.00  0.00    +0.000 A 
ATOM      9  C   UNL     1       2.852   3.806  18.909  0.00  0.00    +0.000 A 
ATOM     10  C   UNL     1       2.802   5.186  18.928  0.00  0.00    +0.000 A 
ATOM     11  C   UNL     1       3.485   6.015  18.047  0.00  0.00    +0.000 A 
ATOM     12  C   UNL     1       4.316   5.435  17.093  0.00  0.00    +0.000 A 
ATOM     13  C   UNL     1       4.387   4.016  17.056  0.00  0.00    +0.000 A 
ATOM     14  C   UNL     1       3.140   7.448  18.356  0.00  0.00    +0.000 C 
ATOM     15  N   UNL     1       2.227   7.336  19.491  0.00  0.00    +0.000 N 
ATOM     16  C   UNL     1       2.039   6.006  19.863  0.00  0.00    +0.000 C 
ATOM     17  O   UNL     1       1.409   5.495  20.769  0.00  0.00    +0.000 OA
BRANCH  12  18
ATOM     18  C   UNL     1       5.149   6.235  16.127  0.00  0.00    +0.000 C 
ATOM     19  F   UNL     1       5.741   5.479  15.163  0.00  0.00    +0.000 F 
ATOM     20  F   UNL     1       4.414   7.175  15.470  0.00  0.00    +0.000 F 
ATOM     21  F   UNL     1       6.156   6.911  16.744  0.00  0.00    +0.000 F 
ENDBRANCH  12  18
ENDBRANCH   1  15
BRANCH   5  22
ATOM     22  C   UNL     1       0.059  11.781  19.216  0.00  0.00    +0.000 C 
ATOM     23  C   UNL     1      -1.087  12.208  18.633  0.00  0.00    +0.000 C 
ATOM     24  O   UNL     1      -0.562  13.250  18.075  0.00  0.00    +0.000 OA
ATOM     25  C   UNL     1       0.749  12.954  18.606  0.00  0.00    +0.000 C 
BRANCH  23  26
ATOM     26  C   UNL     1      -2.521  11.675  18.577  0.00  0.00    +0.000 C 
BRANCH  26  27
ATOM     27  C   UNL     1      -2.858  11.121  17.231  0.00  0.00    +0.000 A 
ATOM     28  N   UNL     1      -2.072  10.372  16.478  0.00  0.00    +0.000 NA
ATOM     29  N   UNL     1      -2.759  10.028  15.339  0.00  0.00    +0.000 NA
ATOM     30  C   UNL     1      -3.954  10.563  15.424  0.00  0.00    +0.000 A 
ATOM     31  N   UNL     1      -4.056  11.270  16.581  0.00  0.00    +0.000 N 
ATOM     32  C   UNL     1      -5.206  12.019  17.008  0.00  0.00    +0.000 C 
ENDBRANCH  26  27
ENDBRANCH  23  26
ENDBRANCH   5  22
TORSDOF 5
ENDMDL
MODEL 5
REMARK VINA RESULT:      -9.6      4.201      9.329
REMARK  Name = 
REMARK  7 active torsions:
REMARK  status: ('A' for Active; 'I' for Inactive)
REMARK    1  A    between atoms: C_1  and  C_2
REMARK    2  A    between atoms: C_6  and  C_7
REMARK    3  A    between atoms: N_13  and  C_14
REMARK    4  A    between atoms: C_18  and  C_19
REMARK    5  A    between atoms: C_20  and  C_21
REMARK    6  A    between atoms: C_21  and  C_22
REMARK    7  A    between atoms: N_26  and  C_27
REMARK                            x       y       z     vdW  Elec       q    Type
REMARK                         _______ _______ _______ _____ _____    ______ ____
ROOT
ATOM      1  C   UNL     1       1.844   7.915  19.683  0.00  0.00    +0.000 A 
ATOM      2  C   UNL     1       1.713   7.803  21.078  0.00  0.00    +0.000 A 
ATOM      3  C   UNL     1       1.074   8.775  21.850  0.00  0.00    +0.000 A 
ATOM      4  C   UNL     1       0.537   9.890  21.232  0.00  0.00    +0.000 A 
ATOM      5  C   UNL     1       0.660  10.024  19.848  0.00  0.00    +0.000 A 
ATOM      6  C   UNL     1       1.310   9.056  19.067  0.00  0.00    +0.000 A 
ENDROOT
BRANCH   1  15
ATOM      7  C   UNL     1       6.199   3.868  15.252  0.00  0.00    +0.000 C 
ATOM      8  C   UNL     1       5.156   4.191  16.280  0.00  0.00    +0.000 A 
ATOM      9  C   UNL     1       4.824   5.516  16.538  0.00  0.00    +0.000 A 
ATOM     10  C   UNL     1       3.864   5.761  17.501  0.00  0.00    +0.000 A 
ATOM     11  C   UNL     1       3.213   4.780  18.237  0.00  0.00    +0.000 A 
ATOM     12  C   UNL     1       3.508   3.444  17.977  0.00  0.00    +0.000 A 
ATOM     13  C   UNL     1       4.491   3.167  16.989  0.00  0.00    +0.000 A 
ATOM     14  C   UNL     1       2.276   5.440  19.214  0.00  0.00    +0.000 C 
ATOM     15  N   UNL     1       2.452   6.864  18.937  0.00  0.00    +0.000 N 
ATOM     16  C   UNL     1       3.366   7.072  17.904  0.00  0.00    +0.000 C 
ATOM     17  O   UNL     1       3.749   8.082  17.347  0.00  0.00    +0.000 OA
BRANCH  12  18
ATOM     18  C   UNL     1       2.823   2.298  18.671  0.00  0.00    +0.000 C 
ATOM     19  F   UNL     1       2.859   2.384  20.029  0.00  0.00    +0.000 F 
ATOM     20  F   UNL     1       1.507   2.203  18.336  0.00  0.00    +0.000 F 
ATOM     21  F   UNL     1       3.376   1.094  18.358  0.00  0.00    +0.000 F 
ENDBRANCH  12  18
ENDBRANCH   1  15
BRANCH   5  22
ATOM     22  C   UNL     1      -0.093  11.104  19.199  0.00  0.00    +0.000 C 
ATOM     23  C   UNL     1      -1.256  11.268  18.524  0.00  0.00    +0.000 C 
ATOM     24  O   UNL     1      -1.061  12.514  18.240  0.00  0.00    +0.000 OA
ATOM     25  C   UNL     1       0.217  12.535  18.913  0.00  0.00    +0.000 C 
BRANCH  23  26
ATOM     26  C   UNL     1      -2.417  10.341  18.154  0.00  0.00    +0.000 C 
BRANCH  26  27
ATOM     27  C   UNL     1      -3.672  11.103  17.877  0.00  0.00    +0.000 A 
ATOM     28  N   UNL     1      -4.447  11.682  18.777  0.00  0.00    +0.000 NA
ATOM     29  N   UNL     1      -5.473  12.318  18.122  0.00  0.00    +0.000 NA
ATOM     30  C   UNL     1      -5.300  12.127  16.837  0.00  0.00    +0.000 A 
ATOM     31  N   UNL     1      -4.196  11.358  16.636  0.00  0.00    +0.000 N 
ATOM     32  C   UNL     1      -3.703  10.913  15.360  0.00  0.00    +0.000 C 
ENDBRANCH  26  27
ENDBRANCH  23  26
ENDBRANCH   5  22
TORSDOF 5
ENDMDL
MODEL 6
REMARK VINA RESULT:      -9.5      1.744      2.908
REMARK  Name = 
REMARK  7 active torsions:
REMARK  status: ('A' for Active; 'I' for Inactive)
REMARK    1  A    between atoms: C_1  and  C_2
REMARK    2  A    between atoms: C_6  and  C_7
REMARK    3  A    between atoms: N_13  and  C_14
REMARK    4  A    between atoms: C_18  and  C_19
REMARK    5  A    between atoms: C_20  and  C_21
REMARK    6  A    between atoms: C_21  and  C_22
REMARK    7  A    between atoms: N_26  and  C_27
REMARK                            x       y       z     vdW  Elec       q    Type
REMARK                         _______ _______ _______ _____ _____    ______ ____
ROOT
ATOM      1  C   UNL     1       2.540   5.990  18.743  0.00  0.00    +0.000 A 
ATOM      2  C   UNL     1       2.192   4.869  19.515  0.00  0.00    +0.000 A 
ATOM      3  C   UNL     1       2.641   3.582  19.211  0.00  0.00    +0.000 A 
ATOM      4  C   UNL     1       3.467   3.390  18.118  0.00  0.00    +0.000 A 
ATOM      5  C   UNL     1       3.820   4.489  17.334  0.00  0.00    +0.000 A 
ATOM      6  C   UNL     1       3.365   5.783  17.628  0.00  0.00    +0.000 A 
ENDROOT
BRANCH   1  15
ATOM      7  C   UNL     1       0.337  13.069  18.874  0.00  0.00    +0.000 C 
ATOM      8  C   UNL     1       0.615  11.676  19.356  0.00  0.00    +0.000 A 
ATOM      9  C   UNL     1       1.252  10.766  18.520  0.00  0.00    +0.000 A 
ATOM     10  C   UNL     1       1.476   9.494  19.009  0.00  0.00    +0.000 A 
ATOM     11  C   UNL     1       1.101   9.054  20.271  0.00  0.00    +0.000 A 
ATOM     12  C   UNL     1       0.487   9.954  21.137  0.00  0.00    +0.000 A 
ATOM     13  C   UNL     1       0.247  11.270  20.658  0.00  0.00    +0.000 A 
ATOM     14  C   UNL     1       1.474   7.601  20.415  0.00  0.00    +0.000 C 
ATOM     15  N   UNL     1       2.103   7.289  19.134  0.00  0.00    +0.000 N 
ATOM     16  C   UNL     1       2.141   8.406  18.300  0.00  0.00    +0.000 C 
ATOM     17  O   UNL     1       2.613   8.580  17.193  0.00  0.00    +0.000 OA
BRANCH  12  18
ATOM     18  C   UNL     1       0.091   9.605  22.547  0.00  0.00    +0.000 C 
ATOM     19  F   UNL     1      -0.795   8.574  22.624  0.00  0.00    +0.000 F 
ATOM     20  F   UNL     1       1.160   9.239  23.307  0.00  0.00    +0.000 F 
ATOM     21  F   UNL     1      -0.492  10.648  23.198  0.00  0.00    +0.000 F 
ENDBRANCH  12  18
ENDBRANCH   1  15
BRANCH   5  22
ATOM     22  C   UNL     1       4.856   4.291  16.312  0.00  0.00    +0.000 C 
ATOM     23  C   UNL     1       6.207   4.300  16.220  0.00  0.00    +0.000 C 
ATOM     24  O   UNL     1       6.246   4.132  14.939  0.00  0.00    +0.000 OA
ATOM     25  C   UNL     1       4.806   4.100  14.833  0.00  0.00    +0.000 C 
BRANCH  23  26
ATOM     26  C   UNL     1       7.346   4.483  17.227  0.00  0.00    +0.000 C 
BRANCH  26  27
ATOM     27  C   UNL     1       7.629   5.926  17.492  0.00  0.00    +0.000 A 
ATOM     28  N   UNL     1       7.553   6.910  16.613  0.00  0.00    +0.000 NA
ATOM     29  N   UNL     1       7.843   8.089  17.254  0.00  0.00    +0.000 NA
ATOM     30  C   UNL     1       8.078   7.806  18.513  0.00  0.00    +0.000 A 
ATOM     31  N   UNL     1       7.973   6.464  18.706  0.00  0.00    +0.000 N 
ATOM     32  C   UNL     1       8.191   5.775  19.948  0.00  0.00    +0.000 C 
ENDBRANCH  26  27
ENDBRANCH  23  26
ENDBRANCH   5  22
TORSDOF 5
ENDMDL
MODEL 7
REMARK VINA RESULT:      -9.4      4.528      9.586
REMARK  Name = 
REMARK  7 active torsions:
REMARK  status: ('A' for Active; 'I' for Inactive)
REMARK    1  A    between atoms: C_1  and  C_2
REMARK    2  A    between atoms: C_6  and  C_7
REMARK    3  A    between atoms: N_13  and  C_14
REMARK    4  A    between atoms: C_18  and  C_19
REMARK    5  A    between atoms: C_20  and  C_21
REMARK    6  A    between atoms: C_21  and  C_22
REMARK    7  A    between atoms: N_26  and  C_27
REMARK                            x       y       z     vdW  Elec       q    Type
REMARK                         _______ _______ _______ _____ _____    ______ ____
ROOT
ATOM      1  C   UNL     1       1.704   8.273  20.095  0.00  0.00    +0.000 A 
ATOM      2  C   UNL     1       1.496   8.324  21.484  0.00  0.00    +0.000 A 
ATOM      3  C   UNL     1       0.812   9.374  22.100  0.00  0.00    +0.000 A 
ATOM      4  C   UNL     1       0.306  10.403  21.327  0.00  0.00    +0.000 A 
ATOM      5  C   UNL     1       0.506  10.375  19.946  0.00  0.00    +0.000 A 
ATOM      6  C   UNL     1       1.202   9.328  19.321  0.00  0.00    +0.000 A 
ENDROOT
BRANCH   1  15
ATOM      7  C   UNL     1       3.700   1.453  17.978  0.00  0.00    +0.000 C 
ATOM      8  C   UNL     1       3.658   2.951  18.027  0.00  0.00    +0.000 A 
ATOM      9  C   UNL     1       2.878   3.592  18.983  0.00  0.00    +0.000 A 
ATOM     10  C   UNL     1       2.867   4.973  18.981  0.00  0.00    +0.000 A 
ATOM     11  C   UNL     1       3.570   5.769  18.085  0.00  0.00    +0.000 A 
ATOM     12  C   UNL     1       4.380   5.150  17.136  0.00  0.00    +0.000 A 
ATOM     13  C   UNL     1       4.410   3.730  17.121  0.00  0.00    +0.000 A 
ATOM     14  C   UNL     1       3.268   7.216  18.372  0.00  0.00    +0.000 C 
ATOM     15  N   UNL     1       2.357   7.148  19.513  0.00  0.00    +0.000 N 
ATOM     16  C   UNL     1       2.133   5.829  19.906  0.00  0.00    +0.000 C 
ATOM     17  O   UNL     1       1.493   5.350  20.823  0.00  0.00    +0.000 OA
BRANCH  12  18
ATOM     18  C   UNL     1       5.230   5.912  16.155  0.00  0.00    +0.000 C 
ATOM     19  F   UNL     1       4.583   6.957  15.570  0.00  0.00    +0.000 F 
ATOM     20  F   UNL     1       6.344   6.438  16.736  0.00  0.00    +0.000 F 
ATOM     21  F   UNL     1       5.676   5.129  15.134  0.00  0.00    +0.000 F 
ENDBRANCH  12  18
ENDBRANCH   1  15
BRANCH   5  22
ATOM     22  C   UNL     1      -0.213  11.364  19.134  0.00  0.00    +0.000 C 
ATOM     23  C   UNL     1      -1.354  11.446  18.409  0.00  0.00    +0.000 C 
ATOM     24  O   UNL     1      -1.134  12.640  17.962  0.00  0.00    +0.000 OA
ATOM     25  C   UNL     1       0.126  12.739  18.664  0.00  0.00    +0.000 C 
BRANCH  23  26
ATOM     26  C   UNL     1      -2.517  10.489  18.134  0.00  0.00    +0.000 C 
BRANCH  26  27
ATOM     27  C   UNL     1      -3.799  11.222  17.902  0.00  0.00    +0.000 A 
ATOM     28  N   UNL     1      -4.545  11.798  18.828  0.00  0.00    +0.000 NA
ATOM     29  N   UNL     1      -5.612  12.404  18.210  0.00  0.00    +0.000 NA
ATOM     30  C   UNL     1      -5.492  12.197  16.921  0.00  0.00    +0.000 A 
ATOM     31  N   UNL     1      -4.382  11.448  16.682  0.00  0.00    +0.000 N 
ATOM     32  C   UNL     1      -3.937  10.995  15.392  0.00  0.00    +0.000 C 
ENDBRANCH  26  27
ENDBRANCH  23  26
ENDBRANCH   5  22
TORSDOF 5
ENDMDL
MODEL 8
REMARK VINA RESULT:      -9.4      4.189      8.971
REMARK  Name = 
REMARK  7 active torsions:
REMARK  status: ('A' for Active; 'I' for Inactive)
REMARK    1  A    between atoms: C_1  and  C_2
REMARK    2  A    between atoms: C_6  and  C_7
REMARK    3  A    between atoms: N_13  and  C_14
REMARK    4  A    between atoms: C_18  and  C_19
REMARK    5  A    between atoms: C_20  and  C_21
REMARK    6  A    between atoms: C_21  and  C_22
REMARK    7  A    between atoms: N_26  and  C_27
REMARK                            x       y       z     vdW  Elec       q    Type
REMARK                         _______ _______ _______ _____ _____    ______ ____
ROOT
ATOM      1  C   UNL     1       0.932   8.793  20.863  0.00  0.00    +0.000 A 
ATOM      2  C   UNL     1       0.507   8.678  22.197  0.00  0.00    +0.000 A 
ATOM      3  C   UNL     1      -0.116   9.726  22.877  0.00  0.00    +0.000 A 
ATOM      4  C   UNL     1      -0.341  10.924  22.222  0.00  0.00    +0.000 A 
ATOM      5  C   UNL     1       0.078  11.061  20.898  0.00  0.00    +0.000 A 
ATOM      6  C   UNL     1       0.714  10.015  20.212  0.00  0.00    +0.000 A 
ENDROOT
BRANCH   1  15
ATOM      7  C   UNL     1       4.948   4.334  16.507  0.00  0.00    +0.000 C 
ATOM      8  C   UNL     1       4.025   4.759  17.610  0.00  0.00    +0.000 A 
ATOM      9  C   UNL     1       3.642   6.091  17.719  0.00  0.00    +0.000 A 
ATOM     10  C   UNL     1       2.797   6.432  18.757  0.00  0.00    +0.000 A 
ATOM     11  C   UNL     1       2.312   5.543  19.707  0.00  0.00    +0.000 A 
ATOM     12  C   UNL     1       2.659   4.199  19.603  0.00  0.00    +0.000 A 
ATOM     13  C   UNL     1       3.524   3.823  18.541  0.00  0.00    +0.000 A 
ATOM     14  C   UNL     1       1.464   6.299  20.698  0.00  0.00    +0.000 C 
ATOM     15  N   UNL     1       1.509   7.671  20.199  0.00  0.00    +0.000 N 
ATOM     16  C   UNL     1       2.269   7.764  19.033  0.00  0.00    +0.000 C 
ATOM     17  O   UNL     1       2.510   8.696  18.291  0.00  0.00    +0.000 OA
BRANCH  12  18
ATOM     18  C   UNL     1       2.145   3.139  20.540  0.00  0.00    +0.000 C 
ATOM     19  F   UNL     1       2.628   3.252  21.807  0.00  0.00    +0.000 F 
ATOM     20  F   UNL     1       0.788   3.164  20.652  0.00  0.00    +0.000 F 
ATOM     21  F   UNL     1       2.463   1.881  20.129  0.00  0.00    +0.000 F 
ENDBRANCH  12  18
ENDBRANCH   1  15
BRANCH   5  22
ATOM     22  C   UNL     1      -0.355  12.260  20.168  0.00  0.00    +0.000 C 
ATOM     23  C   UNL     1      -1.447  12.704  19.503  0.00  0.00    +0.000 C 
ATOM     24  O   UNL     1      -0.909  13.811  19.104  0.00  0.00    +0.000 OA
ATOM     25  C   UNL     1       0.348  13.507  19.748  0.00  0.00    +0.000 C 
BRANCH  23  26
ATOM     26  C   UNL     1      -2.844  12.135  19.239  0.00  0.00    +0.000 C 
BRANCH  26  27
ATOM     27  C   UNL     1      -2.960  11.557  17.866  0.00  0.00    +0.000 A 
ATOM     28  N   UNL     1      -1.990  10.977  17.181  0.00  0.00    +0.000 NA
ATOM     29  N   UNL     1      -2.506  10.538  15.985  0.00  0.00    +0.000 NA
ATOM     30  C   UNL     1      -3.780  10.847  15.968  0.00  0.00    +0.000 A 
ATOM     31  N   UNL     1      -4.106  11.500  17.116  0.00  0.00    +0.000 N 
ATOM     32  C   UNL     1      -5.405  12.021  17.446  0.00  0.00    +0.000 C 
ENDBRANCH  26  27
ENDBRANCH  23  26
ENDBRANCH   5  22
TORSDOF 5
ENDMDL
MODEL 9
REMARK VINA RESULT:      -9.3      4.227      9.097
REMARK  Name = 
REMARK  7 active torsions:
REMARK  status: ('A' for Active; 'I' for Inactive)
REMARK    1  A    between atoms: C_1  and  C_2
REMARK    2  A    between atoms: C_6  and  C_7
REMARK    3  A    between atoms: N_13  and  C_14
REMARK    4  A    between atoms: C_18  and  C_19
REMARK    5  A    between atoms: C_20  and  C_21
REMARK    6  A    between atoms: C_21  and  C_22
REMARK    7  A    between atoms: N_26  and  C_27
REMARK                            x       y       z     vdW  Elec       q    Type
REMARK                         _______ _______ _______ _____ _____    ______ ____
ROOT
ATOM      1  C   UNL     1       0.822   8.986  20.975  0.00  0.00    +0.000 A 
ATOM      2  C   UNL     1       0.372   8.892  22.303  0.00  0.00    +0.000 A 
ATOM      3  C   UNL     1      -0.258   9.953  22.957  0.00  0.00    +0.000 A 
ATOM      4  C   UNL     1      -0.463  11.143  22.282  0.00  0.00    +0.000 A 
ATOM      5  C   UNL     1      -0.018  11.260  20.964  0.00  0.00    +0.000 A 
ATOM      6  C   UNL     1       0.625  10.201  20.304  0.00  0.00    +0.000 A 
ENDROOT
BRANCH   1  15
ATOM      7  C   UNL     1       4.788   4.450  16.653  0.00  0.00    +0.000 C 
ATOM      8  C   UNL     1       3.898   4.899  17.775  0.00  0.00    +0.000 A 
ATOM      9  C   UNL     1       3.480   6.223  17.841  0.00  0.00    +0.000 A 
ATOM     10  C   UNL     1       2.670   6.587  18.898  0.00  0.00    +0.000 A 
ATOM     11  C   UNL     1       2.251   5.728  19.907  0.00  0.00    +0.000 A 
ATOM     12  C   UNL     1       2.633   4.391  19.847  0.00  0.00    +0.000 A 
ATOM     13  C   UNL     1       3.466   3.992  18.767  0.00  0.00    +0.000 A 
ATOM     14  C   UNL     1       1.422   6.504  20.898  0.00  0.00    +0.000 C 
ATOM     15  N   UNL     1       1.405   7.853  20.338  0.00  0.00    +0.000 N 
ATOM     16  C   UNL     1       2.113   7.914  19.138  0.00  0.00    +0.000 C 
ATOM     17  O   UNL     1       2.295   8.818  18.345  0.00  0.00    +0.000 OA
BRANCH  12  18
ATOM     18  C   UNL     1       2.191   3.361  20.851  0.00  0.00    +0.000 C 
ATOM     19  F   UNL     1       2.437   3.718  22.141  0.00  0.00    +0.000 F 
ATOM     20  F   UNL     1       0.855   3.110  20.778  0.00  0.00    +0.000 F 
ATOM     21  F   UNL     1       2.807   2.160  20.671  0.00  0.00    +0.000 F 
ENDBRANCH  12  18
ENDBRANCH   1  15
BRANCH   5  22
ATOM     22  C   UNL     1      -0.429  12.451  20.211  0.00  0.00    +0.000 C 
ATOM     23  C   UNL     1      -0.957  12.756  19.002  0.00  0.00    +0.000 C 
ATOM     24  O   UNL     1      -0.886  14.038  19.153  0.00  0.00    +0.000 OA
ATOM     25  C   UNL     1      -0.304  13.915  20.470  0.00  0.00    +0.000 C 
BRANCH  23  26
ATOM     26  C   UNL     1      -1.448  11.928  17.810  0.00  0.00    +0.000 C 
BRANCH  26  27
ATOM     27  C   UNL     1      -2.924  11.702  17.859  0.00  0.00    +0.000 A 
ATOM     28  N   UNL     1      -3.709  11.905  18.902  0.00  0.00    +0.000 NA
ATOM     29  N   UNL     1      -5.003  11.625  18.533  0.00  0.00    +0.000 NA
ATOM     30  C   UNL     1      -4.985  11.269  17.271  0.00  0.00    +0.000 A 
ATOM     31  N   UNL     1      -3.705  11.285  16.811  0.00  0.00    +0.000 N 
ATOM     32  C   UNL     1      -3.284  10.926  15.484  0.00  0.00    +0.000 C 
ENDBRANCH  26  27
ENDBRANCH  23  26
ENDBRANCH   5  22
TORSDOF 5
ENDMDL
