MODEL 1
REMARK VINA RESULT:      -8.3      0.000      0.000
REMARK  Name = 
REMARK  6 active torsions:
REMARK  status: ('A' for Active; 'I' for Inactive)
REMARK    1  A    between atoms: C_1  and  C_2
REMARK    2  A    between atoms: C_5  and  C_6
REMARK    3  A    between atoms: C_7  and  C_8
REMARK    4  A    between atoms: C_8  and  C_9
REMARK    5  A    between atoms: C_11  and  C_12
REMARK    6  A    between atoms: C_12  and  C_13
REMARK                            x       y       z     vdW  Elec       q    Type
REMARK                         _______ _______ _______ _____ _____    ______ ____
ROOT
ATOM      1  C   UNL     1       1.960   8.365  18.549  0.00  0.00    +0.000 A 
ATOM      2  N   UNL     1       2.234   7.233  17.932  0.00  0.00    +0.000 NA
ATOM      3  C   UNL     1       2.296   6.335  18.978  0.00  0.00    +0.000 A 
ATOM      4  N   UNL     1       2.092   6.885  20.186  0.00  0.00    +0.000 NA
ATOM      5  O   UNL     1       1.863   8.229  19.902  0.00  0.00    +0.000 OA
ENDROOT
BRANCH   3   6
ATOM      6  C   UNL     1       2.554   4.859  18.777  0.00  0.00    +0.000 C 
ATOM      7  C   UNL     1       1.442   4.134  17.974  0.00  0.00    +0.000 C 
ATOM      8  C   UNL     1       1.528   2.661  18.378  0.00  0.00    +0.000 C 
ATOM      9  C   UNL     1       2.243   2.631  19.723  0.00  0.00    +0.000 C 
ATOM     10  C   UNL     1       2.425   4.095  20.114  0.00  0.00    +0.000 C 
BRANCH   6  11
ATOM     11  C   UNL     1       3.904   4.801  18.036  0.00  0.00    +0.000 A 
ATOM     12  C   UNL     1       3.954   4.360  16.690  0.00  0.00    +0.000 A 
ATOM     13  C   UNL     1       5.160   4.284  15.987  0.00  0.00    +0.000 A 
ATOM     14  C   UNL     1       6.343   4.632  16.618  0.00  0.00    +0.000 A 
ATOM     15  F   UNL     1       7.499   4.551  15.950  0.00  0.00    +0.000 F 
ATOM     16  C   UNL     1       6.341   5.065  17.932  0.00  0.00    +0.000 A 
ATOM     17  C   UNL     1       5.132   5.156  18.622  0.00  0.00    +0.000 A 
ATOM     18  F   UNL     1       5.201   5.586  19.887  0.00  0.00    +0.000 F 
ENDBRANCH   6  11
ENDBRANCH   3   6
BRANCH   1  19
ATOM     19  C   UNL     1       1.634   9.701  17.988  0.00  0.00    +0.000 C 
BRANCH  19  26
ATOM     20  C   UNL     1       1.480  11.652  20.602  0.00  0.00    +0.000 C 
ATOM     21  C   UNL     1       0.373  11.199  19.726  0.00  0.00    +0.000 A 
ATOM     22  N   UNL     1      -0.874  11.627  19.952  0.00  0.00    +0.000 NA
ATOM     23  O   UNL     1      -1.654  11.056  18.969  0.00  0.00    +0.000 OA
ATOM     24  C   UNL     1      -0.878  10.290  18.159  0.00  0.00    +0.000 A 
ATOM     25  C   UNL     1      -1.573   9.629  17.038  0.00  0.00    +0.000 C 
ATOM     26  C   UNL     1       0.433  10.338  18.593  0.00  0.00    +0.000 A 
ENDBRANCH  19  26
ENDBRANCH   1  19
TORSDOF 4
ENDMDL
MODEL 2
REMARK VINA RESULT:      -8.3      0.391      1.591
REMARK  Name = 
REMARK  6 active torsions:
REMARK  status: ('A' for Active; 'I' for Inactive)
REMARK    1  A    between atoms: C_1  and  C_2
REMARK    2  A    between atoms: C_5  and  C_6
REMARK    3  A    between atoms: C_7  and  C_8
REMARK    4  A    between atoms: C_8  and  C_9
REMARK    5  A    between atoms: C_11  and  C_12
REMARK    6  A    between atoms: C_12  and  C_13
REMARK                            x       y       z     vdW  Elec       q    Type
REMARK                         _______ _______ _______ _____ _____    ______ ____
ROOT
ATOM      1  C   UNL     1       2.004   8.389  18.494  0.00  0.00    +0.000 A 
ATOM      2  N   UNL     1       2.234   7.245  17.881  0.00  0.00    +0.000 NA
ATOM      3  C   UNL     1       2.321   6.359  18.935  0.00  0.00    +0.000 A 
ATOM      4  N   UNL     1       2.173   6.927  20.143  0.00  0.00    +0.000 NA
ATOM      5  O   UNL     1       1.955   8.271  19.851  0.00  0.00    +0.000 OA
ENDROOT
BRANCH   3   6
ATOM      6  C   UNL     1       2.546   4.876  18.743  0.00  0.00    +0.000 C 
ATOM      7  C   UNL     1       1.432   4.177  17.919  0.00  0.00    +0.000 C 
ATOM      8  C   UNL     1       1.474   2.704  18.328  0.00  0.00    +0.000 C 
ATOM      9  C   UNL     1       2.160   2.660  19.688  0.00  0.00    +0.000 C 
ATOM     10  C   UNL     1       2.371   4.120  20.079  0.00  0.00    +0.000 C 
BRANCH   6  11
ATOM     11  C   UNL     1       3.909   4.783  18.030  0.00  0.00    +0.000 A 
ATOM     12  C   UNL     1       3.979   4.304  16.698  0.00  0.00    +0.000 A 
ATOM     13  C   UNL     1       5.197   4.196  16.019  0.00  0.00    +0.000 A 
ATOM     14  C   UNL     1       6.372   4.547  16.664  0.00  0.00    +0.000 A 
ATOM     15  F   UNL     1       7.540   4.435  16.020  0.00  0.00    +0.000 F 
ATOM     16  C   UNL     1       6.350   5.016  17.965  0.00  0.00    +0.000 A 
ATOM     17  C   UNL     1       5.130   5.139  18.630  0.00  0.00    +0.000 A 
ATOM     18  F   UNL     1       5.180   5.603  19.883  0.00  0.00    +0.000 F 
ENDBRANCH   6  11
ENDBRANCH   3   6
BRANCH   1  19
ATOM     19  C   UNL     1       1.679   9.724  17.929  0.00  0.00    +0.000 C 
BRANCH  19  26
ATOM     20  C   UNL     1      -1.461   9.574  17.048  0.00  0.00    +0.000 C 
ATOM     21  C   UNL     1      -0.860  10.308  18.187  0.00  0.00    +0.000 A 
ATOM     22  N   UNL     1      -1.644  10.994  19.026  0.00  0.00    +0.000 NA
ATOM     23  O   UNL     1      -0.801  11.534  19.974  0.00  0.00    +0.000 OA
ATOM     24  C   UNL     1       0.480  11.173  19.704  0.00  0.00    +0.000 A 
ATOM     25  C   UNL     1       1.500  11.659  20.652  0.00  0.00    +0.000 C 
ATOM     26  C   UNL     1       0.510  10.387  18.568  0.00  0.00    +0.000 A 
ENDBRANCH  19  26
ENDBRANCH   1  19
TORSDOF 4
ENDMDL
MODEL 3
REMARK VINA RESULT:      -8.0      0.979      1.372
REMARK  Name = 
REMARK  6 active torsions:
REMARK  status: ('A' for Active; 'I' for Inactive)
REMARK    1  A    between atoms: C_1  and  C_2
REMARK    2  A    between atoms: C_5  and  C_6
REMARK    3  A    between atoms: C_7  and  C_8
REMARK    4  A    between atoms: C_8  and  C_9
REMARK    5  A    between atoms: C_11  and  C_12
REMARK    6  A    between atoms: C_12  and  C_13
REMARK                            x       y       z     vdW  Elec       q    Type
REMARK                         _______ _______ _______ _____ _____    ______ ____
ROOT
ATOM      1  C   UNL     1       1.890   8.402  18.719  0.00  0.00    +0.000 A 
ATOM      2  N   UNL     1       2.219   7.248  18.176  0.00  0.00    +0.000 NA
ATOM      3  C   UNL     1       2.183   6.392  19.258  0.00  0.00    +0.000 A 
ATOM      4  N   UNL     1       1.868   6.989  20.418  0.00  0.00    +0.000 NA
ATOM      5  O   UNL     1       1.667   8.320  20.062  0.00  0.00    +0.000 OA
ENDROOT
BRANCH   3   6
ATOM      6  C   UNL     1       2.458   4.910  19.140  0.00  0.00    +0.000 C 
ATOM      7  C   UNL     1       1.483   4.168  18.187  0.00  0.00    +0.000 C 
ATOM      8  C   UNL     1       1.491   2.706  18.638  0.00  0.00    +0.000 C 
ATOM      9  C   UNL     1       1.979   2.710  20.082  0.00  0.00    +0.000 C 
ATOM     10  C   UNL     1       2.108   4.184  20.459  0.00  0.00    +0.000 C 
BRANCH   6  11
ATOM     11  C   UNL     1       3.909   4.826  18.629  0.00  0.00    +0.000 A 
ATOM     12  C   UNL     1       4.979   5.228  19.467  0.00  0.00    +0.000 A 
ATOM     13  C   UNL     1       6.309   5.176  19.037  0.00  0.00    +0.000 A 
ATOM     14  C   UNL     1       6.596   4.737  17.755  0.00  0.00    +0.000 A 
ATOM     15  F   UNL     1       7.866   4.695  17.338  0.00  0.00    +0.000 F 
ATOM     16  C   UNL     1       5.582   4.338  16.902  0.00  0.00    +0.000 A 
ATOM     17  C   UNL     1       4.259   4.375  17.344  0.00  0.00    +0.000 A 
ATOM     18  F   UNL     1       3.330   3.971  16.471  0.00  0.00    +0.000 F 
ENDBRANCH   6  11
ENDBRANCH   3   6
BRANCH   1  19
ATOM     19  C   UNL     1       1.619   9.714  18.078  0.00  0.00    +0.000 C 
BRANCH  19  26
ATOM     20  C   UNL     1       1.517  11.849  20.546  0.00  0.00    +0.000 C 
ATOM     21  C   UNL     1       0.399  11.369  19.700  0.00  0.00    +0.000 A 
ATOM     22  N   UNL     1      -0.835  11.849  19.889  0.00  0.00    +0.000 NA
ATOM     23  O   UNL     1      -1.629  11.234  18.945  0.00  0.00    +0.000 OA
ATOM     24  C   UNL     1      -0.875  10.390  18.195  0.00  0.00    +0.000 A 
ATOM     25  C   UNL     1      -1.587   9.672  17.120  0.00  0.00    +0.000 C 
ATOM     26  C   UNL     1       0.436  10.428  18.631  0.00  0.00    +0.000 A 
ENDBRANCH  19  26
ENDBRANCH   1  19
TORSDOF 4
ENDMDL
MODEL 4
REMARK VINA RESULT:      -7.9      1.059      2.100
REMARK  Name = 
REMARK  6 active torsions:
REMARK  status: ('A' for Active; 'I' for Inactive)
REMARK    1  A    between atoms: C_1  and  C_2
REMARK    2  A    between atoms: C_5  and  C_6
REMARK    3  A    between atoms: C_7  and  C_8
REMARK    4  A    between atoms: C_8  and  C_9
REMARK    5  A    between atoms: C_11  and  C_12
REMARK    6  A    between atoms: C_12  and  C_13
REMARK                            x       y       z     vdW  Elec       q    Type
REMARK                         _______ _______ _______ _____ _____    ______ ____
ROOT
ATOM      1  C   UNL     1       1.888   8.432  18.682  0.00  0.00    +0.000 A 
ATOM      2  N   UNL     1       2.206   7.258  18.175  0.00  0.00    +0.000 NA
ATOM      3  C   UNL     1       2.183   6.440  19.287  0.00  0.00    +0.000 A 
ATOM      4  N   UNL     1       1.884   7.078  20.430  0.00  0.00    +0.000 NA
ATOM      5  O   UNL     1       1.682   8.397  20.030  0.00  0.00    +0.000 OA
ENDROOT
BRANCH   3   6
ATOM      6  C   UNL     1       2.452   4.954  19.216  0.00  0.00    +0.000 C 
ATOM      7  C   UNL     1       1.445   4.179  18.325  0.00  0.00    +0.000 C 
ATOM      8  C   UNL     1       1.466   2.735  18.832  0.00  0.00    +0.000 C 
ATOM      9  C   UNL     1       2.002   2.793  20.258  0.00  0.00    +0.000 C 
ATOM     10  C   UNL     1       2.145   4.280  20.573  0.00  0.00    +0.000 C 
BRANCH   6  11
ATOM     11  C   UNL     1       3.885   4.848  18.661  0.00  0.00    +0.000 A 
ATOM     12  C   UNL     1       4.985   5.249  19.460  0.00  0.00    +0.000 A 
ATOM     13  C   UNL     1       6.300   5.176  18.989  0.00  0.00    +0.000 A 
ATOM     14  C   UNL     1       6.541   4.717  17.705  0.00  0.00    +0.000 A 
ATOM     15  F   UNL     1       7.798   4.655  17.249  0.00  0.00    +0.000 F 
ATOM     16  C   UNL     1       5.497   4.318  16.890  0.00  0.00    +0.000 A 
ATOM     17  C   UNL     1       4.190   4.376  17.372  0.00  0.00    +0.000 A 
ATOM     18  F   UNL     1       3.229   3.971  16.534  0.00  0.00    +0.000 F 
ENDBRANCH   6  11
ENDBRANCH   3   6
BRANCH   1  19
ATOM     19  C   UNL     1       1.612   9.722  18.000  0.00  0.00    +0.000 C 
BRANCH  19  26
ATOM     20  C   UNL     1      -1.543   9.649  17.163  0.00  0.00    +0.000 C 
ATOM     21  C   UNL     1      -0.894  10.448  18.229  0.00  0.00    +0.000 A 
ATOM     22  N   UNL     1      -1.633  11.241  19.013  0.00  0.00    +0.000 NA
ATOM     23  O   UNL     1      -0.753  11.818  19.903  0.00  0.00    +0.000 OA
ATOM     24  C   UNL     1       0.506  11.373  19.654  0.00  0.00    +0.000 A 
ATOM     25  C   UNL     1       1.560  11.889  20.548  0.00  0.00    +0.000 C 
ATOM     26  C   UNL     1       0.484  10.493  18.590  0.00  0.00    +0.000 A 
ENDBRANCH  19  26
ENDBRANCH   1  19
TORSDOF 4
ENDMDL
MODEL 5
REMARK VINA RESULT:      -7.8      2.124      3.983
REMARK  Name = 
REMARK  6 active torsions:
REMARK  status: ('A' for Active; 'I' for Inactive)
REMARK    1  A    between atoms: C_1  and  C_2
REMARK    2  A    between atoms: C_5  and  C_6
REMARK    3  A    between atoms: C_7  and  C_8
REMARK    4  A    between atoms: C_8  and  C_9
REMARK    5  A    between atoms: C_11  and  C_12
REMARK    6  A    between atoms: C_12  and  C_13
REMARK                            x       y       z     vdW  Elec       q    Type
REMARK                         _______ _______ _______ _____ _____    ______ ____
ROOT
ATOM      1  C   UNL     1       1.820   8.551  17.972  0.00  0.00    +0.000 A 
ATOM      2  N   UNL     1       1.997   7.286  18.298  0.00  0.00    +0.000 NA
ATOM      3  C   UNL     1       3.272   7.038  17.831  0.00  0.00    +0.000 A 
ATOM      4  N   UNL     1       3.849   8.089  17.227  0.00  0.00    +0.000 NA
ATOM      5  O   UNL     1       2.891   9.094  17.326  0.00  0.00    +0.000 OA
ENDROOT
BRANCH   3   6
ATOM      6  C   UNL     1       3.961   5.703  18.002  0.00  0.00    +0.000 C 
ATOM      7  C   UNL     1       5.379   5.808  18.624  0.00  0.00    +0.000 C 
ATOM      8  C   UNL     1       6.126   4.551  18.173  0.00  0.00    +0.000 C 
ATOM      9  C   UNL     1       5.400   4.048  16.931  0.00  0.00    +0.000 C 
ATOM     10  C   UNL     1       4.342   5.106  16.628  0.00  0.00    +0.000 C 
BRANCH   6  11
ATOM     11  C   UNL     1       3.014   4.893  18.908  0.00  0.00    +0.000 A 
ATOM     12  C   UNL     1       3.145   4.969  20.317  0.00  0.00    +0.000 A 
ATOM     13  C   UNL     1       2.311   4.242  21.172  0.00  0.00    +0.000 A 
ATOM     14  C   UNL     1       1.339   3.412  20.637  0.00  0.00    +0.000 A 
ATOM     15  F   UNL     1       0.546   2.709  21.454  0.00  0.00    +0.000 F 
ATOM     16  C   UNL     1       1.178   3.306  19.268  0.00  0.00    +0.000 A 
ATOM     17  C   UNL     1       2.001   4.047  18.420  0.00  0.00    +0.000 A 
ATOM     18  F   UNL     1       1.789   3.901  17.108  0.00  0.00    +0.000 F 
ENDBRANCH   6  11
ENDBRANCH   3   6
BRANCH   1  19
ATOM     19  C   UNL     1       0.704   9.474  18.304  0.00  0.00    +0.000 C 
BRANCH  19  26
ATOM     20  C   UNL     1       1.312  12.651  18.746  0.00  0.00    +0.000 C 
ATOM     21  C   UNL     1       1.136  11.597  19.774  0.00  0.00    +0.000 A 
ATOM     22  N   UNL     1       1.186  11.916  21.072  0.00  0.00    +0.000 NA
ATOM     23  O   UNL     1       0.965  10.741  21.758  0.00  0.00    +0.000 OA
ATOM     24  C   UNL     1       0.783   9.725  20.876  0.00  0.00    +0.000 A 
ATOM     25  C   UNL     1       0.511   8.400  21.467  0.00  0.00    +0.000 C 
ATOM     26  C   UNL     1       0.883  10.208  19.586  0.00  0.00    +0.000 A 
ENDBRANCH  19  26
ENDBRANCH   1  19
TORSDOF 4
ENDMDL
MODEL 6
REMARK VINA RESULT:      -7.8      2.180      4.021
REMARK  Name = 
REMARK  6 active torsions:
REMARK  status: ('A' for Active; 'I' for Inactive)
REMARK    1  A    between atoms: C_1  and  C_2
REMARK    2  A    between atoms: C_5  and  C_6
REMARK    3  A    between atoms: C_7  and  C_8
REMARK    4  A    between atoms: C_8  and  C_9
REMARK    5  A    between atoms: C_11  and  C_12
REMARK    6  A    between atoms: C_12  and  C_13
REMARK                            x       y       z     vdW  Elec       q    Type
REMARK                         _______ _______ _______ _____ _____    ______ ____
ROOT
ATOM      1  C   UNL     1       1.731   8.585  17.971  0.00  0.00    +0.000 A 
ATOM      2  N   UNL     1       1.954   7.343  18.352  0.00  0.00    +0.000 NA
ATOM      3  C   UNL     1       3.203   7.093  17.821  0.00  0.00    +0.000 A 
ATOM      4  N   UNL     1       3.720   8.120  17.128  0.00  0.00    +0.000 NA
ATOM      5  O   UNL     1       2.748   9.112  17.232  0.00  0.00    +0.000 OA
ENDROOT
BRANCH   3   6
ATOM      6  C   UNL     1       3.930   5.782  18.019  0.00  0.00    +0.000 C 
ATOM      7  C   UNL     1       5.332   5.937  18.666  0.00  0.00    +0.000 C 
ATOM      8  C   UNL     1       6.126   4.700  18.243  0.00  0.00    +0.000 C 
ATOM      9  C   UNL     1       5.440   4.162  16.992  0.00  0.00    +0.000 C 
ATOM     10  C   UNL     1       4.356   5.183  16.659  0.00  0.00    +0.000 C 
BRANCH   6  11
ATOM     11  C   UNL     1       2.991   4.952  18.914  0.00  0.00    +0.000 A 
ATOM     12  C   UNL     1       3.137   4.994  20.323  0.00  0.00    +0.000 A 
ATOM     13  C   UNL     1       2.311   4.248  21.170  0.00  0.00    +0.000 A 
ATOM     14  C   UNL     1       1.332   3.432  20.626  0.00  0.00    +0.000 A 
ATOM     15  F   UNL     1       0.547   2.710  21.433  0.00  0.00    +0.000 F 
ATOM     16  C   UNL     1       1.157   3.358  19.256  0.00  0.00    +0.000 A 
ATOM     17  C   UNL     1       1.972   4.119  18.418  0.00  0.00    +0.000 A 
ATOM     18  F   UNL     1       1.746   4.005  17.104  0.00  0.00    +0.000 F 
ENDBRANCH   6  11
ENDBRANCH   3   6
BRANCH   1  19
ATOM     19  C   UNL     1       0.617   9.503  18.323  0.00  0.00    +0.000 C 
BRANCH  19  26
ATOM     20  C   UNL     1       0.410   8.472  21.414  0.00  0.00    +0.000 C 
ATOM     21  C   UNL     1       0.763   9.823  20.918  0.00  0.00    +0.000 A 
ATOM     22  N   UNL     1       1.081  10.791  21.785  0.00  0.00    +0.000 NA
ATOM     23  O   UNL     1       1.377  11.900  21.022  0.00  0.00    +0.000 OA
ATOM     24  C   UNL     1       1.237  11.599  19.706  0.00  0.00    +0.000 A 
ATOM     25  C   UNL     1       1.545  12.688  18.759  0.00  0.00    +0.000 C 
ATOM     26  C   UNL     1       0.842  10.282  19.571  0.00  0.00    +0.000 A 
ENDBRANCH  19  26
ENDBRANCH   1  19
TORSDOF 4
ENDMDL
MODEL 7
REMARK VINA RESULT:      -7.8      1.845      3.672
REMARK  Name = 
REMARK  6 active torsions:
REMARK  status: ('A' for Active; 'I' for Inactive)
REMARK    1  A    between atoms: C_1  and  C_2
REMARK    2  A    between atoms: C_5  and  C_6
REMARK    3  A    between atoms: C_7  and  C_8
REMARK    4  A    between atoms: C_8  and  C_9
REMARK    5  A    between atoms: C_11  and  C_12
REMARK    6  A    between atoms: C_12  and  C_13
REMARK                            x       y       z     vdW  Elec       q    Type
REMARK                         _______ _______ _______ _____ _____    ______ ____
ROOT
ATOM      1  C   UNL     1       1.980   8.848  18.443  0.00  0.00    +0.000 A 
ATOM      2  N   UNL     1       2.687   7.889  17.879  0.00  0.00    +0.000 NA
ATOM      3  C   UNL     1       2.745   6.939  18.878  0.00  0.00    +0.000 A 
ATOM      4  N   UNL     1       2.123   7.298  20.013  0.00  0.00    +0.000 NA
ATOM      5  O   UNL     1       1.610   8.560  19.724  0.00  0.00    +0.000 OA
ENDROOT
BRANCH   3   6
ATOM      6  C   UNL     1       3.433   5.605  18.701  0.00  0.00    +0.000 C 
ATOM      7  C   UNL     1       4.939   5.624  19.077  0.00  0.00    +0.000 C 
ATOM      8  C   UNL     1       5.578   4.472  18.299  0.00  0.00    +0.000 C 
ATOM      9  C   UNL     1       4.640   4.174  17.135  0.00  0.00    +0.000 C 
ATOM     10  C   UNL     1       3.562   5.252  17.202  0.00  0.00    +0.000 C 
BRANCH   6  11
ATOM     11  C   UNL     1       2.646   4.640  19.608  0.00  0.00    +0.000 A 
ATOM     12  C   UNL     1       3.077   4.409  20.938  0.00  0.00    +0.000 A 
ATOM     13  C   UNL     1       2.394   3.534  21.790  0.00  0.00    +0.000 A 
ATOM     14  C   UNL     1       1.277   2.860  21.325  0.00  0.00    +0.000 A 
ATOM     15  F   UNL     1       0.628   2.016  22.134  0.00  0.00    +0.000 F 
ATOM     16  C   UNL     1       0.823   3.054  20.032  0.00  0.00    +0.000 A 
ATOM     17  C   UNL     1       1.497   3.942  19.194  0.00  0.00    +0.000 A 
ATOM     18  F   UNL     1       1.003   4.086  17.960  0.00  0.00    +0.000 F 
ENDBRANCH   6  11
ENDBRANCH   3   6
BRANCH   1  19
ATOM     19  C   UNL     1       1.444  10.105  17.862  0.00  0.00    +0.000 C 
BRANCH  19  26
ATOM     20  C   UNL     1       1.318  11.971  20.538  0.00  0.00    +0.000 C 
ATOM     21  C   UNL     1       0.193  11.459  19.721  0.00  0.00    +0.000 A 
ATOM     22  N   UNL     1      -1.065  11.786  20.038  0.00  0.00    +0.000 NA
ATOM     23  O   UNL     1      -1.863  11.183  19.090  0.00  0.00    +0.000 OA
ATOM     24  C   UNL     1      -1.088  10.499  18.209  0.00  0.00    +0.000 A 
ATOM     25  C   UNL     1      -1.804   9.816  17.115  0.00  0.00    +0.000 C 
ATOM     26  C   UNL     1       0.241  10.634  18.560  0.00  0.00    +0.000 A 
ENDBRANCH  19  26
ENDBRANCH   1  19
TORSDOF 4
ENDMDL
MODEL 8
REMARK VINA RESULT:      -7.7      1.396      1.759
REMARK  Name = 
REMARK  6 active torsions:
REMARK  status: ('A' for Active; 'I' for Inactive)
REMARK    1  A    between atoms: C_1  and  C_2
REMARK    2  A    between atoms: C_5  and  C_6
REMARK    3  A    between atoms: C_7  and  C_8
REMARK    4  A    between atoms: C_8  and  C_9
REMARK    5  A    between atoms: C_11  and  C_12
REMARK    6  A    between atoms: C_12  and  C_13
REMARK                            x       y       z     vdW  Elec       q    Type
REMARK                         _______ _______ _______ _____ _____    ______ ____
ROOT
ATOM      1  C   UNL     1       1.600   8.692  18.076  0.00  0.00    +0.000 A 
ATOM      2  N   UNL     1       1.312   7.434  18.341  0.00  0.00    +0.000 NA
ATOM      3  C   UNL     1       2.528   6.808  18.158  0.00  0.00    +0.000 A 
ATOM      4  N   UNL     1       3.517   7.633  17.779  0.00  0.00    +0.000 NA
ATOM      5  O   UNL     1       2.905   8.883  17.730  0.00  0.00    +0.000 OA
ENDROOT
BRANCH   3   6
ATOM      6  C   UNL     1       2.729   5.327  18.384  0.00  0.00    +0.000 C 
ATOM      7  C   UNL     1       1.655   4.439  17.700  0.00  0.00    +0.000 C 
ATOM      8  C   UNL     1       1.633   3.129  18.489  0.00  0.00    +0.000 C 
ATOM      9  C   UNL     1       2.228   3.446  19.856  0.00  0.00    +0.000 C 
ATOM     10  C   UNL     1       2.448   4.956  19.858  0.00  0.00    +0.000 C 
BRANCH   6  11
ATOM     11  C   UNL     1       4.133   5.038  17.818  0.00  0.00    +0.000 A 
ATOM     12  C   UNL     1       4.278   4.580  16.485  0.00  0.00    +0.000 A 
ATOM     13  C   UNL     1       5.534   4.298  15.938  0.00  0.00    +0.000 A 
ATOM     14  C   UNL     1       6.669   4.452  16.717  0.00  0.00    +0.000 A 
ATOM     15  F   UNL     1       7.871   4.173  16.199  0.00  0.00    +0.000 F 
ATOM     16  C   UNL     1       6.573   4.893  18.025  0.00  0.00    +0.000 A 
ATOM     17  C   UNL     1       5.319   5.190  18.558  0.00  0.00    +0.000 A 
ATOM     18  F   UNL     1       5.299   5.617  19.826  0.00  0.00    +0.000 F 
ENDBRANCH   6  11
ENDBRANCH   3   6
BRANCH   1  19
ATOM     19  C   UNL     1       0.762   9.911  18.212  0.00  0.00    +0.000 C 
BRANCH  19  26
ATOM     20  C   UNL     1       2.010  12.888  18.705  0.00  0.00    +0.000 C 
ATOM     21  C   UNL     1       1.477  11.937  19.709  0.00  0.00    +0.000 A 
ATOM     22  N   UNL     1       1.439  12.283  21.001  0.00  0.00    +0.000 NA
ATOM     23  O   UNL     1       0.877  11.212  21.662  0.00  0.00    +0.000 OA
ATOM     24  C   UNL     1       0.581  10.230  20.772  0.00  0.00    +0.000 A 
ATOM     25  C   UNL     1      -0.052   9.021  21.333  0.00  0.00    +0.000 C 
ATOM     26  C   UNL     1       0.944  10.633  19.501  0.00  0.00    +0.000 A 
ENDBRANCH  19  26
ENDBRANCH   1  19
TORSDOF 4
ENDMDL
MODEL 9
REMARK VINA RESULT:      -7.7      1.883      4.001
REMARK  Name = 
REMARK  6 active torsions:
REMARK  status: ('A' for Active; 'I' for Inactive)
REMARK    1  A    between atoms: C_1  and  C_2
REMARK    2  A    between atoms: C_5  and  C_6
REMARK    3  A    between atoms: C_7  and  C_8
REMARK    4  A    between atoms: C_8  and  C_9
REMARK    5  A    between atoms: C_11  and  C_12
REMARK    6  A    between atoms: C_12  and  C_13
REMARK                            x       y       z     vdW  Elec       q    Type
REMARK                         _______ _______ _______ _____ _____    ______ ____
ROOT
ATOM      1  C   UNL     1       2.020   8.882  18.423  0.00  0.00    +0.000 A 
ATOM      2  N   UNL     1       2.741   7.925  17.872  0.00  0.00    +0.000 NA
ATOM      3  C   UNL     1       2.756   6.962  18.861  0.00  0.00    +0.000 A 
ATOM      4  N   UNL     1       2.096   7.312  19.977  0.00  0.00    +0.000 NA
ATOM      5  O   UNL     1       1.602   8.581  19.685  0.00  0.00    +0.000 OA
ENDROOT
BRANCH   3   6
ATOM      6  C   UNL     1       3.441   5.625  18.692  0.00  0.00    +0.000 C 
ATOM      7  C   UNL     1       4.946   5.642  19.074  0.00  0.00    +0.000 C 
ATOM      8  C   UNL     1       5.585   4.485  18.304  0.00  0.00    +0.000 C 
ATOM      9  C   UNL     1       4.651   4.185  17.137  0.00  0.00    +0.000 C 
ATOM     10  C   UNL     1       3.575   5.266  17.195  0.00  0.00    +0.000 C 
BRANCH   6  11
ATOM     11  C   UNL     1       2.647   4.667  19.600  0.00  0.00    +0.000 A 
ATOM     12  C   UNL     1       3.065   4.448  20.936  0.00  0.00    +0.000 A 
ATOM     13  C   UNL     1       2.376   3.580  21.789  0.00  0.00    +0.000 A 
ATOM     14  C   UNL     1       1.265   2.899  21.318  0.00  0.00    +0.000 A 
ATOM     15  F   UNL     1       0.610   2.059  22.129  0.00  0.00    +0.000 F 
ATOM     16  C   UNL     1       0.824   3.080  20.020  0.00  0.00    +0.000 A 
ATOM     17  C   UNL     1       1.505   3.962  19.181  0.00  0.00    +0.000 A 
ATOM     18  F   UNL     1       1.022   4.094  17.940  0.00  0.00    +0.000 F 
ENDBRANCH   6  11
ENDBRANCH   3   6
BRANCH   1  19
ATOM     19  C   UNL     1       1.514  10.150  17.838  0.00  0.00    +0.000 C 
BRANCH  19  26
ATOM     20  C   UNL     1      -1.664   9.779  17.189  0.00  0.00    +0.000 C 
ATOM     21  C   UNL     1      -1.034  10.557  18.282  0.00  0.00    +0.000 A 
ATOM     22  N   UNL     1      -1.799  11.190  19.178  0.00  0.00    +0.000 NA
ATOM     23  O   UNL     1      -0.929  11.790  20.062  0.00  0.00    +0.000 OA
ATOM     24  C   UNL     1       0.351  11.517  19.698  0.00  0.00    +0.000 A 
ATOM     25  C   UNL     1       1.402  12.077  20.570  0.00  0.00    +0.000 C 
ATOM     26  C   UNL     1       0.352  10.732  18.562  0.00  0.00    +0.000 A 
ENDBRANCH  19  26
ENDBRANCH   1  19
TORSDOF 4
ENDMDL
