MODEL 1
REMARK VINA RESULT:      -9.4      0.000      0.000
REMARK  Name = 
REMARK  5 active torsions:
REMARK  status: ('A' for Active; 'I' for Inactive)
REMARK    1  A    between atoms: C_2  and  C_3
REMARK    2  A    between atoms: C_3  and  N_4
REMARK    3  A    between atoms: C_5  and  C_7
REMARK    4  A    between atoms: N_17  and  C_18
REMARK    5  A    between atoms: C_22  and  N_23
REMARK                            x       y       z     vdW  Elec       q    Type
REMARK                         _______ _______ _______ _____ _____    ______ ____
ROOT
ATOM      1  O   UNL     1       8.606   7.763  19.018  0.00  0.00    +0.000 OA
ATOM      2  C   UNL     1       8.218   8.332  18.000  0.00  0.00    +0.000 C 
ATOM      3  N   UNL     1       8.265   9.700  17.760  0.00  0.00    +0.000 N 
ATOM      4  H   UNL     1       7.645  10.045  17.030  0.00  0.00    +0.000 HD
ENDROOT
BRANCH   3   5
ATOM      5  C   UNL     1       8.968  10.659  18.528  0.00  0.00    +0.000 A 
ATOM      6  C   UNL     1       9.293  10.458  19.870  0.00  0.00    +0.000 A 
ATOM      7  C   UNL     1       9.981  11.434  20.585  0.00  0.00    +0.000 A 
ATOM      8  C   UNL     1      10.379  12.612  19.956  0.00  0.00    +0.000 A 
ATOM      9  C   UNL     1      10.117  12.832  18.601  0.00  0.00    +0.000 A 
ATOM     10  C   UNL     1       9.394  11.844  17.900  0.00  0.00    +0.000 A 
BRANCH   9  11
ATOM     11  N   UNL     1      10.606  13.996  17.946  0.00  0.00    +0.000 N 
ATOM     12  C   UNL     1      11.901  14.055  17.313  0.00  0.00    +0.000 C 
ATOM     13  C   UNL     1      12.206  15.537  17.234  0.00  0.00    +0.000 C 
ATOM     14  C   UNL     1      10.839  16.174  17.077  0.00  0.00    +0.000 C 
ATOM     15  C   UNL     1       9.926  15.217  17.805  0.00  0.00    +0.000 C 
ATOM     16  O   UNL     1       8.791  15.522  18.133  0.00  0.00    +0.000 OA
ENDBRANCH   9  11
ENDBRANCH   3   5
BRANCH   2  17
ATOM     17  C   UNL     1       7.533   7.535  16.890  0.00  0.00    +0.000 C 
BRANCH  17  18
ATOM     18  N   UNL     1       6.383   6.805  17.386  0.00  0.00    +0.000 N 
ATOM     19  C   UNL     1       5.618   6.045  16.533  0.00  0.00    +0.000 C 
ATOM     20  O   UNL     1       5.847   5.988  15.326  0.00  0.00    +0.000 OA
ATOM     21  H   UNL     1       6.175   6.864  18.374  0.00  0.00    +0.000 HD
BRANCH  19  22
ATOM     22  C   UNL     1       4.505   5.260  17.130  0.00  0.00    +0.000 A 
ATOM     23  C   UNL     1       4.077   4.043  16.592  0.00  0.00    +0.000 A 
ATOM     24  C   UNL     1       3.053   3.326  17.218  0.00  0.00    +0.000 A 
ATOM     25  C   UNL     1       2.444   3.808  18.388  0.00  0.00    +0.000 A 
ATOM     26  C   UNL     1       1.429   3.087  19.037  0.00  0.00    +0.000 A 
ATOM     27  C   UNL     1       0.838   3.577  20.204  0.00  0.00    +0.000 A 
ATOM     28  C   UNL     1       1.251   4.796  20.733  0.00  0.00    +0.000 A 
ATOM     29  C   UNL     1       2.259   5.526  20.102  0.00  0.00    +0.000 A 
ATOM     30  C   UNL     1       2.869   5.043  18.932  0.00  0.00    +0.000 A 
ATOM     31  C   UNL     1       3.900   5.754  18.295  0.00  0.00    +0.000 A 
ENDBRANCH  19  22
ENDBRANCH  17  18
ENDBRANCH   2  17
TORSDOF 5
ENDMDL
MODEL 2
REMARK VINA RESULT:      -9.2      1.265      1.352
REMARK  Name = 
REMARK  5 active torsions:
REMARK  status: ('A' for Active; 'I' for Inactive)
REMARK    1  A    between atoms: C_2  and  C_3
REMARK    2  A    between atoms: C_3  and  N_4
REMARK    3  A    between atoms: C_5  and  C_7
REMARK    4  A    between atoms: N_17  and  C_18
REMARK    5  A    between atoms: C_22  and  N_23
REMARK                            x       y       z     vdW  Elec       q    Type
REMARK                         _______ _______ _______ _____ _____    ______ ____
ROOT
ATOM      1  O   UNL     1       7.468   9.578  17.727  0.00  0.00    +0.000 OA
ATOM      2  C   UNL     1       8.298   8.917  18.346  0.00  0.00    +0.000 C 
ATOM      3  N   UNL     1       9.310   9.422  19.154  0.00  0.00    +0.000 N 
ATOM      4  H   UNL     1      10.084   8.790  19.345  0.00  0.00    +0.000 HD
ENDROOT
BRANCH   3   5
ATOM      5  C   UNL     1       9.434  10.761  19.598  0.00  0.00    +0.000 A 
ATOM      6  C   UNL     1       9.130  11.152  20.902  0.00  0.00    +0.000 A 
ATOM      7  C   UNL     1       9.264  12.482  21.290  0.00  0.00    +0.000 A 
ATOM      8  C   UNL     1       9.731  13.432  20.384  0.00  0.00    +0.000 A 
ATOM      9  C   UNL     1      10.092  13.073  19.083  0.00  0.00    +0.000 A 
ATOM     10  C   UNL     1       9.924  11.725  18.700  0.00  0.00    +0.000 A 
BRANCH   9  11
ATOM     11  N   UNL     1      10.654  14.031  18.194  0.00  0.00    +0.000 N 
ATOM     12  C   UNL     1      11.999  13.934  17.682  0.00  0.00    +0.000 C 
ATOM     13  C   UNL     1      12.333  15.346  17.250  0.00  0.00    +0.000 C 
ATOM     14  C   UNL     1      10.995  15.912  16.816  0.00  0.00    +0.000 C 
ATOM     15  C   UNL     1      10.008  15.169  17.684  0.00  0.00    +0.000 C 
ATOM     16  O   UNL     1       8.854  15.541  17.822  0.00  0.00    +0.000 OA
ENDBRANCH   9  11
ENDBRANCH   3   5
BRANCH   2  17
ATOM     17  C   UNL     1       8.333   7.396  18.194  0.00  0.00    +0.000 C 
BRANCH  17  18
ATOM     18  N   UNL     1       7.001   6.838  18.070  0.00  0.00    +0.000 N 
ATOM     19  C   UNL     1       6.771   5.511  18.346  0.00  0.00    +0.000 C 
ATOM     20  O   UNL     1       7.679   4.743  18.660  0.00  0.00    +0.000 OA
ATOM     21  H   UNL     1       6.253   7.458  17.791  0.00  0.00    +0.000 HD
BRANCH  19  22
ATOM     22  C   UNL     1       5.365   5.032  18.277  0.00  0.00    +0.000 A 
ATOM     23  C   UNL     1       4.784   4.592  17.084  0.00  0.00    +0.000 A 
ATOM     24  C   UNL     1       3.470   4.112  17.085  0.00  0.00    +0.000 A 
ATOM     25  C   UNL     1       2.720   4.063  18.271  0.00  0.00    +0.000 A 
ATOM     26  C   UNL     1       1.407   3.564  18.288  0.00  0.00    +0.000 A 
ATOM     27  C   UNL     1       0.677   3.515  19.477  0.00  0.00    +0.000 A 
ATOM     28  C   UNL     1       1.246   3.969  20.662  0.00  0.00    +0.000 A 
ATOM     29  C   UNL     1       2.551   4.466  20.665  0.00  0.00    +0.000 A 
ATOM     30  C   UNL     1       3.302   4.515  19.478  0.00  0.00    +0.000 A 
ATOM     31  C   UNL     1       4.623   4.993  19.466  0.00  0.00    +0.000 A 
ENDBRANCH  19  22
ENDBRANCH  17  18
ENDBRANCH   2  17
TORSDOF 5
ENDMDL
MODEL 3
REMARK VINA RESULT:      -9.2      2.314      3.078
REMARK  Name = 
REMARK  5 active torsions:
REMARK  status: ('A' for Active; 'I' for Inactive)
REMARK    1  A    between atoms: C_2  and  C_3
REMARK    2  A    between atoms: C_3  and  N_4
REMARK    3  A    between atoms: C_5  and  C_7
REMARK    4  A    between atoms: N_17  and  C_18
REMARK    5  A    between atoms: C_22  and  N_23
REMARK                            x       y       z     vdW  Elec       q    Type
REMARK                         _______ _______ _______ _____ _____    ______ ____
ROOT
ATOM      1  O   UNL     1       8.658   7.754  19.035  0.00  0.00    +0.000 OA
ATOM      2  C   UNL     1       8.266   8.489  18.131  0.00  0.00    +0.000 C 
ATOM      3  N   UNL     1       8.456   9.863  18.052  0.00  0.00    +0.000 N 
ATOM      4  H   UNL     1       7.829  10.365  17.427  0.00  0.00    +0.000 HD
ENDROOT
BRANCH   3   5
ATOM      5  C   UNL     1       9.325  10.633  18.863  0.00  0.00    +0.000 A 
ATOM      6  C   UNL     1      10.674  10.816  18.558  0.00  0.00    +0.000 A 
ATOM      7  C   UNL     1      11.489  11.579  19.389  0.00  0.00    +0.000 A 
ATOM      8  C   UNL     1      10.957  12.192  20.521  0.00  0.00    +0.000 A 
ATOM      9  C   UNL     1       9.600  12.074  20.836  0.00  0.00    +0.000 A 
ATOM     10  C   UNL     1       8.795  11.275  19.997  0.00  0.00    +0.000 A 
BRANCH   9  11
ATOM     11  N   UNL     1       9.046  12.778  21.942  0.00  0.00    +0.000 N 
ATOM     12  C   UNL     1       9.008  14.218  22.016  0.00  0.00    +0.000 C 
ATOM     13  C   UNL     1       8.849  14.507  23.495  0.00  0.00    +0.000 C 
ATOM     14  C   UNL     1       8.047  13.325  24.004  0.00  0.00    +0.000 C 
ATOM     15  C   UNL     1       8.460  12.204  23.082  0.00  0.00    +0.000 C 
ATOM     16  O   UNL     1       8.238  11.033  23.341  0.00  0.00    +0.000 OA
ENDBRANCH   9  11
ENDBRANCH   3   5
BRANCH   2  17
ATOM     17  C   UNL     1       7.409   7.920  16.999  0.00  0.00    +0.000 C 
BRANCH  17  18
ATOM     18  N   UNL     1       6.396   7.012  17.499  0.00  0.00    +0.000 N 
ATOM     19  C   UNL     1       5.459   6.475  16.648  0.00  0.00    +0.000 C 
ATOM     20  O   UNL     1       5.414   6.773  15.455  0.00  0.00    +0.000 OA
ATOM     21  H   UNL     1       6.412   6.779  18.482  0.00  0.00    +0.000 HD
BRANCH  19  22
ATOM     22  C   UNL     1       4.504   5.488  17.218  0.00  0.00    +0.000 A 
ATOM     23  C   UNL     1       4.395   4.184  16.724  0.00  0.00    +0.000 A 
ATOM     24  C   UNL     1       3.510   3.284  17.325  0.00  0.00    +0.000 A 
ATOM     25  C   UNL     1       2.725   3.668  18.425  0.00  0.00    +0.000 A 
ATOM     26  C   UNL     1       1.848   2.766  19.050  0.00  0.00    +0.000 A 
ATOM     27  C   UNL     1       1.079   3.161  20.146  0.00  0.00    +0.000 A 
ATOM     28  C   UNL     1       1.173   4.462  20.629  0.00  0.00    +0.000 A 
ATOM     29  C   UNL     1       2.041   5.372  20.021  0.00  0.00    +0.000 A 
ATOM     30  C   UNL     1       2.827   4.988  18.922  0.00  0.00    +0.000 A 
ATOM     31  C   UNL     1       3.720   5.883  18.311  0.00  0.00    +0.000 A 
ENDBRANCH  19  22
ENDBRANCH  17  18
ENDBRANCH   2  17
TORSDOF 5
ENDMDL
MODEL 4
REMARK VINA RESULT:      -9.1      1.169      1.671
REMARK  Name = 
REMARK  5 active torsions:
REMARK  status: ('A' for Active; 'I' for Inactive)
REMARK    1  A    between atoms: C_2  and  C_3
REMARK    2  A    between atoms: C_3  and  N_4
REMARK    3  A    between atoms: C_5  and  C_7
REMARK    4  A    between atoms: N_17  and  C_18
REMARK    5  A    between atoms: C_22  and  N_23
REMARK                            x       y       z     vdW  Elec       q    Type
REMARK                         _______ _______ _______ _____ _____    ______ ____
ROOT
ATOM      1  O   UNL     1       7.438   9.710  17.591  0.00  0.00    +0.000 OA
ATOM      2  C   UNL     1       8.239   8.982  18.174  0.00  0.00    +0.000 C 
ATOM      3  N   UNL     1       9.270   9.401  19.005  0.00  0.00    +0.000 N 
ATOM      4  H   UNL     1      10.017   8.727  19.161  0.00  0.00    +0.000 HD
ENDROOT
BRANCH   3   5
ATOM      5  C   UNL     1       9.451  10.708  19.518  0.00  0.00    +0.000 A 
ATOM      6  C   UNL     1       9.228  11.028  20.857  0.00  0.00    +0.000 A 
ATOM      7  C   UNL     1       9.415  12.329  21.314  0.00  0.00    +0.000 A 
ATOM      8  C   UNL     1       9.857  13.321  20.440  0.00  0.00    +0.000 A 
ATOM      9  C   UNL     1      10.138  13.032  19.102  0.00  0.00    +0.000 A 
ATOM     10  C   UNL     1       9.916  11.713  18.651  0.00  0.00    +0.000 A 
BRANCH   9  11
ATOM     11  N   UNL     1      10.675  14.029  18.240  0.00  0.00    +0.000 N 
ATOM     12  C   UNL     1      11.985  13.930  17.645  0.00  0.00    +0.000 C 
ATOM     13  C   UNL     1      12.333  15.358  17.279  0.00  0.00    +0.000 C 
ATOM     14  C   UNL     1      10.988  15.981  16.959  0.00  0.00    +0.000 C 
ATOM     15  C   UNL     1      10.033  15.212  17.838  0.00  0.00    +0.000 C 
ATOM     16  O   UNL     1       8.900  15.602  18.066  0.00  0.00    +0.000 OA
ENDBRANCH   9  11
ENDBRANCH   3   5
BRANCH   2  17
ATOM     17  C   UNL     1       8.209   7.471  17.942  0.00  0.00    +0.000 C 
BRANCH  17  18
ATOM     18  N   UNL     1       6.904   6.910  18.233  0.00  0.00    +0.000 N 
ATOM     19  C   UNL     1       6.070   6.519  17.212  0.00  0.00    +0.000 C 
ATOM     20  O   UNL     1       6.371   6.667  16.029  0.00  0.00    +0.000 OA
ATOM     21  H   UNL     1       6.639   6.805  19.202  0.00  0.00    +0.000 HD
BRANCH  19  22
ATOM     22  C   UNL     1       4.783   5.876  17.591  0.00  0.00    +0.000 A 
ATOM     23  C   UNL     1       3.615   6.613  17.808  0.00  0.00    +0.000 A 
ATOM     24  C   UNL     1       2.423   5.953  18.120  0.00  0.00    +0.000 A 
ATOM     25  C   UNL     1       2.376   4.553  18.218  0.00  0.00    +0.000 A 
ATOM     26  C   UNL     1       1.180   3.878  18.511  0.00  0.00    +0.000 A 
ATOM     27  C   UNL     1       1.149   2.485  18.598  0.00  0.00    +0.000 A 
ATOM     28  C   UNL     1       2.313   1.749  18.400  0.00  0.00    +0.000 A 
ATOM     29  C   UNL     1       3.511   2.404  18.106  0.00  0.00    +0.000 A 
ATOM     30  C   UNL     1       3.557   3.804  18.007  0.00  0.00    +0.000 A 
ATOM     31  C   UNL     1       4.749   4.478  17.692  0.00  0.00    +0.000 A 
ENDBRANCH  19  22
ENDBRANCH  17  18
ENDBRANCH   2  17
TORSDOF 5
ENDMDL
MODEL 5
REMARK VINA RESULT:      -9.1      1.914     11.010
REMARK  Name = 
REMARK  5 active torsions:
REMARK  status: ('A' for Active; 'I' for Inactive)
REMARK    1  A    between atoms: C_2  and  C_3
REMARK    2  A    between atoms: C_3  and  N_4
REMARK    3  A    between atoms: C_5  and  C_7
REMARK    4  A    between atoms: N_17  and  C_18
REMARK    5  A    between atoms: C_22  and  N_23
REMARK                            x       y       z     vdW  Elec       q    Type
REMARK                         _______ _______ _______ _____ _____    ______ ____
ROOT
ATOM      1  O   UNL     1       7.152   8.570  17.033  0.00  0.00    +0.000 OA
ATOM      2  C   UNL     1       7.750   7.934  17.897  0.00  0.00    +0.000 C 
ATOM      3  N   UNL     1       7.554   6.595  18.211  0.00  0.00    +0.000 N 
ATOM      4  H   UNL     1       7.888   6.298  19.125  0.00  0.00    +0.000 HD
ENDROOT
BRANCH   3   5
ATOM      5  C   UNL     1       6.807   5.660  17.452  0.00  0.00    +0.000 A 
ATOM      6  C   UNL     1       7.269   5.129  16.248  0.00  0.00    +0.000 A 
ATOM      7  C   UNL     1       6.496   4.217  15.535  0.00  0.00    +0.000 A 
ATOM      8  C   UNL     1       5.263   3.802  16.036  0.00  0.00    +0.000 A 
ATOM      9  C   UNL     1       4.786   4.273  17.262  0.00  0.00    +0.000 A 
ATOM     10  C   UNL     1       5.571   5.218  17.956  0.00  0.00    +0.000 A 
BRANCH   9  11
ATOM     11  N   UNL     1       3.570   3.776  17.809  0.00  0.00    +0.000 N 
ATOM     12  C   UNL     1       3.387   2.398  18.192  0.00  0.00    +0.000 C 
ATOM     13  C   UNL     1       1.883   2.214  18.204  0.00  0.00    +0.000 C 
ATOM     14  C   UNL     1       1.361   3.580  18.606  0.00  0.00    +0.000 C 
ATOM     15  C   UNL     1       2.408   4.523  18.065  0.00  0.00    +0.000 C 
ATOM     16  O   UNL     1       2.209   5.721  17.950  0.00  0.00    +0.000 OA
ENDBRANCH   9  11
ENDBRANCH   3   5
BRANCH   2  17
ATOM     17  C   UNL     1       8.757   8.638  18.808  0.00  0.00    +0.000 C 
BRANCH  17  18
ATOM     18  N   UNL     1       9.139   9.933  18.283  0.00  0.00    +0.000 N 
ATOM     19  C   UNL     1       9.513  10.948  19.132  0.00  0.00    +0.000 C 
ATOM     20  O   UNL     1       9.495  10.816  20.354  0.00  0.00    +0.000 OA
ATOM     21  H   UNL     1       9.135  10.058  17.280  0.00  0.00    +0.000 HD
BRANCH  19  22
ATOM     22  C   UNL     1       9.971  12.222  18.515  0.00  0.00    +0.000 A 
ATOM     23  C   UNL     1      10.953  12.258  17.521  0.00  0.00    +0.000 A 
ATOM     24  C   UNL     1      11.316  13.480  16.945  0.00  0.00    +0.000 A 
ATOM     25  C   UNL     1      10.707  14.679  17.350  0.00  0.00    +0.000 A 
ATOM     26  C   UNL     1      11.049  15.909  16.765  0.00  0.00    +0.000 A 
ATOM     27  C   UNL     1      10.429  17.091  17.174  0.00  0.00    +0.000 A 
ATOM     28  C   UNL     1       9.463  17.060  18.175  0.00  0.00    +0.000 A 
ATOM     29  C   UNL     1       9.110  15.846  18.767  0.00  0.00    +0.000 A 
ATOM     30  C   UNL     1       9.719  14.647  18.361  0.00  0.00    +0.000 A 
ATOM     31  C   UNL     1       9.360  13.413  18.931  0.00  0.00    +0.000 A 
ENDBRANCH  19  22
ENDBRANCH  17  18
ENDBRANCH   2  17
TORSDOF 5
ENDMDL
MODEL 6
REMARK VINA RESULT:      -9.1      7.306     10.872
REMARK  Name = 
REMARK  5 active torsions:
REMARK  status: ('A' for Active; 'I' for Inactive)
REMARK    1  A    between atoms: C_2  and  C_3
REMARK    2  A    between atoms: C_3  and  N_4
REMARK    3  A    between atoms: C_5  and  C_7
REMARK    4  A    between atoms: N_17  and  C_18
REMARK    5  A    between atoms: C_22  and  N_23
REMARK                            x       y       z     vdW  Elec       q    Type
REMARK                         _______ _______ _______ _____ _____    ______ ____
ROOT
ATOM      1  O   UNL     1      -0.499  11.835  19.552  0.00  0.00    +0.000 OA
ATOM      2  C   UNL     1      -0.074  10.994  18.764  0.00  0.00    +0.000 C 
ATOM      3  N   UNL     1      -0.813  10.344  17.783  0.00  0.00    +0.000 N 
ATOM      4  H   UNL     1      -0.415   9.478  17.426  0.00  0.00    +0.000 HD
ENDROOT
BRANCH   3   5
ATOM      5  C   UNL     1      -2.117  10.689  17.354  0.00  0.00    +0.000 A 
ATOM      6  C   UNL     1      -2.516  10.611  16.019  0.00  0.00    +0.000 A 
ATOM      7  C   UNL     1      -3.809  10.966  15.645  0.00  0.00    +0.000 A 
ATOM      8  C   UNL     1      -4.728  11.376  16.609  0.00  0.00    +0.000 A 
ATOM      9  C   UNL     1      -4.384  11.421  17.963  0.00  0.00    +0.000 A 
ATOM     10  C   UNL     1      -3.061  11.084  18.319  0.00  0.00    +0.000 A 
BRANCH   9  11
ATOM     11  N   UNL     1      -5.355  11.753  18.949  0.00  0.00    +0.000 N 
ATOM     12  C   UNL     1      -5.293  12.958  19.737  0.00  0.00    +0.000 C 
ATOM     13  C   UNL     1      -6.153  12.654  20.946  0.00  0.00    +0.000 C 
ATOM     14  C   UNL     1      -7.207  11.708  20.405  0.00  0.00    +0.000 C 
ATOM     15  C   UNL     1      -6.488  10.994  19.286  0.00  0.00    +0.000 C 
ATOM     16  O   UNL     1      -6.917   9.967  18.787  0.00  0.00    +0.000 OA
ENDBRANCH   9  11
ENDBRANCH   3   5
BRANCH   2  17
ATOM     17  C   UNL     1       1.371  10.506  18.871  0.00  0.00    +0.000 C 
BRANCH  17  18
ATOM     18  N   UNL     1       1.438   9.100  19.213  0.00  0.00    +0.000 N 
ATOM     19  C   UNL     1       2.139   8.221  18.421  0.00  0.00    +0.000 C 
ATOM     20  O   UNL     1       2.692   8.577  17.382  0.00  0.00    +0.000 OA
ATOM     21  H   UNL     1       0.968   8.794  20.055  0.00  0.00    +0.000 HD
BRANCH  19  22
ATOM     22  C   UNL     1       2.232   6.810  18.882  0.00  0.00    +0.000 A 
ATOM     23  C   UNL     1       2.142   6.458  20.232  0.00  0.00    +0.000 A 
ATOM     24  C   UNL     1       2.194   5.111  20.605  0.00  0.00    +0.000 A 
ATOM     25  C   UNL     1       2.332   4.099  19.641  0.00  0.00    +0.000 A 
ATOM     26  C   UNL     1       2.364   2.742  20.003  0.00  0.00    +0.000 A 
ATOM     27  C   UNL     1       2.496   1.747  19.032  0.00  0.00    +0.000 A 
ATOM     28  C   UNL     1       2.602   2.095  17.689  0.00  0.00    +0.000 A 
ATOM     29  C   UNL     1       2.570   3.439  17.312  0.00  0.00    +0.000 A 
ATOM     30  C   UNL     1       2.431   4.452  18.275  0.00  0.00    +0.000 A 
ATOM     31  C   UNL     1       2.376   5.808  17.912  0.00  0.00    +0.000 A 
ENDBRANCH  19  22
ENDBRANCH  17  18
ENDBRANCH   2  17
TORSDOF 5
ENDMDL
MODEL 7
REMARK VINA RESULT:      -9.0      1.085      1.363
REMARK  Name = 
REMARK  5 active torsions:
REMARK  status: ('A' for Active; 'I' for Inactive)
REMARK    1  A    between atoms: C_2  and  C_3
REMARK    2  A    between atoms: C_3  and  N_4
REMARK    3  A    between atoms: C_5  and  C_7
REMARK    4  A    between atoms: N_17  and  C_18
REMARK    5  A    between atoms: C_22  and  N_23
REMARK                            x       y       z     vdW  Elec       q    Type
REMARK                         _______ _______ _______ _____ _____    ______ ____
ROOT
ATOM      1  O   UNL     1       8.652   7.790  18.985  0.00  0.00    +0.000 OA
ATOM      2  C   UNL     1       8.214   8.361  17.989  0.00  0.00    +0.000 C 
ATOM      3  N   UNL     1       8.256   9.728  17.745  0.00  0.00    +0.000 N 
ATOM      4  H   UNL     1       7.600  10.076  17.048  0.00  0.00    +0.000 HD
ENDROOT
BRANCH   3   5
ATOM      5  C   UNL     1       9.004  10.684  18.473  0.00  0.00    +0.000 A 
ATOM      6  C   UNL     1       9.503  10.434  19.752  0.00  0.00    +0.000 A 
ATOM      7  C   UNL     1      10.230  11.408  20.430  0.00  0.00    +0.000 A 
ATOM      8  C   UNL     1      10.491  12.635  19.825  0.00  0.00    +0.000 A 
ATOM      9  C   UNL     1      10.052  12.908  18.526  0.00  0.00    +0.000 A 
ATOM     10  C   UNL     1       9.294  11.919  17.865  0.00  0.00    +0.000 A 
BRANCH   9  11
ATOM     11  N   UNL     1      10.402  14.127  17.881  0.00  0.00    +0.000 N 
ATOM     12  C   UNL     1      11.615  14.293  17.121  0.00  0.00    +0.000 C 
ATOM     13  C   UNL     1      11.826  15.793  17.083  0.00  0.00    +0.000 C 
ATOM     14  C   UNL     1      10.416  16.351  17.102  0.00  0.00    +0.000 C 
ATOM     15  C   UNL     1       9.643  15.309  17.873  0.00  0.00    +0.000 C 
ATOM     16  O   UNL     1       8.534  15.529  18.332  0.00  0.00    +0.000 OA
ENDBRANCH   9  11
ENDBRANCH   3   5
BRANCH   2  17
ATOM     17  C   UNL     1       7.467   7.566  16.918  0.00  0.00    +0.000 C 
BRANCH  17  18
ATOM     18  N   UNL     1       6.181   7.100  17.396  0.00  0.00    +0.000 N 
ATOM     19  C   UNL     1       6.032   5.813  17.856  0.00  0.00    +0.000 C 
ATOM     20  O   UNL     1       6.957   5.003  17.840  0.00  0.00    +0.000 OA
ATOM     21  H   UNL     1       5.409   7.753  17.393  0.00  0.00    +0.000 HD
BRANCH  19  22
ATOM     22  C   UNL     1       4.704   5.433  18.408  0.00  0.00    +0.000 A 
ATOM     23  C   UNL     1       3.527   6.090  18.038  0.00  0.00    +0.000 A 
ATOM     24  C   UNL     1       2.299   5.664  18.556  0.00  0.00    +0.000 A 
ATOM     25  C   UNL     1       2.228   4.579  19.446  0.00  0.00    +0.000 A 
ATOM     26  C   UNL     1       0.999   4.130  19.956  0.00  0.00    +0.000 A 
ATOM     27  C   UNL     1       0.944   3.046  20.835  0.00  0.00    +0.000 A 
ATOM     28  C   UNL     1       2.116   2.401  21.218  0.00  0.00    +0.000 A 
ATOM     29  C   UNL     1       3.347   2.834  20.719  0.00  0.00    +0.000 A 
ATOM     30  C   UNL     1       3.418   3.918  19.829  0.00  0.00    +0.000 A 
ATOM     31  C   UNL     1       4.645   4.353  19.301  0.00  0.00    +0.000 A 
ENDBRANCH  19  22
ENDBRANCH  17  18
ENDBRANCH   2  17
TORSDOF 5
ENDMDL
MODEL 8
REMARK VINA RESULT:      -8.9      2.028      2.920
REMARK  Name = 
REMARK  5 active torsions:
REMARK  status: ('A' for Active; 'I' for Inactive)
REMARK    1  A    between atoms: C_2  and  C_3
REMARK    2  A    between atoms: C_3  and  N_4
REMARK    3  A    between atoms: C_5  and  C_7
REMARK    4  A    between atoms: N_17  and  C_18
REMARK    5  A    between atoms: C_22  and  N_23
REMARK                            x       y       z     vdW  Elec       q    Type
REMARK                         _______ _______ _______ _____ _____    ______ ____
ROOT
ATOM      1  O   UNL     1       7.746   8.424  17.279  0.00  0.00    +0.000 OA
ATOM      2  C   UNL     1       8.279   8.082  18.333  0.00  0.00    +0.000 C 
ATOM      3  N   UNL     1       9.048   8.891  19.161  0.00  0.00    +0.000 N 
ATOM      4  H   UNL     1       9.660   8.406  19.813  0.00  0.00    +0.000 HD
ENDROOT
BRANCH   3   5
ATOM      5  C   UNL     1       9.170  10.299  19.073  0.00  0.00    +0.000 A 
ATOM      6  C   UNL     1       9.288  10.970  17.855  0.00  0.00    +0.000 A 
ATOM      7  C   UNL     1       9.411  12.356  17.821  0.00  0.00    +0.000 A 
ATOM      8  C   UNL     1       9.387  13.090  19.005  0.00  0.00    +0.000 A 
ATOM      9  C   UNL     1       9.222  12.462  20.242  0.00  0.00    +0.000 A 
ATOM     10  C   UNL     1       9.127  11.054  20.259  0.00  0.00    +0.000 A 
BRANCH   9  11
ATOM     11  N   UNL     1       9.107  13.226  21.436  0.00  0.00    +0.000 N 
ATOM     12  C   UNL     1       8.192  12.890  22.499  0.00  0.00    +0.000 C 
ATOM     13  C   UNL     1       8.026  14.185  23.266  0.00  0.00    +0.000 C 
ATOM     14  C   UNL     1       9.368  14.871  23.103  0.00  0.00    +0.000 C 
ATOM     15  C   UNL     1       9.849  14.374  21.762  0.00  0.00    +0.000 C 
ATOM     16  O   UNL     1      10.764  14.910  21.158  0.00  0.00    +0.000 OA
ENDBRANCH   9  11
ENDBRANCH   3   5
BRANCH   2  17
ATOM     17  C   UNL     1       8.202   6.627  18.794  0.00  0.00    +0.000 C 
BRANCH  17  18
ATOM     18  N   UNL     1       6.846   6.119  18.739  0.00  0.00    +0.000 N 
ATOM     19  C   UNL     1       6.550   4.994  18.006  0.00  0.00    +0.000 C 
ATOM     20  O   UNL     1       7.402   4.406  17.340  0.00  0.00    +0.000 OA
ATOM     21  H   UNL     1       6.135   6.608  19.266  0.00  0.00    +0.000 HD
BRANCH  19  22
ATOM     22  C   UNL     1       5.154   4.486  18.066  0.00  0.00    +0.000 A 
ATOM     23  C   UNL     1       4.528   3.892  16.966  0.00  0.00    +0.000 A 
ATOM     24  C   UNL     1       3.227   3.393  17.090  0.00  0.00    +0.000 A 
ATOM     25  C   UNL     1       2.535   3.477  18.309  0.00  0.00    +0.000 A 
ATOM     26  C   UNL     1       1.236   2.962  18.451  0.00  0.00    +0.000 A 
ATOM     27  C   UNL     1       0.563   3.047  19.672  0.00  0.00    +0.000 A 
ATOM     28  C   UNL     1       1.178   3.652  20.764  0.00  0.00    +0.000 A 
ATOM     29  C   UNL     1       2.469   4.169  20.641  0.00  0.00    +0.000 A 
ATOM     30  C   UNL     1       3.162   4.084  19.422  0.00  0.00    +0.000 A 
ATOM     31  C   UNL     1       4.469   4.580  19.286  0.00  0.00    +0.000 A 
ENDBRANCH  19  22
ENDBRANCH  17  18
ENDBRANCH   2  17
TORSDOF 5
ENDMDL
MODEL 9
REMARK VINA RESULT:      -8.9      2.207      3.081
REMARK  Name = 
REMARK  5 active torsions:
REMARK  status: ('A' for Active; 'I' for Inactive)
REMARK    1  A    between atoms: C_2  and  C_3
REMARK    2  A    between atoms: C_3  and  N_4
REMARK    3  A    between atoms: C_5  and  C_7
REMARK    4  A    between atoms: N_17  and  C_18
REMARK    5  A    between atoms: C_22  and  N_23
REMARK                            x       y       z     vdW  Elec       q    Type
REMARK                         _______ _______ _______ _____ _____    ______ ____
ROOT
ATOM      1  O   UNL     1       7.606   8.573  17.360  0.00  0.00    +0.000 OA
ATOM      2  C   UNL     1       8.246   8.174  18.331  0.00  0.00    +0.000 C 
ATOM      3  N   UNL     1       9.112   8.933  19.109  0.00  0.00    +0.000 N 
ATOM      4  H   UNL     1       9.784   8.410  19.665  0.00  0.00    +0.000 HD
ENDROOT
BRANCH   3   5
ATOM      5  C   UNL     1       9.243  10.343  19.079  0.00  0.00    +0.000 A 
ATOM      6  C   UNL     1       9.500  11.049  17.904  0.00  0.00    +0.000 A 
ATOM      7  C   UNL     1       9.626  12.435  17.925  0.00  0.00    +0.000 A 
ATOM      8  C   UNL     1       9.467  13.134  19.121  0.00  0.00    +0.000 A 
ATOM      9  C   UNL     1       9.161  12.468  20.311  0.00  0.00    +0.000 A 
ATOM     10  C   UNL     1       9.065  11.061  20.274  0.00  0.00    +0.000 A 
BRANCH   9  11
ATOM     11  N   UNL     1       8.911  13.197  21.508  0.00  0.00    +0.000 N 
ATOM     12  C   UNL     1       9.420  14.526  21.739  0.00  0.00    +0.000 C 
ATOM     13  C   UNL     1       9.377  14.681  23.245  0.00  0.00    +0.000 C 
ATOM     14  C   UNL     1       8.186  13.838  23.656  0.00  0.00    +0.000 C 
ATOM     15  C   UNL     1       8.147  12.758  22.602  0.00  0.00    +0.000 C 
ATOM     16  O   UNL     1       7.498  11.735  22.742  0.00  0.00    +0.000 OA
ENDBRANCH   9  11
ENDBRANCH   3   5
BRANCH   2  17
ATOM     17  C   UNL     1       8.199   6.697  18.724  0.00  0.00    +0.000 C 
BRANCH  17  18
ATOM     18  N   UNL     1       6.848   6.174  18.682  0.00  0.00    +0.000 N 
ATOM     19  C   UNL     1       6.567   5.022  17.986  0.00  0.00    +0.000 C 
ATOM     20  O   UNL     1       7.426   4.422  17.343  0.00  0.00    +0.000 OA
ATOM     21  H   UNL     1       6.130   6.674  19.189  0.00  0.00    +0.000 HD
BRANCH  19  22
ATOM     22  C   UNL     1       5.175   4.503  18.057  0.00  0.00    +0.000 A 
ATOM     23  C   UNL     1       4.554   3.878  16.972  0.00  0.00    +0.000 A 
ATOM     24  C   UNL     1       3.259   3.370  17.108  0.00  0.00    +0.000 A 
ATOM     25  C   UNL     1       2.565   3.476  18.325  0.00  0.00    +0.000 A 
ATOM     26  C   UNL     1       1.272   2.952  18.480  0.00  0.00    +0.000 A 
ATOM     27  C   UNL     1       0.598   3.059  19.698  0.00  0.00    +0.000 A 
ATOM     28  C   UNL     1       1.207   3.696  20.775  0.00  0.00    +0.000 A 
ATOM     29  C   UNL     1       2.493   4.222  20.640  0.00  0.00    +0.000 A 
ATOM     30  C   UNL     1       3.187   4.115  19.423  0.00  0.00    +0.000 A 
ATOM     31  C   UNL     1       4.490   4.619  19.275  0.00  0.00    +0.000 A 
ENDBRANCH  19  22
ENDBRANCH  17  18
ENDBRANCH   2  17
TORSDOF 5
ENDMDL
