MODEL 1
REMARK VINA RESULT:      -8.4      0.000      0.000
REMARK  Name = 
REMARK  6 active torsions:
REMARK  status: ('A' for Active; 'I' for Inactive)
REMARK    1  A    between atoms: C_1  and  N_2
REMARK    2  A    between atoms: C_6  and  N_7
REMARK    3  A    between atoms: N_7  and  C_8
REMARK    4  A    between atoms: N_7  and  C_9
REMARK    5  A    between atoms: C_13  and  N_14
REMARK    6  A    between atoms: C_22  and  C_23
REMARK                            x       y       z     vdW  Elec       q    Type
REMARK                         _______ _______ _______ _____ _____    ______ ____
ROOT
ATOM      1  N   UNL     1       3.864   5.065  19.532  0.00  0.00    +0.000 N 
ATOM      2  C   UNL     1       5.230   5.591  19.444  0.00  0.00    +0.000 C 
ATOM      3  C   UNL     1       5.633   5.256  18.037  0.00  0.00    +0.000 A 
ATOM      4  C   UNL     1       4.828   4.197  17.604  0.00  0.00    +0.000 A 
ATOM      5  C   UNL     1       4.791   3.762  16.295  0.00  0.00    +0.000 A 
ATOM      6  C   UNL     1       5.634   4.411  15.404  0.00  0.00    +0.000 A 
ATOM      7  F   UNL     1       5.601   4.080  14.106  0.00  0.00    +0.000 F 
ATOM      8  C   UNL     1       6.482   5.452  15.818  0.00  0.00    +0.000 A 
ATOM      9  C   UNL     1       6.497   5.896  17.155  0.00  0.00    +0.000 A 
ATOM     10  C   UNL     1       3.848   3.921  18.670  0.00  0.00    +0.000 C 
ATOM     11  O   UNL     1       3.073   2.978  18.644  0.00  0.00    +0.000 OA
ENDROOT
BRANCH   1  16
ATOM     12  C   UNL     1       1.743   8.000  20.050  0.00  0.00    +0.000 A 
ATOM     13  C   UNL     1       2.091   8.589  18.817  0.00  0.00    +0.000 A 
ATOM     14  C   UNL     1       2.559   7.845  17.726  0.00  0.00    +0.000 A 
ATOM     15  C   UNL     1       2.851   6.504  17.875  0.00  0.00    +0.000 A 
ATOM     16  C   UNL     1       2.768   5.951  19.151  0.00  0.00    +0.000 A 
ATOM     17  C   UNL     1       2.038   6.633  20.153  0.00  0.00    +0.000 A 
BRANCH  12  18
ATOM     18  N   UNL     1       1.211   8.753  21.113  0.00  0.00    +0.000 N 
ATOM     19  C   UNL     1       2.088   8.953  22.266  0.00  0.00    +0.000 C 
BRANCH  18  25
ATOM     20  C   UNL     1      -0.546  10.697  19.365  0.00  0.00    +0.000 C 
ATOM     21  N   UNL     1      -0.806  10.329  20.740  0.00  0.00    +0.000 NA
ATOM     22  C   UNL     1      -0.354  11.327  21.704  0.00  0.00    +0.000 C 
ATOM     23  C   UNL     1      -0.655  10.636  23.027  0.00  0.00    +0.000 C 
ATOM     24  C   UNL     1      -0.786   9.155  22.653  0.00  0.00    +0.000 C 
ATOM     25  C   UNL     1      -0.242   9.056  21.210  0.00  0.00    +0.000 C 
ENDBRANCH  18  25
ENDBRANCH  12  18
ENDBRANCH   1  16
BRANCH   9  26
ATOM     26  C   UNL     1       7.360   7.066  17.542  0.00  0.00    +0.000 C 
ATOM     27  F   UNL     1       6.654   8.179  17.877  0.00  0.00    +0.000 F 
ATOM     28  F   UNL     1       8.154   6.791  18.608  0.00  0.00    +0.000 F 
ATOM     29  F   UNL     1       8.194   7.445  16.535  0.00  0.00    +0.000 F 
ENDBRANCH   9  26
TORSDOF 4
ENDMDL
MODEL 2
REMARK VINA RESULT:      -8.3      6.291      8.903
REMARK  Name = 
REMARK  6 active torsions:
REMARK  status: ('A' for Active; 'I' for Inactive)
REMARK    1  A    between atoms: C_1  and  N_2
REMARK    2  A    between atoms: C_6  and  N_7
REMARK    3  A    between atoms: N_7  and  C_8
REMARK    4  A    between atoms: N_7  and  C_9
REMARK    5  A    between atoms: C_13  and  N_14
REMARK    6  A    between atoms: C_22  and  C_23
REMARK                            x       y       z     vdW  Elec       q    Type
REMARK                         _______ _______ _______ _____ _____    ______ ____
ROOT
ATOM      1  N   UNL     1      -0.461  10.773  18.263  0.00  0.00    +0.000 N 
ATOM      2  C   UNL     1       0.226  10.103  19.372  0.00  0.00    +0.000 C 
ATOM      3  C   UNL     1      -0.195  10.908  20.568  0.00  0.00    +0.000 A 
ATOM      4  C   UNL     1      -0.586  12.172  20.115  0.00  0.00    +0.000 A 
ATOM      5  C   UNL     1      -1.214  13.101  20.918  0.00  0.00    +0.000 A 
ATOM      6  C   UNL     1      -1.418  12.738  22.242  0.00  0.00    +0.000 A 
ATOM      7  F   UNL     1      -2.078  13.569  23.059  0.00  0.00    +0.000 F 
ATOM      8  C   UNL     1      -1.000  11.490  22.735  0.00  0.00    +0.000 A 
ATOM      9  C   UNL     1      -0.374  10.545  21.899  0.00  0.00    +0.000 A 
ATOM     10  C   UNL     1      -0.524  12.154  18.642  0.00  0.00    +0.000 C 
ATOM     11  O   UNL     1      -0.700  13.143  17.948  0.00  0.00    +0.000 OA
ENDROOT
BRANCH   1  16
ATOM     12  C   UNL     1      -4.076  11.274  18.009  0.00  0.00    +0.000 A 
ATOM     13  C   UNL     1      -4.106  11.053  16.617  0.00  0.00    +0.000 A 
ATOM     14  C   UNL     1      -3.128  10.309  15.945  0.00  0.00    +0.000 A 
ATOM     15  C   UNL     1      -1.993   9.893  16.613  0.00  0.00    +0.000 A 
ATOM     16  C   UNL     1      -1.808  10.321  17.925  0.00  0.00    +0.000 A 
ATOM     17  C   UNL     1      -2.916  10.819  18.652  0.00  0.00    +0.000 A 
BRANCH  12  18
ATOM     18  N   UNL     1      -5.103  11.966  18.678  0.00  0.00    +0.000 N 
ATOM     19  C   UNL     1      -4.690  12.811  19.798  0.00  0.00    +0.000 C 
BRANCH  18  25
ATOM     20  C   UNL     1      -7.663  13.735  19.166  0.00  0.00    +0.000 C 
ATOM     21  N   UNL     1      -7.608  12.291  19.235  0.00  0.00    +0.000 NA
ATOM     22  C   UNL     1      -7.492  11.778  20.596  0.00  0.00    +0.000 C 
ATOM     23  C   UNL     1      -7.351  10.282  20.352  0.00  0.00    +0.000 C 
ATOM     24  C   UNL     1      -6.921  10.183  18.885  0.00  0.00    +0.000 C 
ATOM     25  C   UNL     1      -6.537  11.624  18.480  0.00  0.00    +0.000 C 
ENDBRANCH  18  25
ENDBRANCH  12  18
ENDBRANCH   1  16
BRANCH   9  26
ATOM     26  C   UNL     1      -0.015   9.190  22.444  0.00  0.00    +0.000 C 
ATOM     27  F   UNL     1      -0.791   8.183  21.962  0.00  0.00    +0.000 F 
ATOM     28  F   UNL     1       1.268   8.843  22.161  0.00  0.00    +0.000 F 
ATOM     29  F   UNL     1      -0.132   9.133  23.799  0.00  0.00    +0.000 F 
ENDBRANCH   9  26
TORSDOF 4
ENDMDL
MODEL 3
REMARK VINA RESULT:      -8.2      4.407      8.207
REMARK  Name = 
REMARK  6 active torsions:
REMARK  status: ('A' for Active; 'I' for Inactive)
REMARK    1  A    between atoms: C_1  and  N_2
REMARK    2  A    between atoms: C_6  and  N_7
REMARK    3  A    between atoms: N_7  and  C_8
REMARK    4  A    between atoms: N_7  and  C_9
REMARK    5  A    between atoms: C_13  and  N_14
REMARK    6  A    between atoms: C_22  and  C_23
REMARK                            x       y       z     vdW  Elec       q    Type
REMARK                         _______ _______ _______ _____ _____    ______ ____
ROOT
ATOM      1  N   UNL     1       0.065   9.256  20.604  0.00  0.00    +0.000 N 
ATOM      2  C   UNL     1      -1.109   9.352  19.729  0.00  0.00    +0.000 C 
ATOM      3  C   UNL     1      -1.065  10.777  19.258  0.00  0.00    +0.000 A 
ATOM      4  C   UNL     1      -0.316  11.510  20.184  0.00  0.00    +0.000 A 
ATOM      5  C   UNL     1       0.091  12.810  19.966  0.00  0.00    +0.000 A 
ATOM      6  C   UNL     1      -0.311  13.392  18.773  0.00  0.00    +0.000 A 
ATOM      7  F   UNL     1       0.103  14.630  18.471  0.00  0.00    +0.000 F 
ATOM      8  C   UNL     1      -1.097  12.694  17.841  0.00  0.00    +0.000 A 
ATOM      9  C   UNL     1      -1.493  11.361  18.070  0.00  0.00    +0.000 A 
ATOM     10  C   UNL     1       0.208  10.560  21.181  0.00  0.00    +0.000 C 
ATOM     11  O   UNL     1       0.811  10.902  22.187  0.00  0.00    +0.000 OA
ENDROOT
BRANCH   1  16
ATOM     12  C   UNL     1       2.403   6.777  19.273  0.00  0.00    +0.000 A 
ATOM     13  C   UNL     1       2.446   7.364  17.992  0.00  0.00    +0.000 A 
ATOM     14  C   UNL     1       2.150   8.714  17.765  0.00  0.00    +0.000 A 
ATOM     15  C   UNL     1       1.640   9.493  18.786  0.00  0.00    +0.000 A 
ATOM     16  C   UNL     1       1.337   8.875  19.996  0.00  0.00    +0.000 A 
ATOM     17  C   UNL     1       1.898   7.608  20.283  0.00  0.00    +0.000 A 
BRANCH  12  18
ATOM     18  N   UNL     1       2.770   5.437  19.493  0.00  0.00    +0.000 N 
ATOM     19  C   UNL     1       4.204   5.148  19.475  0.00  0.00    +0.000 C 
BRANCH  18  25
ATOM     20  C   UNL     1       2.358   3.004  21.451  0.00  0.00    +0.000 C 
ATOM     21  N   UNL     1       2.031   3.020  20.042  0.00  0.00    +0.000 NA
ATOM     22  C   UNL     1       3.047   2.393  19.203  0.00  0.00    +0.000 C 
ATOM     23  C   UNL     1       2.495   2.648  17.807  0.00  0.00    +0.000 C 
ATOM     24  C   UNL     1       1.498   3.796  18.005  0.00  0.00    +0.000 C 
ATOM     25  C   UNL     1       1.777   4.330  19.427  0.00  0.00    +0.000 C 
ENDBRANCH  18  25
ENDBRANCH  12  18
ENDBRANCH   1  16
BRANCH   9  26
ATOM     26  C   UNL     1      -2.265  10.621  17.013  0.00  0.00    +0.000 C 
ATOM     27  F   UNL     1      -3.504  10.230  17.413  0.00  0.00    +0.000 F 
ATOM     28  F   UNL     1      -2.450  11.365  15.892  0.00  0.00    +0.000 F 
ATOM     29  F   UNL     1      -1.628   9.486  16.612  0.00  0.00    +0.000 F 
ENDBRANCH   9  26
TORSDOF 4
ENDMDL
MODEL 4
REMARK VINA RESULT:      -8.0      1.852      2.959
REMARK  Name = 
REMARK  6 active torsions:
REMARK  status: ('A' for Active; 'I' for Inactive)
REMARK    1  A    between atoms: C_1  and  N_2
REMARK    2  A    between atoms: C_6  and  N_7
REMARK    3  A    between atoms: N_7  and  C_8
REMARK    4  A    between atoms: N_7  and  C_9
REMARK    5  A    between atoms: C_13  and  N_14
REMARK    6  A    between atoms: C_22  and  C_23
REMARK                            x       y       z     vdW  Elec       q    Type
REMARK                         _______ _______ _______ _____ _____    ______ ____
ROOT
ATOM      1  N   UNL     1       3.223   6.415  19.931  0.00  0.00    +0.000 N 
ATOM      2  C   UNL     1       4.490   5.972  19.339  0.00  0.00    +0.000 C 
ATOM      3  C   UNL     1       4.127   4.658  18.708  0.00  0.00    +0.000 A 
ATOM      4  C   UNL     1       2.981   4.178  19.349  0.00  0.00    +0.000 A 
ATOM      5  C   UNL     1       2.260   3.093  18.896  0.00  0.00    +0.000 A 
ATOM      6  C   UNL     1       2.749   2.455  17.765  0.00  0.00    +0.000 A 
ATOM      7  F   UNL     1       2.062   1.433  17.237  0.00  0.00    +0.000 F 
ATOM      8  C   UNL     1       3.919   2.890  17.122  0.00  0.00    +0.000 A 
ATOM      9  C   UNL     1       4.637   4.010  17.587  0.00  0.00    +0.000 A 
ATOM     10  C   UNL     1       2.544   5.210  20.307  0.00  0.00    +0.000 C 
ATOM     11  O   UNL     1       1.633   5.048  21.104  0.00  0.00    +0.000 OA
ENDROOT
BRANCH   1  16
ATOM     12  C   UNL     1       1.106   9.338  19.337  0.00  0.00    +0.000 A 
ATOM     13  C   UNL     1       1.847   9.767  18.217  0.00  0.00    +0.000 A 
ATOM     14  C   UNL     1       2.628   8.898  17.446  0.00  0.00    +0.000 A 
ATOM     15  C   UNL     1       2.831   7.596  17.859  0.00  0.00    +0.000 A 
ATOM     16  C   UNL     1       2.327   7.215  19.100  0.00  0.00    +0.000 A 
ATOM     17  C   UNL     1       1.325   8.005  19.712  0.00  0.00    +0.000 A 
BRANCH  12  18
ATOM     18  N   UNL     1       0.273  10.212  20.060  0.00  0.00    +0.000 N 
ATOM     19  C   UNL     1      -0.983  10.592  19.412  0.00  0.00    +0.000 C 
BRANCH  18  25
ATOM     20  C   UNL     1       0.333   9.328  23.083  0.00  0.00    +0.000 C 
ATOM     21  N   UNL     1       0.247  10.690  22.602  0.00  0.00    +0.000 NA
ATOM     22  C   UNL     1      -1.112  11.222  22.607  0.00  0.00    +0.000 C 
ATOM     23  C   UNL     1      -0.909  12.590  21.968  0.00  0.00    +0.000 C 
ATOM     24  C   UNL     1       0.437  12.468  21.246  0.00  0.00    +0.000 C 
ATOM     25  C   UNL     1       0.761  10.957  21.251  0.00  0.00    +0.000 C 
ENDBRANCH  18  25
ENDBRANCH  12  18
ENDBRANCH   1  16
BRANCH   9  26
ATOM     26  C   UNL     1       5.839   4.494  16.824  0.00  0.00    +0.000 C 
ATOM     27  F   UNL     1       6.188   3.690  15.785  0.00  0.00    +0.000 F 
ATOM     28  F   UNL     1       5.651   5.731  16.295  0.00  0.00    +0.000 F 
ATOM     29  F   UNL     1       6.946   4.584  17.612  0.00  0.00    +0.000 F 
ENDBRANCH   9  26
TORSDOF 4
ENDMDL
MODEL 5
REMARK VINA RESULT:      -8.0      6.275      8.919
REMARK  Name = 
REMARK  6 active torsions:
REMARK  status: ('A' for Active; 'I' for Inactive)
REMARK    1  A    between atoms: C_1  and  N_2
REMARK    2  A    between atoms: C_6  and  N_7
REMARK    3  A    between atoms: N_7  and  C_8
REMARK    4  A    between atoms: N_7  and  C_9
REMARK    5  A    between atoms: C_13  and  N_14
REMARK    6  A    between atoms: C_22  and  C_23
REMARK                            x       y       z     vdW  Elec       q    Type
REMARK                         _______ _______ _______ _____ _____    ______ ____
ROOT
ATOM      1  N   UNL     1      -0.465  10.752  18.247  0.00  0.00    +0.000 N 
ATOM      2  C   UNL     1       0.217  10.073  19.354  0.00  0.00    +0.000 C 
ATOM      3  C   UNL     1      -0.151  10.911  20.544  0.00  0.00    +0.000 A 
ATOM      4  C   UNL     1      -0.505  12.181  20.078  0.00  0.00    +0.000 A 
ATOM      5  C   UNL     1      -1.084  13.145  20.879  0.00  0.00    +0.000 A 
ATOM      6  C   UNL     1      -1.276  12.809  22.211  0.00  0.00    +0.000 A 
ATOM      7  F   UNL     1      -1.890  13.676  23.027  0.00  0.00    +0.000 F 
ATOM      8  C   UNL     1      -0.895  11.555  22.716  0.00  0.00    +0.000 A 
ATOM      9  C   UNL     1      -0.319  10.575  21.884  0.00  0.00    +0.000 A 
ATOM     10  C   UNL     1      -0.471  12.139  18.606  0.00  0.00    +0.000 C 
ATOM     11  O   UNL     1      -0.623  13.123  17.899  0.00  0.00    +0.000 OA
ENDROOT
BRANCH   1  16
ATOM     12  C   UNL     1      -4.075  11.340  18.155  0.00  0.00    +0.000 A 
ATOM     13  C   UNL     1      -4.162  11.184  16.756  0.00  0.00    +0.000 A 
ATOM     14  C   UNL     1      -3.227  10.452  16.014  0.00  0.00    +0.000 A 
ATOM     15  C   UNL     1      -2.077   9.982  16.619  0.00  0.00    +0.000 A 
ATOM     16  C   UNL     1      -1.834  10.344  17.941  0.00  0.00    +0.000 A 
ATOM     17  C   UNL     1      -2.902  10.831  18.731  0.00  0.00    +0.000 A 
BRANCH  12  18
ATOM     18  N   UNL     1      -5.060  12.021  18.893  0.00  0.00    +0.000 N 
ATOM     19  C   UNL     1      -4.586  12.813  20.028  0.00  0.00    +0.000 C 
BRANCH  18  25
ATOM     20  C   UNL     1      -7.232  13.454  17.118  0.00  0.00    +0.000 C 
ATOM     21  N   UNL     1      -7.485  12.739  18.349  0.00  0.00    +0.000 NA
ATOM     22  C   UNL     1      -7.612  13.611  19.513  0.00  0.00    +0.000 C 
ATOM     23  C   UNL     1      -7.762  12.601  20.641  0.00  0.00    +0.000 C 
ATOM     24  C   UNL     1      -7.220  11.295  20.048  0.00  0.00    +0.000 C 
ATOM     25  C   UNL     1      -6.508  11.714  18.742  0.00  0.00    +0.000 C 
ENDBRANCH  18  25
ENDBRANCH  12  18
ENDBRANCH   1  16
BRANCH   9  26
ATOM     26  C   UNL     1       0.001   9.216  22.444  0.00  0.00    +0.000 C 
ATOM     27  F   UNL     1       1.251   8.779  22.138  0.00  0.00    +0.000 F 
ATOM     28  F   UNL     1      -0.087   9.182  23.799  0.00  0.00    +0.000 F 
ATOM     29  F   UNL     1      -0.850   8.258  21.985  0.00  0.00    +0.000 F 
ENDBRANCH   9  26
TORSDOF 4
ENDMDL
MODEL 6
REMARK VINA RESULT:      -8.0      6.343      8.923
REMARK  Name = 
REMARK  6 active torsions:
REMARK  status: ('A' for Active; 'I' for Inactive)
REMARK    1  A    between atoms: C_1  and  N_2
REMARK    2  A    between atoms: C_6  and  N_7
REMARK    3  A    between atoms: N_7  and  C_8
REMARK    4  A    between atoms: N_7  and  C_9
REMARK    5  A    between atoms: C_13  and  N_14
REMARK    6  A    between atoms: C_22  and  C_23
REMARK                            x       y       z     vdW  Elec       q    Type
REMARK                         _______ _______ _______ _____ _____    ______ ____
ROOT
ATOM      1  N   UNL     1      -0.496  10.814  18.274  0.00  0.00    +0.000 N 
ATOM      2  C   UNL     1       0.194  10.164  19.394  0.00  0.00    +0.000 C 
ATOM      3  C   UNL     1      -0.275  10.951  20.584  0.00  0.00    +0.000 A 
ATOM      4  C   UNL     1      -0.701  12.202  20.126  0.00  0.00    +0.000 A 
ATOM      5  C   UNL     1      -1.374  13.107  20.921  0.00  0.00    +0.000 A 
ATOM      6  C   UNL     1      -1.588  12.733  22.240  0.00  0.00    +0.000 A 
ATOM      7  F   UNL     1      -2.291  13.539  23.047  0.00  0.00    +0.000 F 
ATOM      8  C   UNL     1      -1.137  11.500  22.737  0.00  0.00    +0.000 A 
ATOM      9  C   UNL     1      -0.465  10.578  21.910  0.00  0.00    +0.000 A 
ATOM     10  C   UNL     1      -0.612  12.190  18.656  0.00  0.00    +0.000 C 
ATOM     11  O   UNL     1      -0.809  13.175  17.960  0.00  0.00    +0.000 OA
ENDROOT
BRANCH   1  16
ATOM     12  C   UNL     1      -4.095  11.248  17.790  0.00  0.00    +0.000 A 
ATOM     13  C   UNL     1      -4.052  10.898  16.425  0.00  0.00    +0.000 A 
ATOM     14  C   UNL     1      -3.035  10.106  15.877  0.00  0.00    +0.000 A 
ATOM     15  C   UNL     1      -1.934   9.766  16.638  0.00  0.00    +0.000 A 
ATOM     16  C   UNL     1      -1.821  10.317  17.912  0.00  0.00    +0.000 A 
ATOM     17  C   UNL     1      -2.968  10.868  18.530  0.00  0.00    +0.000 A 
BRANCH  12  18
ATOM     18  N   UNL     1      -5.160  11.988  18.337  0.00  0.00    +0.000 N 
ATOM     19  C   UNL     1      -5.954  12.774  17.392  0.00  0.00    +0.000 C 
BRANCH  18  25
ATOM     20  C   UNL     1      -7.229  10.783  20.384  0.00  0.00    +0.000 C 
ATOM     21  N   UNL     1      -6.561  12.060  20.510  0.00  0.00    +0.000 NA
ATOM     22  C   UNL     1      -7.381  13.190  20.082  0.00  0.00    +0.000 C 
ATOM     23  C   UNL     1      -6.406  14.350  20.224  0.00  0.00    +0.000 C 
ATOM     24  C   UNL     1      -5.028  13.679  20.247  0.00  0.00    +0.000 C 
ATOM     25  C   UNL     1      -5.284  12.221  19.801  0.00  0.00    +0.000 C 
ENDBRANCH  18  25
ENDBRANCH  12  18
ENDBRANCH   1  16
BRANCH   9  26
ATOM     26  C   UNL     1      -0.069   9.235  22.459  0.00  0.00    +0.000 C 
ATOM     27  F   UNL     1      -0.819   8.206  21.980  0.00  0.00    +0.000 F 
ATOM     28  F   UNL     1       1.222   8.921  22.176  0.00  0.00    +0.000 F 
ATOM     29  F   UNL     1      -0.184   9.179  23.814  0.00  0.00    +0.000 F 
ENDBRANCH   9  26
TORSDOF 4
ENDMDL
MODEL 7
REMARK VINA RESULT:      -7.9      0.737      1.082
REMARK  Name = 
REMARK  6 active torsions:
REMARK  status: ('A' for Active; 'I' for Inactive)
REMARK    1  A    between atoms: C_1  and  N_2
REMARK    2  A    between atoms: C_6  and  N_7
REMARK    3  A    between atoms: N_7  and  C_8
REMARK    4  A    between atoms: N_7  and  C_9
REMARK    5  A    between atoms: C_13  and  N_14
REMARK    6  A    between atoms: C_22  and  C_23
REMARK                            x       y       z     vdW  Elec       q    Type
REMARK                         _______ _______ _______ _____ _____    ______ ____
ROOT
ATOM      1  N   UNL     1       3.793   5.309  19.568  0.00  0.00    +0.000 N 
ATOM      2  C   UNL     1       5.166   5.820  19.491  0.00  0.00    +0.000 C 
ATOM      3  C   UNL     1       5.631   5.341  18.146  0.00  0.00    +0.000 A 
ATOM      4  C   UNL     1       4.838   4.247  17.785  0.00  0.00    +0.000 A 
ATOM      5  C   UNL     1       4.860   3.681  16.527  0.00  0.00    +0.000 A 
ATOM      6  C   UNL     1       5.748   4.233  15.616  0.00  0.00    +0.000 A 
ATOM      7  F   UNL     1       5.774   3.772  14.358  0.00  0.00    +0.000 F 
ATOM      8  C   UNL     1       6.584   5.308  15.961  0.00  0.00    +0.000 A 
ATOM      9  C   UNL     1       6.541   5.885  17.246  0.00  0.00    +0.000 A 
ATOM     10  C   UNL     1       3.808   4.084  18.826  0.00  0.00    +0.000 C 
ATOM     11  O   UNL     1       3.027   3.145  18.860  0.00  0.00    +0.000 OA
ENDROOT
BRANCH   1  16
ATOM     12  C   UNL     1       1.697   8.306  19.663  0.00  0.00    +0.000 A 
ATOM     13  C   UNL     1       2.096   8.743  18.384  0.00  0.00    +0.000 A 
ATOM     14  C   UNL     1       2.589   7.873  17.404  0.00  0.00    +0.000 A 
ATOM     15  C   UNL     1       2.858   6.555  17.719  0.00  0.00    +0.000 A 
ATOM     16  C   UNL     1       2.723   6.156  19.046  0.00  0.00    +0.000 A 
ATOM     17  C   UNL     1       1.969   6.958  19.935  0.00  0.00    +0.000 A 
BRANCH  12  18
ATOM     18  N   UNL     1       1.140   9.184  20.612  0.00  0.00    +0.000 N 
ATOM     19  C   UNL     1       1.449   8.903  22.014  0.00  0.00    +0.000 C 
BRANCH  18  25
ATOM     20  C   UNL     1       1.267  11.791  18.848  0.00  0.00    +0.000 C 
ATOM     21  N   UNL     1       0.329  11.541  19.921  0.00  0.00    +0.000 NA
ATOM     22  C   UNL     1       0.708  12.169  21.183  0.00  0.00    +0.000 C 
ATOM     23  C   UNL     1      -0.377  11.657  22.120  0.00  0.00    +0.000 C 
ATOM     24  C   UNL     1      -0.947  10.431  21.397  0.00  0.00    +0.000 C 
ATOM     25  C   UNL     1       0.054  10.137  20.257  0.00  0.00    +0.000 C 
ENDBRANCH  18  25
ENDBRANCH  12  18
ENDBRANCH   1  16
BRANCH   9  26
ATOM     26  C   UNL     1       7.394   7.086  17.552  0.00  0.00    +0.000 C 
ATOM     27  F   UNL     1       8.202   6.922  18.633  0.00  0.00    +0.000 F 
ATOM     28  F   UNL     1       8.212   7.415  16.520  0.00  0.00    +0.000 F 
ATOM     29  F   UNL     1       6.647   8.194  17.811  0.00  0.00    +0.000 F 
ENDBRANCH   9  26
TORSDOF 4
ENDMDL
MODEL 8
REMARK VINA RESULT:      -7.9      4.220      8.058
REMARK  Name = 
REMARK  6 active torsions:
REMARK  status: ('A' for Active; 'I' for Inactive)
REMARK    1  A    between atoms: C_1  and  N_2
REMARK    2  A    between atoms: C_6  and  N_7
REMARK    3  A    between atoms: N_7  and  C_8
REMARK    4  A    between atoms: N_7  and  C_9
REMARK    5  A    between atoms: C_13  and  N_14
REMARK    6  A    between atoms: C_22  and  C_23
REMARK                            x       y       z     vdW  Elec       q    Type
REMARK                         _______ _______ _______ _____ _____    ______ ____
ROOT
ATOM      1  N   UNL     1       0.427   8.687  20.816  0.00  0.00    +0.000 N 
ATOM      2  C   UNL     1      -0.774   9.047  20.053  0.00  0.00    +0.000 C 
ATOM      3  C   UNL     1      -0.638  10.533  19.887  0.00  0.00    +0.000 A 
ATOM      4  C   UNL     1       0.208  10.999  20.898  0.00  0.00    +0.000 A 
ATOM      5  C   UNL     1       0.707  12.285  20.932  0.00  0.00    +0.000 A 
ATOM      6  C   UNL     1       0.299  13.134  19.913  0.00  0.00    +0.000 A 
ATOM      7  F   UNL     1       0.797  14.376  19.852  0.00  0.00    +0.000 F 
ATOM      8  C   UNL     1      -0.580  12.705  18.906  0.00  0.00    +0.000 A 
ATOM      9  C   UNL     1      -1.071  11.384  18.876  0.00  0.00    +0.000 A 
ATOM     10  C   UNL     1       0.698   9.826  21.642  0.00  0.00    +0.000 C 
ATOM     11  O   UNL     1       1.371   9.905  22.659  0.00  0.00    +0.000 OA
ENDROOT
BRANCH   1  16
ATOM     12  C   UNL     1       2.804   6.298  19.393  0.00  0.00    +0.000 A 
ATOM     13  C   UNL     1       2.610   6.746  18.071  0.00  0.00    +0.000 A 
ATOM     14  C   UNL     1       2.146   8.031  17.764  0.00  0.00    +0.000 A 
ATOM     15  C   UNL     1       1.703   8.867  18.771  0.00  0.00    +0.000 A 
ATOM     16  C   UNL     1       1.635   8.358  20.065  0.00  0.00    +0.000 A 
ATOM     17  C   UNL     1       2.359   7.184  20.385  0.00  0.00    +0.000 A 
BRANCH  12  18
ATOM     18  N   UNL     1       3.335   5.028  19.681  0.00  0.00    +0.000 N 
ATOM     19  C   UNL     1       4.522   4.635  18.921  0.00  0.00    +0.000 C 
BRANCH  18  25
ATOM     20  C   UNL     1       4.185   2.124  20.557  0.00  0.00    +0.000 C 
ATOM     21  N   UNL     1       2.829   2.575  20.330  0.00  0.00    +0.000 NA
ATOM     22  C   UNL     1       2.308   2.212  19.017  0.00  0.00    +0.000 C 
ATOM     23  C   UNL     1       0.946   2.893  19.026  0.00  0.00    +0.000 C 
ATOM     24  C   UNL     1       1.064   3.948  20.132  0.00  0.00    +0.000 C 
ATOM     25  C   UNL     1       2.572   4.016  20.462  0.00  0.00    +0.000 C 
ENDBRANCH  18  25
ENDBRANCH  12  18
ENDBRANCH   1  16
BRANCH   9  26
ATOM     26  C   UNL     1      -1.946  10.940  17.736  0.00  0.00    +0.000 C 
ATOM     27  F   UNL     1      -2.233  11.929  16.849  0.00  0.00    +0.000 F 
ATOM     28  F   UNL     1      -1.381   9.940  17.011  0.00  0.00    +0.000 F 
ATOM     29  F   UNL     1      -3.147  10.465  18.165  0.00  0.00    +0.000 F 
ENDBRANCH   9  26
TORSDOF 4
ENDMDL
MODEL 9
REMARK VINA RESULT:      -7.8      1.986      2.766
REMARK  Name = 
REMARK  6 active torsions:
REMARK  status: ('A' for Active; 'I' for Inactive)
REMARK    1  A    between atoms: C_1  and  N_2
REMARK    2  A    between atoms: C_6  and  N_7
REMARK    3  A    between atoms: N_7  and  C_8
REMARK    4  A    between atoms: N_7  and  C_9
REMARK    5  A    between atoms: C_13  and  N_14
REMARK    6  A    between atoms: C_22  and  C_23
REMARK                            x       y       z     vdW  Elec       q    Type
REMARK                         _______ _______ _______ _____ _____    ______ ____
ROOT
ATOM      1  N   UNL     1       3.356   6.545  19.857  0.00  0.00    +0.000 N 
ATOM      2  C   UNL     1       4.473   6.258  18.951  0.00  0.00    +0.000 C 
ATOM      3  C   UNL     1       4.084   4.944  18.338  0.00  0.00    +0.000 A 
ATOM      4  C   UNL     1       3.176   4.323  19.201  0.00  0.00    +0.000 A 
ATOM      5  C   UNL     1       2.464   3.191  18.862  0.00  0.00    +0.000 A 
ATOM      6  C   UNL     1       2.715   2.655  17.607  0.00  0.00    +0.000 A 
ATOM      7  F   UNL     1       2.012   1.594  17.191  0.00  0.00    +0.000 F 
ATOM      8  C   UNL     1       3.650   3.235  16.733  0.00  0.00    +0.000 A 
ATOM      9  C   UNL     1       4.359   4.399  17.088  0.00  0.00    +0.000 A 
ATOM     10  C   UNL     1       2.898   5.262  20.302  0.00  0.00    +0.000 C 
ATOM     11  O   UNL     1       2.226   4.974  21.281  0.00  0.00    +0.000 OA
ENDROOT
BRANCH   1  16
ATOM     12  C   UNL     1       1.082   9.410  19.824  0.00  0.00    +0.000 A 
ATOM     13  C   UNL     1       1.408   9.776  18.502  0.00  0.00    +0.000 A 
ATOM     14  C   UNL     1       1.921   8.868  17.567  0.00  0.00    +0.000 A 
ATOM     15  C   UNL     1       2.282   7.595  17.964  0.00  0.00    +0.000 A 
ATOM     16  C   UNL     1       2.218   7.286  19.320  0.00  0.00    +0.000 A 
ATOM     17  C   UNL     1       1.447   8.104  20.179  0.00  0.00    +0.000 A 
BRANCH  12  18
ATOM     18  N   UNL     1       0.504  10.319  20.729  0.00  0.00    +0.000 N 
ATOM     19  C   UNL     1       0.409   9.875  22.120  0.00  0.00    +0.000 C 
BRANCH  18  25
ATOM     20  C   UNL     1       1.587  13.061  19.619  0.00  0.00    +0.000 C 
ATOM     21  N   UNL     1       0.328  12.864  20.304  0.00  0.00    +0.000 NA
ATOM     22  C   UNL     1       0.374  13.222  21.718  0.00  0.00    +0.000 C 
ATOM     23  C   UNL     1      -1.019  12.821  22.183  0.00  0.00    +0.000 C 
ATOM     24  C   UNL     1      -1.507  11.849  21.103  0.00  0.00    +0.000 C 
ATOM     25  C   UNL     1      -0.252  11.514  20.267  0.00  0.00    +0.000 C 
ENDBRANCH  18  25
ENDBRANCH  12  18
ENDBRANCH   1  16
BRANCH   9  26
ATOM     26  C   UNL     1       5.292   5.036  16.093  0.00  0.00    +0.000 C 
ATOM     27  F   UNL     1       4.943   6.305  15.751  0.00  0.00    +0.000 F 
ATOM     28  F   UNL     1       6.567   5.109  16.556  0.00  0.00    +0.000 F 
ATOM     29  F   UNL     1       5.351   4.339  14.926  0.00  0.00    +0.000 F 
ENDBRANCH   9  26
TORSDOF 4
ENDMDL
