MODEL 1
REMARK VINA RESULT:      -9.4      0.000      0.000
REMARK  Name = 
REMARK  6 active torsions:
REMARK  status: ('A' for Active; 'I' for Inactive)
REMARK    1  A    between atoms: C_1  and  C_2
REMARK    2  A    between atoms: N_4  and  S_5
REMARK    3  A    between atoms: S_5  and  C_8
REMARK    4  A    between atoms: C_12  and  C_13
REMARK    5  A    between atoms: N_15  and  C_16
REMARK    6  A    between atoms: C_28  and  C_29
REMARK                            x       y       z     vdW  Elec       q    Type
REMARK                         _______ _______ _______ _____ _____    ______ ____
ROOT
ATOM      1  C   UNL     1       6.764   6.001  17.138  0.00  0.00    +0.000 A 
ATOM      2  C   UNL     1       7.264   5.099  18.068  0.00  0.00    +0.000 A 
ATOM      3  C   UNL     1       8.100   5.594  19.074  0.00  0.00    +0.000 A 
ATOM      4  C   UNL     1       8.438   6.964  19.129  0.00  0.00    +0.000 A 
ATOM      5  C   UNL     1       7.928   7.891  18.192  0.00  0.00    +0.000 A 
ATOM      6  C   UNL     1       7.054   7.381  17.211  0.00  0.00    +0.000 A 
ENDROOT
BRANCH   5   7
ATOM      7  C   UNL     1       8.375   9.385  18.255  0.00  0.00    +0.000 C 
ATOM      8  O   UNL     1       7.971  10.190  17.436  0.00  0.00    +0.000 OA
ATOM      9  N   UNL     1       9.276   9.685  19.281  0.00  0.00    +0.000 N 
ATOM     10  H   UNL     1       9.674   8.878  19.744  0.00  0.00    +0.000 HD
BRANCH   9  11
ATOM     11  C   UNL     1       9.999  10.882  19.580  0.00  0.00    +0.000 A 
ATOM     12  C   UNL     1       9.915  11.697  20.687  0.00  0.00    +0.000 A 
ATOM     13  N   UNL     1      10.518  12.925  20.778  0.00  0.00    +0.000 NA
ATOM     14  C   UNL     1      11.127  13.426  19.680  0.00  0.00    +0.000 A 
ATOM     15  C   UNL     1      11.431  14.783  19.602  0.00  0.00    +0.000 A 
ATOM     16  C   UNL     1      11.830  15.379  18.399  0.00  0.00    +0.000 A 
ATOM     17  C   UNL     1      12.072  14.591  17.281  0.00  0.00    +0.000 A 
ATOM     18  C   UNL     1      11.884  13.212  17.364  0.00  0.00    +0.000 A 
ATOM     19  C   UNL     1      11.339  12.640  18.537  0.00  0.00    +0.000 A 
ATOM     20  C   UNL     1      10.854  11.321  18.553  0.00  0.00    +0.000 A 
ENDBRANCH   9  11
ENDBRANCH   5   7
BRANCH   1  21
ATOM     21  S   UNL     1       5.677   5.385  15.857  0.00  0.00    +0.000 S 
ATOM     22  O   UNL     1       6.351   4.292  15.198  0.00  0.00    +0.000 OA
ATOM     23  O   UNL     1       5.211   6.530  15.102  0.00  0.00    +0.000 OA
BRANCH  21  27
ATOM     24  C   UNL     1       1.352   4.909  17.676  0.00  0.00    +0.000 C 
ATOM     25  C   UNL     1       2.619   4.889  18.531  0.00  0.00    +0.000 C 
ATOM     26  C   UNL     1       3.827   5.552  17.838  0.00  0.00    +0.000 C 
ATOM     27  N   UNL     1       4.318   4.718  16.692  0.00  0.00    +0.000 NA
ATOM     28  C   UNL     1       4.599   3.314  17.183  0.00  0.00    +0.000 C 
ATOM     29  C   UNL     1       3.370   2.712  17.892  0.00  0.00    +0.000 C 
ATOM     30  C   UNL     1       3.685   1.338  18.474  0.00  0.00    +0.000 C 
ATOM     31  O   UNL     1       2.933   3.557  18.970  0.00  0.00    +0.000 OA
ENDBRANCH  21  27
ENDBRANCH   1  21
TORSDOF 4
ENDMDL
MODEL 2
REMARK VINA RESULT:      -9.3      5.609      8.609
REMARK  Name = 
REMARK  6 active torsions:
REMARK  status: ('A' for Active; 'I' for Inactive)
REMARK    1  A    between atoms: C_1  and  C_2
REMARK    2  A    between atoms: N_4  and  S_5
REMARK    3  A    between atoms: S_5  and  C_8
REMARK    4  A    between atoms: C_12  and  C_13
REMARK    5  A    between atoms: N_15  and  C_16
REMARK    6  A    between atoms: C_28  and  C_29
REMARK                            x       y       z     vdW  Elec       q    Type
REMARK                         _______ _______ _______ _____ _____    ______ ____
ROOT
ATOM      1  C   UNL     1       2.823   3.824  19.017  0.00  0.00    +0.000 A 
ATOM      2  C   UNL     1       2.715   3.051  20.165  0.00  0.00    +0.000 A 
ATOM      3  C   UNL     1       2.242   3.669  21.327  0.00  0.00    +0.000 A 
ATOM      4  C   UNL     1       1.905   5.040  21.335  0.00  0.00    +0.000 A 
ATOM      5  C   UNL     1       2.005   5.834  20.170  0.00  0.00    +0.000 A 
ATOM      6  C   UNL     1       2.442   5.183  18.998  0.00  0.00    +0.000 A 
ENDROOT
BRANCH   5   7
ATOM      7  C   UNL     1       1.678   7.358  20.238  0.00  0.00    +0.000 C 
ATOM      8  O   UNL     1       2.194   8.141  19.461  0.00  0.00    +0.000 OA
ATOM      9  N   UNL     1       0.799   7.724  21.262  0.00  0.00    +0.000 N 
ATOM     10  H   UNL     1       0.622   7.001  21.946  0.00  0.00    +0.000 HD
BRANCH   9  11
ATOM     11  C   UNL     1       0.370   9.009  21.720  0.00  0.00    +0.000 A 
ATOM     12  C   UNL     1       0.207   9.466  23.009  0.00  0.00    +0.000 A 
ATOM     13  N   UNL     1      -0.395  10.655  23.328  0.00  0.00    +0.000 NA
ATOM     14  C   UNL     1      -0.976  11.368  22.337  0.00  0.00    +0.000 A 
ATOM     15  C   UNL     1      -1.894  12.372  22.637  0.00  0.00    +0.000 A 
ATOM     16  C   UNL     1      -2.694  12.957  21.647  0.00  0.00    +0.000 A 
ATOM     17  C   UNL     1      -2.482  12.646  20.311  0.00  0.00    +0.000 A 
ATOM     18  C   UNL     1      -1.490  11.726  19.972  0.00  0.00    +0.000 A 
ATOM     19  C   UNL     1      -0.791  11.031  20.987  0.00  0.00    +0.000 A 
ATOM     20  C   UNL     1      -0.015   9.895  20.698  0.00  0.00    +0.000 A 
ENDBRANCH   9  11
ENDBRANCH   5   7
BRANCH   1  21
ATOM     21  S   UNL     1       3.407   3.041  17.518  0.00  0.00    +0.000 S 
ATOM     22  O   UNL     1       2.377   3.188  16.517  0.00  0.00    +0.000 OA
ATOM     23  O   UNL     1       3.900   1.728  17.883  0.00  0.00    +0.000 OA
BRANCH  21  27
ATOM     24  C   UNL     1       6.364   5.467  14.760  0.00  0.00    +0.000 C 
ATOM     25  C   UNL     1       6.793   4.234  15.556  0.00  0.00    +0.000 C 
ATOM     26  C   UNL     1       5.609   3.331  15.957  0.00  0.00    +0.000 C 
ATOM     27  N   UNL     1       4.759   3.986  17.003  0.00  0.00    +0.000 NA
ATOM     28  C   UNL     1       5.631   4.393  18.172  0.00  0.00    +0.000 C 
ATOM     29  C   UNL     1       6.814   5.268  17.710  0.00  0.00    +0.000 C 
ATOM     30  C   UNL     1       7.748   5.593  18.872  0.00  0.00    +0.000 C 
ATOM     31  O   UNL     1       7.585   4.599  16.699  0.00  0.00    +0.000 OA
ENDBRANCH  21  27
ENDBRANCH   1  21
TORSDOF 4
ENDMDL
MODEL 3
REMARK VINA RESULT:      -9.2      7.375     11.343
REMARK  Name = 
REMARK  6 active torsions:
REMARK  status: ('A' for Active; 'I' for Inactive)
REMARK    1  A    between atoms: C_1  and  C_2
REMARK    2  A    between atoms: N_4  and  S_5
REMARK    3  A    between atoms: S_5  and  C_8
REMARK    4  A    between atoms: C_12  and  C_13
REMARK    5  A    between atoms: N_15  and  C_16
REMARK    6  A    between atoms: C_28  and  C_29
REMARK                            x       y       z     vdW  Elec       q    Type
REMARK                         _______ _______ _______ _____ _____    ______ ____
ROOT
ATOM      1  C   UNL     1      -1.195  11.289  21.322  0.00  0.00    +0.000 A 
ATOM      2  C   UNL     1      -1.222  11.121  22.700  0.00  0.00    +0.000 A 
ATOM      3  C   UNL     1      -0.387  10.147  23.255  0.00  0.00    +0.000 A 
ATOM      4  C   UNL     1       0.444   9.350  22.437  0.00  0.00    +0.000 A 
ATOM      5  C   UNL     1       0.484   9.519  21.035  0.00  0.00    +0.000 A 
ATOM      6  C   UNL     1      -0.334  10.534  20.498  0.00  0.00    +0.000 A 
ENDROOT
BRANCH   5   7
ATOM      7  C   UNL     1       1.372   8.576  20.164  0.00  0.00    +0.000 C 
ATOM      8  O   UNL     1       1.691   8.892  19.032  0.00  0.00    +0.000 OA
ATOM      9  N   UNL     1       1.719   7.367  20.775  0.00  0.00    +0.000 N 
ATOM     10  H   UNL     1       1.212   7.162  21.625  0.00  0.00    +0.000 HD
BRANCH   9  11
ATOM     11  C   UNL     1       2.395   6.215  20.266  0.00  0.00    +0.000 A 
ATOM     12  C   UNL     1       3.571   6.139  19.553  0.00  0.00    +0.000 A 
ATOM     13  N   UNL     1       4.026   4.995  18.950  0.00  0.00    +0.000 NA
ATOM     14  C   UNL     1       3.222   3.908  18.942  0.00  0.00    +0.000 A 
ATOM     15  C   UNL     1       3.463   2.860  18.057  0.00  0.00    +0.000 A 
ATOM     16  C   UNL     1       2.523   1.843  17.848  0.00  0.00    +0.000 A 
ATOM     17  C   UNL     1       1.381   1.781  18.636  0.00  0.00    +0.000 A 
ATOM     18  C   UNL     1       1.170   2.756  19.610  0.00  0.00    +0.000 A 
ATOM     19  C   UNL     1       2.048   3.860  19.711  0.00  0.00    +0.000 A 
ATOM     20  C   UNL     1       1.710   5.002  20.458  0.00  0.00    +0.000 A 
ENDBRANCH   9  11
ENDBRANCH   5   7
BRANCH   1  21
ATOM     21  S   UNL     1      -2.245  12.546  20.600  0.00  0.00    +0.000 S 
ATOM     22  O   UNL     1      -1.388  13.562  20.036  0.00  0.00    +0.000 OA
ATOM     23  O   UNL     1      -3.246  12.889  21.589  0.00  0.00    +0.000 OA
BRANCH  21  27
ATOM     24  C   UNL     1      -3.077   9.703  16.931  0.00  0.00    +0.000 C 
ATOM     25  C   UNL     1      -3.157  11.226  16.836  0.00  0.00    +0.000 C 
ATOM     26  C   UNL     1      -2.377  11.945  17.955  0.00  0.00    +0.000 C 
ATOM     27  N   UNL     1      -3.050  11.769  19.283  0.00  0.00    +0.000 NA
ATOM     28  C   UNL     1      -4.493  12.213  19.173  0.00  0.00    +0.000 C 
ATOM     29  C   UNL     1      -5.216  11.487  18.021  0.00  0.00    +0.000 C 
ATOM     30  C   UNL     1      -6.639  12.008  17.845  0.00  0.00    +0.000 C 
ATOM     31  O   UNL     1      -4.522  11.676  16.776  0.00  0.00    +0.000 OA
ENDBRANCH  21  27
ENDBRANCH   1  21
TORSDOF 4
ENDMDL
MODEL 4
REMARK VINA RESULT:      -9.2      5.968      9.014
REMARK  Name = 
REMARK  6 active torsions:
REMARK  status: ('A' for Active; 'I' for Inactive)
REMARK    1  A    between atoms: C_1  and  C_2
REMARK    2  A    between atoms: N_4  and  S_5
REMARK    3  A    between atoms: S_5  and  C_8
REMARK    4  A    between atoms: C_12  and  C_13
REMARK    5  A    between atoms: N_15  and  C_16
REMARK    6  A    between atoms: C_28  and  C_29
REMARK                            x       y       z     vdW  Elec       q    Type
REMARK                         _______ _______ _______ _____ _____    ______ ____
ROOT
ATOM      1  C   UNL     1       1.466   7.429  20.679  0.00  0.00    +0.000 A 
ATOM      2  C   UNL     1       1.094   6.171  21.134  0.00  0.00    +0.000 A 
ATOM      3  C   UNL     1       1.672   5.057  20.519  0.00  0.00    +0.000 A 
ATOM      4  C   UNL     1       2.590   5.208  19.457  0.00  0.00    +0.000 A 
ATOM      5  C   UNL     1       2.980   6.484  18.991  0.00  0.00    +0.000 A 
ATOM      6  C   UNL     1       2.419   7.596  19.652  0.00  0.00    +0.000 A 
ENDROOT
BRANCH   5   7
ATOM      7  C   UNL     1       3.952   6.604  17.775  0.00  0.00    +0.000 C 
ATOM      8  O   UNL     1       3.907   7.571  17.036  0.00  0.00    +0.000 OA
ATOM      9  N   UNL     1       4.818   5.519  17.607  0.00  0.00    +0.000 N 
ATOM     10  H   UNL     1       4.596   4.710  18.171  0.00  0.00    +0.000 HD
BRANCH   9  11
ATOM     11  C   UNL     1       5.742   5.206  16.563  0.00  0.00    +0.000 A 
ATOM     12  C   UNL     1       6.951   5.793  16.263  0.00  0.00    +0.000 A 
ATOM     13  N   UNL     1       7.663   5.536  15.120  0.00  0.00    +0.000 NA
ATOM     14  C   UNL     1       7.096   4.759  14.170  0.00  0.00    +0.000 A 
ATOM     15  C   UNL     1       7.597   4.759  12.870  0.00  0.00    +0.000 A 
ATOM     16  C   UNL     1       6.895   4.167  11.812  0.00  0.00    +0.000 A 
ATOM     17  C   UNL     1       5.742   3.436  12.067  0.00  0.00    +0.000 A 
ATOM     18  C   UNL     1       5.280   3.325  13.378  0.00  0.00    +0.000 A 
ATOM     19  C   UNL     1       5.911   4.049  14.416  0.00  0.00    +0.000 A 
ATOM     20  C   UNL     1       5.304   4.207  15.674  0.00  0.00    +0.000 A 
ENDBRANCH   9  11
ENDBRANCH   5   7
BRANCH   1  21
ATOM     21  S   UNL     1       0.749   8.865  21.472  0.00  0.00    +0.000 S 
ATOM     22  O   UNL     1       1.680   9.322  22.476  0.00  0.00    +0.000 OA
ATOM     23  O   UNL     1      -0.614   8.523  21.828  0.00  0.00    +0.000 OA
BRANCH  21  27
ATOM     24  C   UNL     1       2.066  12.276  18.494  0.00  0.00    +0.000 C 
ATOM     25  C   UNL     1       0.988  12.474  19.559  0.00  0.00    +0.000 C 
ATOM     26  C   UNL     1       1.077  11.450  20.709  0.00  0.00    +0.000 C 
ATOM     27  N   UNL     1       0.682  10.080  20.244  0.00  0.00    +0.000 NA
ATOM     28  C   UNL     1      -0.687  10.147  19.601  0.00  0.00    +0.000 C 
ATOM     29  C   UNL     1      -0.727  11.207  18.481  0.00  0.00    +0.000 C 
ATOM     30  C   UNL     1      -2.132  11.345  17.902  0.00  0.00    +0.000 C 
ATOM     31  O   UNL     1      -0.326  12.495  18.976  0.00  0.00    +0.000 OA
ENDBRANCH  21  27
ENDBRANCH   1  21
TORSDOF 4
ENDMDL
MODEL 5
REMARK VINA RESULT:      -8.9      6.391      9.888
REMARK  Name = 
REMARK  6 active torsions:
REMARK  status: ('A' for Active; 'I' for Inactive)
REMARK    1  A    between atoms: C_1  and  C_2
REMARK    2  A    between atoms: N_4  and  S_5
REMARK    3  A    between atoms: S_5  and  C_8
REMARK    4  A    between atoms: C_12  and  C_13
REMARK    5  A    between atoms: N_15  and  C_16
REMARK    6  A    between atoms: C_28  and  C_29
REMARK                            x       y       z     vdW  Elec       q    Type
REMARK                         _______ _______ _______ _____ _____    ______ ____
ROOT
ATOM      1  C   UNL     1      -0.518  10.990  20.602  0.00  0.00    +0.000 A 
ATOM      2  C   UNL     1      -0.723  11.139  21.968  0.00  0.00    +0.000 A 
ATOM      3  C   UNL     1      -0.212  10.152  22.816  0.00  0.00    +0.000 A 
ATOM      4  C   UNL     1       0.473   9.031  22.298  0.00  0.00    +0.000 A 
ATOM      5  C   UNL     1       0.693   8.874  20.911  0.00  0.00    +0.000 A 
ATOM      6  C   UNL     1       0.208   9.900  20.075  0.00  0.00    +0.000 A 
ENDROOT
BRANCH   5   7
ATOM      7  C   UNL     1       1.403   7.590  20.377  0.00  0.00    +0.000 C 
ATOM      8  O   UNL     1       1.547   6.616  21.093  0.00  0.00    +0.000 OA
ATOM      9  N   UNL     1       1.869   7.682  19.062  0.00  0.00    +0.000 N 
ATOM     10  H   UNL     1       1.859   8.615  18.674  0.00  0.00    +0.000 HD
BRANCH   9  11
ATOM     11  C   UNL     1       2.664   6.787  18.281  0.00  0.00    +0.000 A 
ATOM     12  C   UNL     1       2.476   5.446  18.030  0.00  0.00    +0.000 A 
ATOM     13  N   UNL     1       3.408   4.643  17.425  0.00  0.00    +0.000 NA
ATOM     14  C   UNL     1       4.632   5.158  17.170  0.00  0.00    +0.000 A 
ATOM     15  C   UNL     1       5.708   4.315  16.900  0.00  0.00    +0.000 A 
ATOM     16  C   UNL     1       7.025   4.790  16.876  0.00  0.00    +0.000 A 
ATOM     17  C   UNL     1       7.274   6.152  16.979  0.00  0.00    +0.000 A 
ATOM     18  C   UNL     1       6.204   7.032  17.137  0.00  0.00    +0.000 A 
ATOM     19  C   UNL     1       4.893   6.530  17.310  0.00  0.00    +0.000 A 
ATOM     20  C   UNL     1       3.847   7.350  17.770  0.00  0.00    +0.000 A 
ENDBRANCH   9  11
ENDBRANCH   5   7
BRANCH   1  21
ATOM     21  S   UNL     1      -1.148  12.257  19.506  0.00  0.00    +0.000 S 
ATOM     22  O   UNL     1      -0.044  12.732  18.706  0.00  0.00    +0.000 OA
ATOM     23  O   UNL     1      -1.925  13.175  20.314  0.00  0.00    +0.000 OA
BRANCH  21  27
ATOM     24  C   UNL     1      -2.782   9.455  16.084  0.00  0.00    +0.000 C 
ATOM     25  C   UNL     1      -3.023  10.964  16.107  0.00  0.00    +0.000 C 
ATOM     26  C   UNL     1      -2.011  11.725  16.988  0.00  0.00    +0.000 C 
ATOM     27  N   UNL     1      -2.237  11.440  18.442  0.00  0.00    +0.000 NA
ATOM     28  C   UNL     1      -3.681  11.737  18.788  0.00  0.00    +0.000 C 
ATOM     29  C   UNL     1      -4.647  10.975  17.859  0.00  0.00    +0.000 C 
ATOM     30  C   UNL     1      -6.099  11.351  18.143  0.00  0.00    +0.000 C 
ATOM     31  O   UNL     1      -4.377  11.272  16.479  0.00  0.00    +0.000 OA
ENDBRANCH  21  27
ENDBRANCH   1  21
TORSDOF 4
ENDMDL
MODEL 6
REMARK VINA RESULT:      -8.8      5.338      7.460
REMARK  Name = 
REMARK  6 active torsions:
REMARK  status: ('A' for Active; 'I' for Inactive)
REMARK    1  A    between atoms: C_1  and  C_2
REMARK    2  A    between atoms: N_4  and  S_5
REMARK    3  A    between atoms: S_5  and  C_8
REMARK    4  A    between atoms: C_12  and  C_13
REMARK    5  A    between atoms: N_15  and  C_16
REMARK    6  A    between atoms: C_28  and  C_29
REMARK                            x       y       z     vdW  Elec       q    Type
REMARK                         _______ _______ _______ _____ _____    ______ ____
ROOT
ATOM      1  C   UNL     1       2.797   5.078  18.732  0.00  0.00    +0.000 A 
ATOM      2  C   UNL     1       2.606   4.770  20.072  0.00  0.00    +0.000 A 
ATOM      3  C   UNL     1       2.088   5.768  20.904  0.00  0.00    +0.000 A 
ATOM      4  C   UNL     1       1.788   7.052  20.398  0.00  0.00    +0.000 A 
ATOM      5  C   UNL     1       1.973   7.372  19.034  0.00  0.00    +0.000 A 
ATOM      6  C   UNL     1       2.455   6.341  18.203  0.00  0.00    +0.000 A 
ENDROOT
BRANCH   5   7
ATOM      7  C   UNL     1       1.684   8.821  18.531  0.00  0.00    +0.000 C 
ATOM      8  O   UNL     1       2.200   9.240  17.510  0.00  0.00    +0.000 OA
ATOM      9  N   UNL     1       0.838   9.571  19.353  0.00  0.00    +0.000 N 
ATOM     10  H   UNL     1       0.659   9.162  20.260  0.00  0.00    +0.000 HD
BRANCH   9  11
ATOM     11  C   UNL     1       0.450  10.945  19.302  0.00  0.00    +0.000 A 
ATOM     12  C   UNL     1      -0.523  11.549  18.535  0.00  0.00    +0.000 A 
ATOM     13  N   UNL     1      -0.678  12.906  18.427  0.00  0.00    +0.000 NA
ATOM     14  C   UNL     1       0.249  13.707  19.000  0.00  0.00    +0.000 A 
ATOM     15  C   UNL     1       0.349  15.046  18.628  0.00  0.00    +0.000 A 
ATOM     16  C   UNL     1       1.441  15.836  19.010  0.00  0.00    +0.000 A 
ATOM     17  C   UNL     1       2.383  15.333  19.898  0.00  0.00    +0.000 A 
ATOM     18  C   UNL     1       2.245  14.031  20.376  0.00  0.00    +0.000 A 
ATOM     19  C   UNL     1       1.224  13.194  19.869  0.00  0.00    +0.000 A 
ATOM     20  C   UNL     1       1.235  11.805  20.090  0.00  0.00    +0.000 A 
ENDBRANCH   9  11
ENDBRANCH   5   7
BRANCH   1  21
ATOM     21  S   UNL     1       3.440   3.804  17.652  0.00  0.00    +0.000 S 
ATOM     22  O   UNL     1       2.430   3.517  16.661  0.00  0.00    +0.000 OA
ATOM     23  O   UNL     1       3.966   2.750  18.497  0.00  0.00    +0.000 OA
BRANCH  21  27
ATOM     24  C   UNL     1       6.391   5.090  14.207  0.00  0.00    +0.000 C 
ATOM     25  C   UNL     1       6.839   4.284  15.425  0.00  0.00    +0.000 C 
ATOM     26  C   UNL     1       5.676   3.558  16.131  0.00  0.00    +0.000 C 
ATOM     27  N   UNL     1       4.773   4.532  16.828  0.00  0.00    +0.000 NA
ATOM     28  C   UNL     1       5.598   5.397  17.757  0.00  0.00    +0.000 C 
ATOM     29  C   UNL     1       6.762   6.073  17.007  0.00  0.00    +0.000 C 
ATOM     30  C   UNL     1       7.651   6.864  17.962  0.00  0.00    +0.000 C 
ATOM     31  O   UNL     1       7.585   5.098  16.346  0.00  0.00    +0.000 OA
ENDBRANCH  21  27
ENDBRANCH   1  21
TORSDOF 4
ENDMDL
MODEL 7
REMARK VINA RESULT:      -8.8      5.599      8.239
REMARK  Name = 
REMARK  6 active torsions:
REMARK  status: ('A' for Active; 'I' for Inactive)
REMARK    1  A    between atoms: C_1  and  C_2
REMARK    2  A    between atoms: N_4  and  S_5
REMARK    3  A    between atoms: S_5  and  C_8
REMARK    4  A    between atoms: C_12  and  C_13
REMARK    5  A    between atoms: N_15  and  C_16
REMARK    6  A    between atoms: C_28  and  C_29
REMARK                            x       y       z     vdW  Elec       q    Type
REMARK                         _______ _______ _______ _____ _____    ______ ____
ROOT
ATOM      1  C   UNL     1       2.830   5.058  18.719  0.00  0.00    +0.000 A 
ATOM      2  C   UNL     1       2.567   4.787  20.055  0.00  0.00    +0.000 A 
ATOM      3  C   UNL     1       2.018   5.811  20.833  0.00  0.00    +0.000 A 
ATOM      4  C   UNL     1       1.758   7.084  20.281  0.00  0.00    +0.000 A 
ATOM      5  C   UNL     1       2.015   7.367  18.920  0.00  0.00    +0.000 A 
ATOM      6  C   UNL     1       2.529   6.310  18.142  0.00  0.00    +0.000 A 
ENDROOT
BRANCH   5   7
ATOM      7  C   UNL     1       1.768   8.805  18.366  0.00  0.00    +0.000 C 
ATOM      8  O   UNL     1       2.295   9.172  17.331  0.00  0.00    +0.000 OA
ATOM      9  N   UNL     1       0.945   9.607  19.162  0.00  0.00    +0.000 N 
ATOM     10  H   UNL     1       0.757   9.236  20.083  0.00  0.00    +0.000 HD
BRANCH   9  11
ATOM     11  C   UNL     1       0.597  10.990  19.062  0.00  0.00    +0.000 A 
ATOM     12  C   UNL     1       1.409  12.079  18.832  0.00  0.00    +0.000 A 
ATOM     13  N   UNL     1       0.993  13.380  18.948  0.00  0.00    +0.000 NA
ATOM     14  C   UNL     1      -0.245  13.619  19.436  0.00  0.00    +0.000 A 
ATOM     15  C   UNL     1      -0.584  14.884  19.909  0.00  0.00    +0.000 A 
ATOM     16  C   UNL     1      -1.757  15.107  20.640  0.00  0.00    +0.000 A 
ATOM     17  C   UNL     1      -2.688  14.086  20.785  0.00  0.00    +0.000 A 
ATOM     18  C   UNL     1      -2.425  12.837  20.223  0.00  0.00    +0.000 A 
ATOM     19  C   UNL     1      -1.173  12.581  19.617  0.00  0.00    +0.000 A 
ATOM     20  C   UNL     1      -0.757  11.273  19.316  0.00  0.00    +0.000 A 
ENDBRANCH   9  11
ENDBRANCH   5   7
BRANCH   1  21
ATOM     21  S   UNL     1       3.513   3.750  17.706  0.00  0.00    +0.000 S 
ATOM     22  O   UNL     1       2.504   3.365  16.748  0.00  0.00    +0.000 OA
ATOM     23  O   UNL     1       4.093   2.771  18.604  0.00  0.00    +0.000 OA
BRANCH  21  27
ATOM     24  C   UNL     1       6.342   4.987  14.142  0.00  0.00    +0.000 C 
ATOM     25  C   UNL     1       6.842   4.239  15.378  0.00  0.00    +0.000 C 
ATOM     26  C   UNL     1       5.717   3.509  16.139  0.00  0.00    +0.000 C 
ATOM     27  N   UNL     1       4.805   4.483  16.823  0.00  0.00    +0.000 NA
ATOM     28  C   UNL     1       5.627   5.404  17.698  0.00  0.00    +0.000 C 
ATOM     29  C   UNL     1       6.753   6.084  16.894  0.00  0.00    +0.000 C 
ATOM     30  C   UNL     1       7.643   6.933  17.797  0.00  0.00    +0.000 C 
ATOM     31  O   UNL     1       7.587   5.107  16.249  0.00  0.00    +0.000 OA
ENDBRANCH  21  27
ENDBRANCH   1  21
TORSDOF 4
ENDMDL
MODEL 8
REMARK VINA RESULT:      -8.8      7.406     10.631
REMARK  Name = 
REMARK  6 active torsions:
REMARK  status: ('A' for Active; 'I' for Inactive)
REMARK    1  A    between atoms: C_1  and  C_2
REMARK    2  A    between atoms: N_4  and  S_5
REMARK    3  A    between atoms: S_5  and  C_8
REMARK    4  A    between atoms: C_12  and  C_13
REMARK    5  A    between atoms: N_15  and  C_16
REMARK    6  A    between atoms: C_28  and  C_29
REMARK                            x       y       z     vdW  Elec       q    Type
REMARK                         _______ _______ _______ _____ _____    ______ ____
ROOT
ATOM      1  C   UNL     1      -0.283  11.350  21.801  0.00  0.00    +0.000 A 
ATOM      2  C   UNL     1      -0.671  10.512  22.838  0.00  0.00    +0.000 A 
ATOM      3  C   UNL     1      -0.378   9.150  22.722  0.00  0.00    +0.000 A 
ATOM      4  C   UNL     1       0.275   8.643  21.577  0.00  0.00    +0.000 A 
ATOM      5  C   UNL     1       0.680   9.488  20.520  0.00  0.00    +0.000 A 
ATOM      6  C   UNL     1       0.414  10.864  20.674  0.00  0.00    +0.000 A 
ENDROOT
BRANCH   5   7
ATOM      7  C   UNL     1       1.346   8.877  19.247  0.00  0.00    +0.000 C 
ATOM      8  O   UNL     1       1.237   9.423  18.164  0.00  0.00    +0.000 OA
ATOM      9  N   UNL     1       2.020   7.671  19.460  0.00  0.00    +0.000 N 
ATOM     10  H   UNL     1       1.847   7.243  20.359  0.00  0.00    +0.000 HD
BRANCH   9  11
ATOM     11  C   UNL     1       2.631   6.760  18.544  0.00  0.00    +0.000 A 
ATOM     12  C   UNL     1       2.305   5.450  18.267  0.00  0.00    +0.000 A 
ATOM     13  N   UNL     1       3.081   4.613  17.510  0.00  0.00    +0.000 NA
ATOM     14  C   UNL     1       4.298   5.048  17.111  0.00  0.00    +0.000 A 
ATOM     15  C   UNL     1       5.258   4.143  16.664  0.00  0.00    +0.000 A 
ATOM     16  C   UNL     1       6.594   4.519  16.480  0.00  0.00    +0.000 A 
ATOM     17  C   UNL     1       6.962   5.853  16.603  0.00  0.00    +0.000 A 
ATOM     18  C   UNL     1       5.996   6.800  16.940  0.00  0.00    +0.000 A 
ATOM     19  C   UNL     1       4.684   6.388  17.268  0.00  0.00    +0.000 A 
ATOM     20  C   UNL     1       3.777   7.259  17.899  0.00  0.00    +0.000 A 
ENDBRANCH   9  11
ENDBRANCH   5   7
BRANCH   1  21
ATOM     21  S   UNL     1      -0.634  13.099  21.946  0.00  0.00    +0.000 S 
ATOM     22  O   UNL     1       0.013  13.769  20.844  0.00  0.00    +0.000 OA
ATOM     23  O   UNL     1      -0.349  13.481  23.315  0.00  0.00    +0.000 OA
BRANCH  21  27
ATOM     24  C   UNL     1      -5.132  14.382  22.546  0.00  0.00    +0.000 C 
ATOM     25  C   UNL     1      -4.676  12.923  22.560  0.00  0.00    +0.000 C 
ATOM     26  C   UNL     1      -3.171  12.763  22.855  0.00  0.00    +0.000 C 
ATOM     27  N   UNL     1      -2.339  13.245  21.704  0.00  0.00    +0.000 NA
ATOM     28  C   UNL     1      -2.785  12.543  20.439  0.00  0.00    +0.000 C 
ATOM     29  C   UNL     1      -4.300  12.711  20.210  0.00  0.00    +0.000 C 
ATOM     30  C   UNL     1      -4.766  11.920  18.991  0.00  0.00    +0.000 C 
ATOM     31  O   UNL     1      -5.048  12.247  21.347  0.00  0.00    +0.000 OA
ENDBRANCH  21  27
ENDBRANCH   1  21
TORSDOF 4
ENDMDL
MODEL 9
REMARK VINA RESULT:      -8.7      7.678     11.671
REMARK  Name = 
REMARK  6 active torsions:
REMARK  status: ('A' for Active; 'I' for Inactive)
REMARK    1  A    between atoms: C_1  and  C_2
REMARK    2  A    between atoms: N_4  and  S_5
REMARK    3  A    between atoms: S_5  and  C_8
REMARK    4  A    between atoms: C_12  and  C_13
REMARK    5  A    between atoms: N_15  and  C_16
REMARK    6  A    between atoms: C_28  and  C_29
REMARK                            x       y       z     vdW  Elec       q    Type
REMARK                         _______ _______ _______ _____ _____    ______ ____
ROOT
ATOM      1  C   UNL     1      -0.912  11.883  21.735  0.00  0.00    +0.000 A 
ATOM      2  C   UNL     1      -1.247  11.350  22.972  0.00  0.00    +0.000 A 
ATOM      3  C   UNL     1      -0.783  10.067  23.277  0.00  0.00    +0.000 A 
ATOM      4  C   UNL     1      -0.014   9.332  22.348  0.00  0.00    +0.000 A 
ATOM      5  C   UNL     1       0.338   9.869  21.089  0.00  0.00    +0.000 A 
ATOM      6  C   UNL     1      -0.103  11.179  20.817  0.00  0.00    +0.000 A 
ENDROOT
BRANCH   5   7
ATOM      7  C   UNL     1       1.138   8.999  20.070  0.00  0.00    +0.000 C 
ATOM      8  O   UNL     1       1.281   9.365  18.917  0.00  0.00    +0.000 OA
ATOM      9  N   UNL     1       1.622   7.791  20.582  0.00  0.00    +0.000 N 
ATOM     10  H   UNL     1       1.248   7.535  21.486  0.00  0.00    +0.000 HD
BRANCH   9  11
ATOM     11  C   UNL     1       2.273   6.691  19.942  0.00  0.00    +0.000 A 
ATOM     12  C   UNL     1       3.181   6.698  18.907  0.00  0.00    +0.000 A 
ATOM     13  N   UNL     1       3.595   5.571  18.246  0.00  0.00    +0.000 NA
ATOM     14  C   UNL     1       2.988   4.397  18.534  0.00  0.00    +0.000 A 
ATOM     15  C   UNL     1       3.101   3.314  17.665  0.00  0.00    +0.000 A 
ATOM     16  C   UNL     1       2.297   2.175  17.801  0.00  0.00    +0.000 A 
ATOM     17  C   UNL     1       1.463   2.043  18.903  0.00  0.00    +0.000 A 
ATOM     18  C   UNL     1       1.415   3.065  19.850  0.00  0.00    +0.000 A 
ATOM     19  C   UNL     1       2.117   4.272  19.627  0.00  0.00    +0.000 A 
ATOM     20  C   UNL     1       1.857   5.424  20.390  0.00  0.00    +0.000 A 
ENDBRANCH   9  11
ENDBRANCH   5   7
BRANCH   1  21
ATOM     21  S   UNL     1      -1.482  13.533  21.340  0.00  0.00    +0.000 S 
ATOM     22  O   UNL     1      -0.749  13.984  20.181  0.00  0.00    +0.000 OA
ATOM     23  O   UNL     1      -1.466  14.299  22.569  0.00  0.00    +0.000 OA
BRANCH  21  27
ATOM     24  C   UNL     1      -6.154  14.127  21.097  0.00  0.00    +0.000 C 
ATOM     25  C   UNL     1      -5.505  12.793  21.462  0.00  0.00    +0.000 C 
ATOM     26  C   UNL     1      -4.057  12.943  21.970  0.00  0.00    +0.000 C 
ATOM     27  N   UNL     1      -3.132  13.344  20.860  0.00  0.00    +0.000 NA
ATOM     28  C   UNL     1      -3.271  12.362  19.717  0.00  0.00    +0.000 C 
ATOM     29  C   UNL     1      -4.741  12.228  19.269  0.00  0.00    +0.000 C 
ATOM     30  C   UNL     1      -4.894  11.164  18.187  0.00  0.00    +0.000 C 
ATOM     31  O   UNL     1      -5.584  11.857  20.373  0.00  0.00    +0.000 OA
ENDBRANCH  21  27
ENDBRANCH   1  21
TORSDOF 4
ENDMDL
