MODEL 1
REMARK VINA RESULT:      -8.4      0.000      0.000
REMARK  Name = 
REMARK  7 active torsions:
REMARK  status: ('A' for Active; 'I' for Inactive)
REMARK    1  A    between atoms: C_1  and  N_2
REMARK    2  A    between atoms: C_6  and  C_7
REMARK    3  A    between atoms: C_7  and  C_8
REMARK    4  A    between atoms: C_8  and  C_9
REMARK    5  A    between atoms: C_13  and  N_14
REMARK    6  A    between atoms: C_17  and  C_18
REMARK    7  A    between atoms: C_18  and  C_19
REMARK                            x       y       z     vdW  Elec       q    Type
REMARK                         _______ _______ _______ _____ _____    ______ ____
ROOT
ATOM      1  C   UNL     1       5.514   6.311  18.109  0.00  0.00    +0.000 A 
ATOM      2  C   UNL     1       4.702   7.230  17.419  0.00  0.00    +0.000 A 
ATOM      3  C   UNL     1       3.320   7.280  17.612  0.00  0.00    +0.000 A 
ATOM      4  C   UNL     1       2.704   6.382  18.481  0.00  0.00    +0.000 A 
ATOM      5  C   UNL     1       3.451   5.417  19.169  0.00  0.00    +0.000 A 
ATOM      6  C   UNL     1       4.841   5.426  18.982  0.00  0.00    +0.000 A 
ENDROOT
BRANCH   1   7
ATOM      7  C   UNL     1       7.132   6.196  17.862  0.00  0.00    +0.000 C 
ATOM      8  C   UNL     1       7.818   7.458  17.221  0.00  0.00    +0.000 C 
ATOM      9  C   UNL     1       8.308   7.882  18.610  0.00  0.00    +0.000 C 
ATOM     10  C   UNL     1       8.023   6.470  19.127  0.00  0.00    +0.000 C 
BRANCH   7  11
ATOM     11  C   UNL     1       7.381   4.825  17.184  0.00  0.00    +0.000 C 
BRANCH  11  17
ATOM     12  C   UNL     1       4.785   3.506  15.899  0.00  0.00    +0.000 C 
ATOM     13  N   UNL     1       5.876   4.146  15.218  0.00  0.00    +0.000 N 
ATOM     14  C   UNL     1       5.928   4.373  13.875  0.00  0.00    +0.000 A 
ATOM     15  N   UNL     1       7.056   4.969  13.572  0.00  0.00    +0.000 NA
ATOM     16  N   UNL     1       7.746   5.166  14.743  0.00  0.00    +0.000 NA
ATOM     17  C   UNL     1       7.032   4.678  15.739  0.00  0.00    +0.000 A 
ENDBRANCH  11  17
ENDBRANCH   7  11
ENDBRANCH   1   7
BRANCH   5  18
ATOM     18  N   UNL     1       2.798   4.456  19.966  0.00  0.00    +0.000 N 
ATOM     19  C   UNL     1       2.203   4.654  21.255  0.00  0.00    +0.000 C 
ATOM     20  C   UNL     1       1.524   3.352  20.957  0.00  0.00    +0.000 C 
ATOM     21  C   UNL     1       2.149   3.328  19.748  0.00  0.00    +0.000 C 
BRANCH  21  22
ATOM     22  C   UNL     1       2.047   2.289  18.610  0.00  0.00    +0.000 C 
ATOM     23  C   UNL     1       3.287   1.418  18.511  0.00  0.00    +0.000 C 
ATOM     24  F   UNL     1       0.959   1.488  18.763  0.00  0.00    +0.000 F 
ATOM     25  F   UNL     1       1.901   2.907  17.400  0.00  0.00    +0.000 F 
ENDBRANCH  21  22
ENDBRANCH   5  18
TORSDOF 5
ENDMDL
MODEL 2
REMARK VINA RESULT:      -7.7      1.249      1.417
REMARK  Name = 
REMARK  7 active torsions:
REMARK  status: ('A' for Active; 'I' for Inactive)
REMARK    1  A    between atoms: C_1  and  N_2
REMARK    2  A    between atoms: C_6  and  C_7
REMARK    3  A    between atoms: C_7  and  C_8
REMARK    4  A    between atoms: C_8  and  C_9
REMARK    5  A    between atoms: C_13  and  N_14
REMARK    6  A    between atoms: C_17  and  C_18
REMARK    7  A    between atoms: C_18  and  C_19
REMARK                            x       y       z     vdW  Elec       q    Type
REMARK                         _______ _______ _______ _____ _____    ______ ____
ROOT
ATOM      1  C   UNL     1       5.479   6.511  18.022  0.00  0.00    +0.000 A 
ATOM      2  C   UNL     1       4.644   7.351  17.260  0.00  0.00    +0.000 A 
ATOM      3  C   UNL     1       3.266   7.407  17.474  0.00  0.00    +0.000 A 
ATOM      4  C   UNL     1       2.675   6.592  18.437  0.00  0.00    +0.000 A 
ATOM      5  C   UNL     1       3.445   5.705  19.201  0.00  0.00    +0.000 A 
ATOM      6  C   UNL     1       4.832   5.709  18.988  0.00  0.00    +0.000 A 
ENDROOT
BRANCH   1   7
ATOM      7  C   UNL     1       7.094   6.388  17.756  0.00  0.00    +0.000 C 
ATOM      8  C   UNL     1       7.754   7.590  16.986  0.00  0.00    +0.000 C 
ATOM      9  C   UNL     1       8.264   8.149  18.319  0.00  0.00    +0.000 C 
ATOM     10  C   UNL     1       8.003   6.790  18.973  0.00  0.00    +0.000 C 
BRANCH   7  11
ATOM     11  C   UNL     1       7.346   4.961  17.207  0.00  0.00    +0.000 C 
BRANCH  11  17
ATOM     12  C   UNL     1       4.693   3.503  16.224  0.00  0.00    +0.000 C 
ATOM     13  N   UNL     1       5.738   4.069  15.415  0.00  0.00    +0.000 N 
ATOM     14  C   UNL     1       5.711   4.148  14.056  0.00  0.00    +0.000 A 
ATOM     15  N   UNL     1       6.815   4.711  13.625  0.00  0.00    +0.000 NA
ATOM     16  N   UNL     1       7.568   5.036  14.726  0.00  0.00    +0.000 NA
ATOM     17  C   UNL     1       6.917   4.657  15.809  0.00  0.00    +0.000 A 
ENDBRANCH  11  17
ENDBRANCH   7  11
ENDBRANCH   1   7
BRANCH   5  18
ATOM     18  N   UNL     1       2.818   4.820  20.100  0.00  0.00    +0.000 N 
ATOM     19  C   UNL     1       1.525   4.964  20.703  0.00  0.00    +0.000 C 
ATOM     20  C   UNL     1       1.683   3.501  20.995  0.00  0.00    +0.000 C 
ATOM     21  C   UNL     1       2.887   3.527  20.359  0.00  0.00    +0.000 C 
BRANCH  21  22
ATOM     22  C   UNL     1       3.885   2.378  20.098  0.00  0.00    +0.000 C 
ATOM     23  C   UNL     1       3.389   1.414  19.035  0.00  0.00    +0.000 C 
ATOM     24  F   UNL     1       5.104   2.851  19.727  0.00  0.00    +0.000 F 
ATOM     25  F   UNL     1       4.088   1.645  21.233  0.00  0.00    +0.000 F 
ENDBRANCH  21  22
ENDBRANCH   5  18
TORSDOF 5
ENDMDL
MODEL 3
REMARK VINA RESULT:      -7.7      1.236      1.904
REMARK  Name = 
REMARK  7 active torsions:
REMARK  status: ('A' for Active; 'I' for Inactive)
REMARK    1  A    between atoms: C_1  and  N_2
REMARK    2  A    between atoms: C_6  and  C_7
REMARK    3  A    between atoms: C_7  and  C_8
REMARK    4  A    between atoms: C_8  and  C_9
REMARK    5  A    between atoms: C_13  and  N_14
REMARK    6  A    between atoms: C_17  and  C_18
REMARK    7  A    between atoms: C_18  and  C_19
REMARK                            x       y       z     vdW  Elec       q    Type
REMARK                         _______ _______ _______ _____ _____    ______ ____
ROOT
ATOM      1  C   UNL     1       5.395   5.995  17.835  0.00  0.00    +0.000 A 
ATOM      2  C   UNL     1       4.612   7.147  17.624  0.00  0.00    +0.000 A 
ATOM      3  C   UNL     1       3.224   7.128  17.765  0.00  0.00    +0.000 A 
ATOM      4  C   UNL     1       2.571   5.940  18.087  0.00  0.00    +0.000 A 
ATOM      5  C   UNL     1       3.288   4.750  18.272  0.00  0.00    +0.000 A 
ATOM      6  C   UNL     1       4.685   4.819  18.165  0.00  0.00    +0.000 A 
ENDROOT
BRANCH   1   7
ATOM      7  C   UNL     1       7.022   5.978  17.625  0.00  0.00    +0.000 C 
ATOM      8  C   UNL     1       7.657   7.312  17.084  0.00  0.00    +0.000 C 
ATOM      9  C   UNL     1       8.090   7.670  18.510  0.00  0.00    +0.000 C 
ATOM     10  C   UNL     1       7.867   6.214  18.929  0.00  0.00    +0.000 C 
BRANCH   7  11
ATOM     11  C   UNL     1       7.358   4.668  16.869  0.00  0.00    +0.000 C 
BRANCH  11  17
ATOM     12  C   UNL     1       5.126   3.133  15.196  0.00  0.00    +0.000 C 
ATOM     13  N   UNL     1       6.157   4.004  14.699  0.00  0.00    +0.000 N 
ATOM     14  C   UNL     1       6.288   4.389  13.399  0.00  0.00    +0.000 A 
ATOM     15  N   UNL     1       7.329   5.176  13.275  0.00  0.00    +0.000 NA
ATOM     16  N   UNL     1       7.874   5.338  14.525  0.00  0.00    +0.000 NA
ATOM     17  C   UNL     1       7.164   4.637  15.388  0.00  0.00    +0.000 A 
ENDBRANCH  11  17
ENDBRANCH   7  11
ENDBRANCH   1   7
BRANCH   5  18
ATOM     18  N   UNL     1       2.603   3.541  18.501  0.00  0.00    +0.000 N 
ATOM     19  C   UNL     1       2.503   2.417  17.616  0.00  0.00    +0.000 C 
ATOM     20  C   UNL     1       2.067   1.694  18.855  0.00  0.00    +0.000 C 
ATOM     21  C   UNL     1       2.242   2.844  19.562  0.00  0.00    +0.000 C 
BRANCH  21  22
ATOM     22  C   UNL     1       2.052   3.108  21.072  0.00  0.00    +0.000 C 
ATOM     23  C   UNL     1       2.210   4.576  21.425  0.00  0.00    +0.000 C 
ATOM     24  F   UNL     1       0.834   2.682  21.502  0.00  0.00    +0.000 F 
ATOM     25  F   UNL     1       2.978   2.423  21.805  0.00  0.00    +0.000 F 
ENDBRANCH  21  22
ENDBRANCH   5  18
TORSDOF 5
ENDMDL
MODEL 4
REMARK VINA RESULT:      -7.7      1.293      1.886
REMARK  Name = 
REMARK  7 active torsions:
REMARK  status: ('A' for Active; 'I' for Inactive)
REMARK    1  A    between atoms: C_1  and  N_2
REMARK    2  A    between atoms: C_6  and  C_7
REMARK    3  A    between atoms: C_7  and  C_8
REMARK    4  A    between atoms: C_8  and  C_9
REMARK    5  A    between atoms: C_13  and  N_14
REMARK    6  A    between atoms: C_17  and  C_18
REMARK    7  A    between atoms: C_18  and  C_19
REMARK                            x       y       z     vdW  Elec       q    Type
REMARK                         _______ _______ _______ _____ _____    ______ ____
ROOT
ATOM      1  C   UNL     1       5.469   6.210  17.773  0.00  0.00    +0.000 A 
ATOM      2  C   UNL     1       4.684   7.346  17.493  0.00  0.00    +0.000 A 
ATOM      3  C   UNL     1       3.292   7.321  17.598  0.00  0.00    +0.000 A 
ATOM      4  C   UNL     1       2.640   6.142  17.954  0.00  0.00    +0.000 A 
ATOM      5  C   UNL     1       3.360   4.967  18.207  0.00  0.00    +0.000 A 
ATOM      6  C   UNL     1       4.759   5.043  18.134  0.00  0.00    +0.000 A 
ENDROOT
BRANCH   1   7
ATOM      7  C   UNL     1       7.101   6.197  17.607  0.00  0.00    +0.000 C 
ATOM      8  C   UNL     1       7.741   7.515  17.035  0.00  0.00    +0.000 C 
ATOM      9  C   UNL     1       8.134   7.928  18.458  0.00  0.00    +0.000 C 
ATOM     10  C   UNL     1       7.909   6.487  18.923  0.00  0.00    +0.000 C 
BRANCH   7  11
ATOM     11  C   UNL     1       7.466   4.863  16.908  0.00  0.00    +0.000 C 
BRANCH  11  17
ATOM     12  C   UNL     1       5.392   3.032  15.333  0.00  0.00    +0.000 C 
ATOM     13  N   UNL     1       6.312   3.992  14.786  0.00  0.00    +0.000 N 
ATOM     14  C   UNL     1       6.379   4.341  13.471  0.00  0.00    +0.000 A 
ATOM     15  N   UNL     1       7.324   5.234  13.300  0.00  0.00    +0.000 NA
ATOM     16  N   UNL     1       7.868   5.500  14.532  0.00  0.00    +0.000 NA
ATOM     17  C   UNL     1       7.253   4.757  15.433  0.00  0.00    +0.000 A 
ENDBRANCH  11  17
ENDBRANCH   7  11
ENDBRANCH   1   7
BRANCH   5  18
ATOM     18  N   UNL     1       2.677   3.763  18.468  0.00  0.00    +0.000 N 
ATOM     19  C   UNL     1       2.845   2.506  17.801  0.00  0.00    +0.000 C 
ATOM     20  C   UNL     1       2.127   1.963  19.000  0.00  0.00    +0.000 C 
ATOM     21  C   UNL     1       2.076   3.224  19.512  0.00  0.00    +0.000 C 
BRANCH  21  22
ATOM     22  C   UNL     1       1.493   3.715  20.855  0.00  0.00    +0.000 C 
ATOM     23  C   UNL     1       1.329   2.588  21.859  0.00  0.00    +0.000 C 
ATOM     24  F   UNL     1       2.267   4.687  21.408  0.00  0.00    +0.000 F 
ATOM     25  F   UNL     1       0.256   4.267  20.674  0.00  0.00    +0.000 F 
ENDBRANCH  21  22
ENDBRANCH   5  18
TORSDOF 5
ENDMDL
MODEL 5
REMARK VINA RESULT:      -7.5      0.892      1.034
REMARK  Name = 
REMARK  7 active torsions:
REMARK  status: ('A' for Active; 'I' for Inactive)
REMARK    1  A    between atoms: C_1  and  N_2
REMARK    2  A    between atoms: C_6  and  C_7
REMARK    3  A    between atoms: C_7  and  C_8
REMARK    4  A    between atoms: C_8  and  C_9
REMARK    5  A    between atoms: C_13  and  N_14
REMARK    6  A    between atoms: C_17  and  C_18
REMARK    7  A    between atoms: C_18  and  C_19
REMARK                            x       y       z     vdW  Elec       q    Type
REMARK                         _______ _______ _______ _____ _____    ______ ____
ROOT
ATOM      1  C   UNL     1       5.315   6.328  17.925  0.00  0.00    +0.000 A 
ATOM      2  C   UNL     1       4.563   7.289  17.222  0.00  0.00    +0.000 A 
ATOM      3  C   UNL     1       3.192   7.449  17.435  0.00  0.00    +0.000 A 
ATOM      4  C   UNL     1       2.525   6.622  18.336  0.00  0.00    +0.000 A 
ATOM      5  C   UNL     1       3.208   5.620  19.038  0.00  0.00    +0.000 A 
ATOM      6  C   UNL     1       4.592   5.520  18.830  0.00  0.00    +0.000 A 
ENDROOT
BRANCH   1   7
ATOM      7  C   UNL     1       6.916   6.085  17.657  0.00  0.00    +0.000 C 
ATOM      8  C   UNL     1       7.719   7.332  17.132  0.00  0.00    +0.000 C 
ATOM      9  C   UNL     1       8.244   7.576  18.551  0.00  0.00    +0.000 C 
ATOM     10  C   UNL     1       7.826   6.154  18.936  0.00  0.00    +0.000 C 
BRANCH   7  11
ATOM     11  C   UNL     1       7.035   4.767  16.852  0.00  0.00    +0.000 C 
BRANCH  11  17
ATOM     12  C   UNL     1       5.203   3.493  14.582  0.00  0.00    +0.000 C 
ATOM     13  N   UNL     1       6.356   4.335  14.414  0.00  0.00    +0.000 N 
ATOM     14  C   UNL     1       6.806   4.805  13.217  0.00  0.00    +0.000 A 
ATOM     15  N   UNL     1       7.878   5.537  13.407  0.00  0.00    +0.000 NA
ATOM     16  N   UNL     1       8.118   5.574  14.758  0.00  0.00    +0.000 NA
ATOM     17  C   UNL     1       7.196   4.856  15.370  0.00  0.00    +0.000 A 
ENDBRANCH  11  17
ENDBRANCH   7  11
ENDBRANCH   1   7
BRANCH   5  18
ATOM     18  N   UNL     1       2.499   4.732  19.870  0.00  0.00    +0.000 N 
ATOM     19  C   UNL     1       1.495   5.061  20.838  0.00  0.00    +0.000 C 
ATOM     20  C   UNL     1       1.171   3.600  20.753  0.00  0.00    +0.000 C 
ATOM     21  C   UNL     1       2.148   3.460  19.816  0.00  0.00    +0.000 C 
BRANCH  21  22
ATOM     22  C   UNL     1       2.591   2.202  19.038  0.00  0.00    +0.000 C 
ATOM     23  C   UNL     1       2.556   2.411  17.535  0.00  0.00    +0.000 C 
ATOM     24  F   UNL     1       3.842   1.809  19.397  0.00  0.00    +0.000 F 
ATOM     25  F   UNL     1       1.766   1.148  19.310  0.00  0.00    +0.000 F 
ENDBRANCH  21  22
ENDBRANCH   5  18
TORSDOF 5
ENDMDL
MODEL 6
REMARK VINA RESULT:      -7.4      1.980      3.818
REMARK  Name = 
REMARK  7 active torsions:
REMARK  status: ('A' for Active; 'I' for Inactive)
REMARK    1  A    between atoms: C_1  and  N_2
REMARK    2  A    between atoms: C_6  and  C_7
REMARK    3  A    between atoms: C_7  and  C_8
REMARK    4  A    between atoms: C_8  and  C_9
REMARK    5  A    between atoms: C_13  and  N_14
REMARK    6  A    between atoms: C_17  and  C_18
REMARK    7  A    between atoms: C_18  and  C_19
REMARK                            x       y       z     vdW  Elec       q    Type
REMARK                         _______ _______ _______ _____ _____    ______ ____
ROOT
ATOM      1  C   UNL     1       4.817   5.410  16.523  0.00  0.00    +0.000 A 
ATOM      2  C   UNL     1       4.379   6.698  16.890  0.00  0.00    +0.000 A 
ATOM      3  C   UNL     1       3.302   6.888  17.757  0.00  0.00    +0.000 A 
ATOM      4  C   UNL     1       2.605   5.790  18.257  0.00  0.00    +0.000 A 
ATOM      5  C   UNL     1       2.966   4.484  17.900  0.00  0.00    +0.000 A 
ATOM      6  C   UNL     1       4.080   4.332  17.061  0.00  0.00    +0.000 A 
ENDROOT
BRANCH   1   7
ATOM      7  C   UNL     1       6.046   5.159  15.466  0.00  0.00    +0.000 C 
ATOM      8  C   UNL     1       6.329   3.658  15.090  0.00  0.00    +0.000 C 
ATOM      9  C   UNL     1       5.565   3.856  13.776  0.00  0.00    +0.000 C 
ATOM     10  C   UNL     1       5.680   5.372  13.953  0.00  0.00    +0.000 C 
BRANCH   7  11
ATOM     11  C   UNL     1       7.242   6.008  15.965  0.00  0.00    +0.000 C 
BRANCH  11  17
ATOM     12  C   UNL     1       8.031   8.334  17.990  0.00  0.00    +0.000 C 
ATOM     13  N   UNL     1       7.925   6.927  18.263  0.00  0.00    +0.000 N 
ATOM     14  C   UNL     1       8.066   6.363  19.495  0.00  0.00    +0.000 A 
ATOM     15  N   UNL     1       7.918   5.063  19.404  0.00  0.00    +0.000 NA
ATOM     16  N   UNL     1       7.643   4.771  18.090  0.00  0.00    +0.000 NA
ATOM     17  C   UNL     1       7.638   5.896  17.401  0.00  0.00    +0.000 A 
ENDBRANCH  11  17
ENDBRANCH   7  11
ENDBRANCH   1   7
BRANCH   5  18
ATOM     18  N   UNL     1       2.189   3.393  18.337  0.00  0.00    +0.000 N 
ATOM     19  C   UNL     1       2.130   2.082  17.760  0.00  0.00    +0.000 C 
ATOM     20  C   UNL     1       1.509   1.714  19.074  0.00  0.00    +0.000 C 
ATOM     21  C   UNL     1       1.665   3.004  19.484  0.00  0.00    +0.000 C 
BRANCH  21  22
ATOM     22  C   UNL     1       1.312   3.653  20.839  0.00  0.00    +0.000 C 
ATOM     23  C   UNL     1       2.541   4.157  21.574  0.00  0.00    +0.000 C 
ATOM     24  F   UNL     1       0.440   4.684  20.686  0.00  0.00    +0.000 F 
ATOM     25  F   UNL     1       0.700   2.753  21.664  0.00  0.00    +0.000 F 
ENDBRANCH  21  22
ENDBRANCH   5  18
TORSDOF 5
ENDMDL
MODEL 7
REMARK VINA RESULT:      -7.4      3.847      5.864
REMARK  Name = 
REMARK  7 active torsions:
REMARK  status: ('A' for Active; 'I' for Inactive)
REMARK    1  A    between atoms: C_1  and  N_2
REMARK    2  A    between atoms: C_6  and  C_7
REMARK    3  A    between atoms: C_7  and  C_8
REMARK    4  A    between atoms: C_8  and  C_9
REMARK    5  A    between atoms: C_13  and  N_14
REMARK    6  A    between atoms: C_17  and  C_18
REMARK    7  A    between atoms: C_18  and  C_19
REMARK                            x       y       z     vdW  Elec       q    Type
REMARK                         _______ _______ _______ _____ _____    ______ ____
ROOT
ATOM      1  C   UNL     1       2.680   6.001  18.825  0.00  0.00    +0.000 A 
ATOM      2  C   UNL     1       3.087   6.702  17.674  0.00  0.00    +0.000 A 
ATOM      3  C   UNL     1       2.881   8.077  17.540  0.00  0.00    +0.000 A 
ATOM      4  C   UNL     1       2.226   8.786  18.544  0.00  0.00    +0.000 A 
ATOM      5  C   UNL     1       1.762   8.140  19.697  0.00  0.00    +0.000 A 
ATOM      6  C   UNL     1       2.026   6.767  19.815  0.00  0.00    +0.000 A 
ENDROOT
BRANCH   1   7
ATOM      7  C   UNL     1       2.862   4.378  18.986  0.00  0.00    +0.000 C 
ATOM      8  C   UNL     1       2.807   3.826  20.458  0.00  0.00    +0.000 C 
ATOM      9  C   UNL     1       1.355   3.393  20.228  0.00  0.00    +0.000 C 
ATOM     10  C   UNL     1       1.567   3.530  18.718  0.00  0.00    +0.000 C 
BRANCH   7  11
ATOM     11  C   UNL     1       4.084   3.981  18.118  0.00  0.00    +0.000 C 
BRANCH  11  17
ATOM     12  C   UNL     1       6.648   4.486  16.301  0.00  0.00    +0.000 C 
ATOM     13  N   UNL     1       6.506   4.726  17.711  0.00  0.00    +0.000 N 
ATOM     14  C   UNL     1       7.453   5.310  18.498  0.00  0.00    +0.000 A 
ATOM     15  N   UNL     1       7.018   5.378  19.734  0.00  0.00    +0.000 NA
ATOM     16  N   UNL     1       5.748   4.857  19.753  0.00  0.00    +0.000 NA
ATOM     17  C   UNL     1       5.433   4.471  18.531  0.00  0.00    +0.000 A 
ENDBRANCH  11  17
ENDBRANCH   7  11
ENDBRANCH   1   7
BRANCH   5  18
ATOM     18  N   UNL     1       1.016   8.855  20.655  0.00  0.00    +0.000 N 
ATOM     19  C   UNL     1       1.271   8.948  22.063  0.00  0.00    +0.000 C 
ATOM     20  C   UNL     1       0.340  10.120  21.984  0.00  0.00    +0.000 C 
ATOM     21  C   UNL     1       0.227   9.913  20.643  0.00  0.00    +0.000 C 
BRANCH  21  22
ATOM     22  C   UNL     1      -0.574  10.709  19.591  0.00  0.00    +0.000 C 
ATOM     23  C   UNL     1       0.252  11.809  18.949  0.00  0.00    +0.000 C 
ATOM     24  F   UNL     1      -1.057   9.896  18.613  0.00  0.00    +0.000 F 
ATOM     25  F   UNL     1      -1.660  11.311  20.160  0.00  0.00    +0.000 F 
ENDBRANCH  21  22
ENDBRANCH   5  18
TORSDOF 5
ENDMDL
MODEL 8
REMARK VINA RESULT:      -7.4      2.062      3.632
REMARK  Name = 
REMARK  7 active torsions:
REMARK  status: ('A' for Active; 'I' for Inactive)
REMARK    1  A    between atoms: C_1  and  N_2
REMARK    2  A    between atoms: C_6  and  C_7
REMARK    3  A    between atoms: C_7  and  C_8
REMARK    4  A    between atoms: C_8  and  C_9
REMARK    5  A    between atoms: C_13  and  N_14
REMARK    6  A    between atoms: C_17  and  C_18
REMARK    7  A    between atoms: C_18  and  C_19
REMARK                            x       y       z     vdW  Elec       q    Type
REMARK                         _______ _______ _______ _____ _____    ______ ____
ROOT
ATOM      1  C   UNL     1       4.685   5.338  16.912  0.00  0.00    +0.000 A 
ATOM      2  C   UNL     1       4.437   6.718  17.039  0.00  0.00    +0.000 A 
ATOM      3  C   UNL     1       3.343   7.205  17.756  0.00  0.00    +0.000 A 
ATOM      4  C   UNL     1       2.440   6.319  18.340  0.00  0.00    +0.000 A 
ATOM      5  C   UNL     1       2.608   4.934  18.217  0.00  0.00    +0.000 A 
ATOM      6  C   UNL     1       3.743   4.483  17.527  0.00  0.00    +0.000 A 
ENDROOT
BRANCH   1   7
ATOM      7  C   UNL     1       5.934   4.738  16.033  0.00  0.00    +0.000 C 
ATOM      8  C   UNL     1       5.675   3.351  15.335  0.00  0.00    +0.000 C 
ATOM      9  C   UNL     1       5.413   4.080  14.012  0.00  0.00    +0.000 C 
ATOM     10  C   UNL     1       6.079   5.333  14.586  0.00  0.00    +0.000 C 
BRANCH   7  11
ATOM     11  C   UNL     1       7.201   4.869  16.914  0.00  0.00    +0.000 C 
BRANCH  11  17
ATOM     12  C   UNL     1       7.998   5.672  19.890  0.00  0.00    +0.000 C 
ATOM     13  N   UNL     1       7.942   6.523  18.732  0.00  0.00    +0.000 N 
ATOM     14  C   UNL     1       8.319   7.832  18.713  0.00  0.00    +0.000 A 
ATOM     15  N   UNL     1       8.140   8.324  17.510  0.00  0.00    +0.000 NA
ATOM     16  N   UNL     1       7.666   7.309  16.716  0.00  0.00    +0.000 NA
ATOM     17  C   UNL     1       7.553   6.218  17.450  0.00  0.00    +0.000 A 
ENDBRANCH  11  17
ENDBRANCH   7  11
ENDBRANCH   1   7
BRANCH   5  18
ATOM     18  N   UNL     1       1.633   4.056  18.730  0.00  0.00    +0.000 N 
ATOM     19  C   UNL     1       0.672   3.294  17.988  0.00  0.00    +0.000 C 
ATOM     20  C   UNL     1       0.546   2.521  19.266  0.00  0.00    +0.000 C 
ATOM     21  C   UNL     1       1.499   3.321  19.818  0.00  0.00    +0.000 C 
BRANCH  21  22
ATOM     22  C   UNL     1       2.121   3.277  21.231  0.00  0.00    +0.000 C 
ATOM     23  C   UNL     1       3.399   2.459  21.274  0.00  0.00    +0.000 C 
ATOM     24  F   UNL     1       2.384   4.526  21.699  0.00  0.00    +0.000 F 
ATOM     25  F   UNL     1       1.257   2.708  22.124  0.00  0.00    +0.000 F 
ENDBRANCH  21  22
ENDBRANCH   5  18
TORSDOF 5
ENDMDL
MODEL 9
REMARK VINA RESULT:      -7.4      2.465      3.853
REMARK  Name = 
REMARK  7 active torsions:
REMARK  status: ('A' for Active; 'I' for Inactive)
REMARK    1  A    between atoms: C_1  and  N_2
REMARK    2  A    between atoms: C_6  and  C_7
REMARK    3  A    between atoms: C_7  and  C_8
REMARK    4  A    between atoms: C_8  and  C_9
REMARK    5  A    between atoms: C_13  and  N_14
REMARK    6  A    between atoms: C_17  and  C_18
REMARK    7  A    between atoms: C_18  and  C_19
REMARK                            x       y       z     vdW  Elec       q    Type
REMARK                         _______ _______ _______ _____ _____    ______ ____
ROOT
ATOM      1  C   UNL     1       4.509   4.657  17.313  0.00  0.00    +0.000 A 
ATOM      2  C   UNL     1       3.779   3.460  17.181  0.00  0.00    +0.000 A 
ATOM      3  C   UNL     1       2.485   3.328  17.689  0.00  0.00    +0.000 A 
ATOM      4  C   UNL     1       1.896   4.383  18.380  0.00  0.00    +0.000 A 
ATOM      5  C   UNL     1       2.583   5.588  18.581  0.00  0.00    +0.000 A 
ATOM      6  C   UNL     1       3.863   5.698  18.018  0.00  0.00    +0.000 A 
ENDROOT
BRANCH   1   7
ATOM      7  C   UNL     1       6.049   4.823  16.771  0.00  0.00    +0.000 C 
ATOM      8  C   UNL     1       6.596   6.296  16.705  0.00  0.00    +0.000 C 
ATOM      9  C   UNL     1       7.344   6.064  18.023  0.00  0.00    +0.000 C 
ATOM     10  C   UNL     1       7.166   4.554  17.842  0.00  0.00    +0.000 C 
BRANCH   7  11
ATOM     11  C   UNL     1       6.163   3.959  15.490  0.00  0.00    +0.000 C 
BRANCH  11  17
ATOM     12  C   UNL     1       5.859   3.304  12.390  0.00  0.00    +0.000 C 
ATOM     13  N   UNL     1       6.766   4.230  13.009  0.00  0.00    +0.000 N 
ATOM     14  C   UNL     1       7.605   5.064  12.334  0.00  0.00    +0.000 A 
ATOM     15  N   UNL     1       8.303   5.774  13.188  0.00  0.00    +0.000 NA
ATOM     16  N   UNL     1       7.891   5.423  14.449  0.00  0.00    +0.000 NA
ATOM     17  C   UNL     1       6.957   4.496  14.345  0.00  0.00    +0.000 A 
ENDBRANCH  11  17
ENDBRANCH   7  11
ENDBRANCH   1   7
BRANCH   5  18
ATOM     18  N   UNL     1       2.008   6.606  19.366  0.00  0.00    +0.000 N 
ATOM     19  C   UNL     1       1.904   6.649  20.795  0.00  0.00    +0.000 C 
ATOM     20  C   UNL     1       1.639   8.106  20.566  0.00  0.00    +0.000 C 
ATOM     21  C   UNL     1       1.798   7.902  19.229  0.00  0.00    +0.000 C 
BRANCH  21  22
ATOM     22  C   UNL     1       1.733   8.916  18.066  0.00  0.00    +0.000 C 
ATOM     23  C   UNL     1       1.643  10.350  18.556  0.00  0.00    +0.000 C 
ATOM     24  F   UNL     1       2.810   8.801  17.244  0.00  0.00    +0.000 F 
ATOM     25  F   UNL     1       0.632   8.694  17.289  0.00  0.00    +0.000 F 
ENDBRANCH  21  22
ENDBRANCH   5  18
TORSDOF 5
ENDMDL
