MODEL 1
REMARK VINA RESULT:      -7.5      0.000      0.000
REMARK  Name = 
REMARK  4 active torsions:
REMARK  status: ('A' for Active; 'I' for Inactive)
REMARK    1  A    between atoms: C_2  and  C_3
REMARK    2  A    between atoms: C_11  and  C_12
REMARK    3  A    between atoms: C_14  and  C_15
REMARK    4  A    between atoms: C_20  and  C_21
REMARK                            x       y       z     vdW  Elec       q    Type
REMARK                         _______ _______ _______ _____ _____    ______ ____
ROOT
ATOM      1  O   UNL     1       7.886   4.228  16.917  0.00  0.00    +0.000 OA
ATOM      2  C   UNL     1       7.107   4.869  16.217  0.00  0.00    +0.000 C 
ATOM      3  N   UNL     1       6.145   5.687  16.784  0.00  0.00    +0.000 N 
ATOM      4  C   UNL     1       6.164   6.041  18.194  0.00  0.00    +0.000 C 
ATOM      5  C   UNL     1       4.711   5.921  18.648  0.00  0.00    +0.000 C 
ATOM      6  C   UNL     1       3.894   6.285  17.387  0.00  0.00    +0.000 C 
ATOM      7  C   UNL     1       4.785   5.793  16.237  0.00  0.00    +0.000 C 
ENDROOT
BRANCH   2   8
ATOM      8  C   UNL     1       7.067   4.727  14.786  0.00  0.00    +0.000 A 
ATOM      9  C   UNL     1       6.319   3.864  13.992  0.00  0.00    +0.000 A 
ATOM     10  C   UNL     1       6.727   4.063  12.666  0.00  0.00    +0.000 A 
ATOM     11  F   UNL     1       6.304   3.392  11.634  0.00  0.00    +0.000 F 
ATOM     12  C   UNL     1       7.655   5.069  12.634  0.00  0.00    +0.000 A 
ATOM     13  N   UNL     1       7.809   5.511  13.922  0.00  0.00    +0.000 N 
ATOM     14  H   UNL     1       8.423   6.260  14.222  0.00  0.00    +0.000 HD
ENDBRANCH   2   8
BRANCH   5  15
ATOM     15  C   UNL     1       4.404   4.550  19.171  0.00  0.00    +0.000 A 
ATOM     16  N   UNL     1       3.221   4.110  19.551  0.00  0.00    +0.000 NA
ATOM     17  C   UNL     1       3.496   2.875  20.090  0.00  0.00    +0.000 A 
ATOM     18  N   UNL     1       4.782   2.503  20.016  0.00  0.00    +0.000 NA
ATOM     19  N   UNL     1       5.337   3.579  19.446  0.00  0.00    +0.000 N 
ATOM     20  H   UNL     1       6.345   3.606  19.333  0.00  0.00    +0.000 HD
BRANCH  17  21
ATOM     21  C   UNL     1       2.435   2.016  20.753  0.00  0.00    +0.000 C 
ATOM     22  C   UNL     1       1.000   2.502  20.737  0.00  0.00    +0.000 C 
ATOM     23  C   UNL     1       1.770   2.543  22.011  0.00  0.00    +0.000 C 
ENDBRANCH  17  21
ENDBRANCH   5  15
BRANCH   6  24
ATOM     24  C   UNL     1       3.645   7.779  17.252  0.00  0.00    +0.000 C 
ATOM     25  C   UNL     1       3.161   8.598  18.421  0.00  0.00    +0.000 C 
ATOM     26  C   UNL     1       2.230   8.316  17.279  0.00  0.00    +0.000 C 
ENDBRANCH   6  24
TORSDOF 4
ENDMDL
MODEL 2
REMARK VINA RESULT:      -7.3      3.500      6.975
REMARK  Name = 
REMARK  4 active torsions:
REMARK  status: ('A' for Active; 'I' for Inactive)
REMARK    1  A    between atoms: C_2  and  C_3
REMARK    2  A    between atoms: C_11  and  C_12
REMARK    3  A    between atoms: C_14  and  C_15
REMARK    4  A    between atoms: C_20  and  C_21
REMARK                            x       y       z     vdW  Elec       q    Type
REMARK                         _______ _______ _______ _____ _____    ______ ____
ROOT
ATOM      1  O   UNL     1       5.979   4.407  20.263  0.00  0.00    +0.000 OA
ATOM      2  C   UNL     1       5.154   4.481  19.356  0.00  0.00    +0.000 C 
ATOM      3  N   UNL     1       5.546   4.726  18.052  0.00  0.00    +0.000 N 
ATOM      4  C   UNL     1       6.935   4.649  17.634  0.00  0.00    +0.000 C 
ATOM      5  C   UNL     1       7.143   5.863  16.732  0.00  0.00    +0.000 C 
ATOM      6  C   UNL     1       5.761   6.080  16.075  0.00  0.00    +0.000 C 
ATOM      7  C   UNL     1       4.778   5.603  17.155  0.00  0.00    +0.000 C 
ENDROOT
BRANCH   2   8
ATOM      8  C   UNL     1       3.737   4.433  19.603  0.00  0.00    +0.000 A 
ATOM      9  C   UNL     1       2.807   3.446  19.298  0.00  0.00    +0.000 A 
ATOM     10  C   UNL     1       1.546   3.937  19.663  0.00  0.00    +0.000 A 
ATOM     11  F   UNL     1       0.411   3.327  19.473  0.00  0.00    +0.000 F 
ATOM     12  C   UNL     1       1.699   5.168  20.241  0.00  0.00    +0.000 A 
ATOM     13  N   UNL     1       3.043   5.436  20.257  0.00  0.00    +0.000 N 
ATOM     14  H   UNL     1       3.477   6.272  20.633  0.00  0.00    +0.000 HD
ENDBRANCH   2   8
BRANCH   5  15
ATOM     15  C   UNL     1       7.619   7.056  17.505  0.00  0.00    +0.000 A 
ATOM     16  N   UNL     1       7.583   8.309  17.101  0.00  0.00    +0.000 NA
ATOM     17  C   UNL     1       8.272   8.983  18.081  0.00  0.00    +0.000 A 
ATOM     18  N   UNL     1       8.689   8.220  19.101  0.00  0.00    +0.000 NA
ATOM     19  N   UNL     1       8.278   7.007  18.710  0.00  0.00    +0.000 N 
ATOM     20  H   UNL     1       8.529   6.201  19.273  0.00  0.00    +0.000 HD
BRANCH  17  21
ATOM     21  C   UNL     1       8.574  10.468  17.998  0.00  0.00    +0.000 C 
ATOM     22  C   UNL     1      10.022  10.906  17.927  0.00  0.00    +0.000 C 
ATOM     23  C   UNL     1       9.254  11.128  19.183  0.00  0.00    +0.000 C 
ENDBRANCH  17  21
ENDBRANCH   5  15
BRANCH   6  24
ATOM     24  C   UNL     1       5.573   5.267  14.804  0.00  0.00    +0.000 C 
ATOM     25  C   UNL     1       6.050   3.840  14.713  0.00  0.00    +0.000 C 
ATOM     26  C   UNL     1       6.772   4.911  13.949  0.00  0.00    +0.000 C 
ENDBRANCH   6  24
TORSDOF 4
ENDMDL
MODEL 3
REMARK VINA RESULT:      -7.2      1.927      2.776
REMARK  Name = 
REMARK  4 active torsions:
REMARK  status: ('A' for Active; 'I' for Inactive)
REMARK    1  A    between atoms: C_2  and  C_3
REMARK    2  A    between atoms: C_11  and  C_12
REMARK    3  A    between atoms: C_14  and  C_15
REMARK    4  A    between atoms: C_20  and  C_21
REMARK                            x       y       z     vdW  Elec       q    Type
REMARK                         _______ _______ _______ _____ _____    ______ ____
ROOT
ATOM      1  O   UNL     1       5.249   2.623  16.349  0.00  0.00    +0.000 OA
ATOM      2  C   UNL     1       5.770   3.567  15.761  0.00  0.00    +0.000 C 
ATOM      3  N   UNL     1       6.270   4.653  16.457  0.00  0.00    +0.000 N 
ATOM      4  C   UNL     1       6.451   4.632  17.899  0.00  0.00    +0.000 C 
ATOM      5  C   UNL     1       5.945   5.990  18.379  0.00  0.00    +0.000 C 
ATOM      6  C   UNL     1       6.255   6.941  17.201  0.00  0.00    +0.000 C 
ATOM      7  C   UNL     1       6.122   6.032  15.970  0.00  0.00    +0.000 C 
ENDROOT
BRANCH   2   8
ATOM      8  C   UNL     1       5.791   3.659  14.326  0.00  0.00    +0.000 A 
ATOM      9  C   UNL     1       4.740   3.714  13.416  0.00  0.00    +0.000 A 
ATOM     10  C   UNL     1       5.303   3.695  12.132  0.00  0.00    +0.000 A 
ATOM     11  F   UNL     1       4.638   3.668  11.014  0.00  0.00    +0.000 F 
ATOM     12  C   UNL     1       6.667   3.695  12.245  0.00  0.00    +0.000 A 
ATOM     13  N   UNL     1       6.956   3.737  13.584  0.00  0.00    +0.000 N 
ATOM     14  H   UNL     1       7.885   3.758  13.991  0.00  0.00    +0.000 HD
ENDBRANCH   2   8
BRANCH   5  15
ATOM     15  C   UNL     1       4.488   5.948  18.731  0.00  0.00    +0.000 A 
ATOM     16  N   UNL     1       3.963   5.381  19.798  0.00  0.00    +0.000 NA
ATOM     17  C   UNL     1       2.609   5.473  19.577  0.00  0.00    +0.000 A 
ATOM     18  N   UNL     1       2.266   6.116  18.452  0.00  0.00    +0.000 NA
ATOM     19  N   UNL     1       3.466   6.394  17.928  0.00  0.00    +0.000 N 
ATOM     20  H   UNL     1       3.511   6.826  17.011  0.00  0.00    +0.000 HD
BRANCH  17  21
ATOM     21  C   UNL     1       1.582   4.861  20.512  0.00  0.00    +0.000 C 
ATOM     22  C   UNL     1       1.996   3.677  21.362  0.00  0.00    +0.000 C 
ATOM     23  C   UNL     1       1.080   3.462  20.207  0.00  0.00    +0.000 C 
ENDBRANCH  17  21
ENDBRANCH   5  15
BRANCH   6  24
ATOM     24  C   UNL     1       7.656   7.529  17.266  0.00  0.00    +0.000 C 
ATOM     25  C   UNL     1       8.340   7.772  18.586  0.00  0.00    +0.000 C 
ATOM     26  C   UNL     1       7.862   8.940  17.774  0.00  0.00    +0.000 C 
ENDBRANCH   6  24
TORSDOF 4
ENDMDL
MODEL 4
REMARK VINA RESULT:      -6.8      1.996      2.894
REMARK  Name = 
REMARK  4 active torsions:
REMARK  status: ('A' for Active; 'I' for Inactive)
REMARK    1  A    between atoms: C_2  and  C_3
REMARK    2  A    between atoms: C_11  and  C_12
REMARK    3  A    between atoms: C_14  and  C_15
REMARK    4  A    between atoms: C_20  and  C_21
REMARK                            x       y       z     vdW  Elec       q    Type
REMARK                         _______ _______ _______ _____ _____    ______ ____
ROOT
ATOM      1  O   UNL     1       5.618   2.733  16.199  0.00  0.00    +0.000 OA
ATOM      2  C   UNL     1       6.180   3.693  15.678  0.00  0.00    +0.000 C 
ATOM      3  N   UNL     1       6.601   4.771  16.436  0.00  0.00    +0.000 N 
ATOM      4  C   UNL     1       6.647   4.726  17.888  0.00  0.00    +0.000 C 
ATOM      5  C   UNL     1       6.082   6.070  18.341  0.00  0.00    +0.000 C 
ATOM      6  C   UNL     1       6.490   7.045  17.213  0.00  0.00    +0.000 C 
ATOM      7  C   UNL     1       6.482   6.157  15.960  0.00  0.00    +0.000 C 
ENDROOT
BRANCH   2   8
ATOM      8  C   UNL     1       6.334   3.810  14.253  0.00  0.00    +0.000 A 
ATOM      9  C   UNL     1       7.199   4.603  13.507  0.00  0.00    +0.000 A 
ATOM     10  C   UNL     1       6.874   4.415  12.156  0.00  0.00    +0.000 A 
ATOM     11  F   UNL     1       7.420   5.037  11.152  0.00  0.00    +0.000 F 
ATOM     12  C   UNL     1       5.879   3.480  12.066  0.00  0.00    +0.000 A 
ATOM     13  N   UNL     1       5.599   3.070  13.343  0.00  0.00    +0.000 N 
ATOM     14  H   UNL     1       4.911   2.373  13.606  0.00  0.00    +0.000 HD
ENDBRANCH   2   8
BRANCH   5  15
ATOM     15  C   UNL     1       4.600   6.007  18.555  0.00  0.00    +0.000 A 
ATOM     16  N   UNL     1       3.971   5.240  19.422  0.00  0.00    +0.000 NA
ATOM     17  C   UNL     1       2.645   5.430  19.117  0.00  0.00    +0.000 A 
ATOM     18  N   UNL     1       2.414   6.317  18.138  0.00  0.00    +0.000 NA
ATOM     19  N   UNL     1       3.661   6.657  17.790  0.00  0.00    +0.000 N 
ATOM     20  H   UNL     1       3.794   7.279  16.999  0.00  0.00    +0.000 HD
BRANCH  17  21
ATOM     21  C   UNL     1       1.527   4.667  19.805  0.00  0.00    +0.000 C 
ATOM     22  C   UNL     1       1.893   3.472  20.663  0.00  0.00    +0.000 C 
ATOM     23  C   UNL     1       1.239   3.250  19.344  0.00  0.00    +0.000 C 
ENDBRANCH  17  21
ENDBRANCH   5  15
BRANCH   6  24
ATOM     24  C   UNL     1       7.871   7.646  17.418  0.00  0.00    +0.000 C 
ATOM     25  C   UNL     1       8.395   7.945  18.799  0.00  0.00    +0.000 C 
ATOM     26  C   UNL     1       8.012   9.078  17.892  0.00  0.00    +0.000 C 
ENDBRANCH   6  24
TORSDOF 4
ENDMDL
MODEL 5
REMARK VINA RESULT:      -6.8      3.166      6.788
REMARK  Name = 
REMARK  4 active torsions:
REMARK  status: ('A' for Active; 'I' for Inactive)
REMARK    1  A    between atoms: C_2  and  C_3
REMARK    2  A    between atoms: C_11  and  C_12
REMARK    3  A    between atoms: C_14  and  C_15
REMARK    4  A    between atoms: C_20  and  C_21
REMARK                            x       y       z     vdW  Elec       q    Type
REMARK                         _______ _______ _______ _____ _____    ______ ____
ROOT
ATOM      1  O   UNL     1       2.180   5.555  17.086  0.00  0.00    +0.000 OA
ATOM      2  C   UNL     1       2.812   5.088  18.030  0.00  0.00    +0.000 C 
ATOM      3  N   UNL     1       4.133   5.440  18.250  0.00  0.00    +0.000 N 
ATOM      4  C   UNL     1       4.761   6.554  17.560  0.00  0.00    +0.000 C 
ATOM      5  C   UNL     1       6.142   6.041  17.161  0.00  0.00    +0.000 C 
ATOM      6  C   UNL     1       6.504   5.036  18.279  0.00  0.00    +0.000 C 
ATOM      7  C   UNL     1       5.140   4.466  18.694  0.00  0.00    +0.000 C 
ENDROOT
BRANCH   2   8
ATOM      8  C   UNL     1       2.267   4.073  18.891  0.00  0.00    +0.000 A 
ATOM      9  C   UNL     1       1.775   4.167  20.189  0.00  0.00    +0.000 A 
ATOM     10  C   UNL     1       1.458   2.867  20.607  0.00  0.00    +0.000 A 
ATOM     11  F   UNL     1       1.030   2.535  21.790  0.00  0.00    +0.000 F 
ATOM     12  C   UNL     1       1.684   2.000  19.572  0.00  0.00    +0.000 A 
ATOM     13  N   UNL     1       2.117   2.751  18.510  0.00  0.00    +0.000 N 
ATOM     14  H   UNL     1       2.358   2.396  17.592  0.00  0.00    +0.000 HD
ENDBRANCH   2   8
BRANCH   5  15
ATOM     15  C   UNL     1       6.133   5.421  15.796  0.00  0.00    +0.000 A 
ATOM     16  N   UNL     1       5.176   4.672  15.289  0.00  0.00    +0.000 NA
ATOM     17  C   UNL     1       5.710   4.227  14.103  0.00  0.00    +0.000 A 
ATOM     18  N   UNL     1       6.930   4.705  13.821  0.00  0.00    +0.000 NA
ATOM     19  N   UNL     1       7.183   5.444  14.909  0.00  0.00    +0.000 N 
ATOM     20  H   UNL     1       8.095   5.878  15.003  0.00  0.00    +0.000 HD
BRANCH  17  21
ATOM     21  C   UNL     1       4.993   3.241  13.199  0.00  0.00    +0.000 C 
ATOM     22  C   UNL     1       5.695   2.776  11.939  0.00  0.00    +0.000 C 
ATOM     23  C   UNL     1       4.547   3.718  11.829  0.00  0.00    +0.000 C 
ENDBRANCH  17  21
ENDBRANCH   5  15
BRANCH   6  24
ATOM     24  C   UNL     1       7.179   5.694  19.472  0.00  0.00    +0.000 C 
ATOM     25  C   UNL     1       8.315   6.667  19.287  0.00  0.00    +0.000 C 
ATOM     26  C   UNL     1       8.593   5.304  19.852  0.00  0.00    +0.000 C 
ENDBRANCH   6  24
TORSDOF 4
ENDMDL
MODEL 6
REMARK VINA RESULT:      -6.6      3.495      5.572
REMARK  Name = 
REMARK  4 active torsions:
REMARK  status: ('A' for Active; 'I' for Inactive)
REMARK    1  A    between atoms: C_2  and  C_3
REMARK    2  A    between atoms: C_11  and  C_12
REMARK    3  A    between atoms: C_14  and  C_15
REMARK    4  A    between atoms: C_20  and  C_21
REMARK                            x       y       z     vdW  Elec       q    Type
REMARK                         _______ _______ _______ _____ _____    ______ ____
ROOT
ATOM      1  O   UNL     1       4.164   7.183  16.886  0.00  0.00    +0.000 OA
ATOM      2  C   UNL     1       4.513   6.251  17.606  0.00  0.00    +0.000 C 
ATOM      3  N   UNL     1       3.595   5.566  18.383  0.00  0.00    +0.000 N 
ATOM      4  C   UNL     1       2.162   5.721  18.203  0.00  0.00    +0.000 C 
ATOM      5  C   UNL     1       1.596   5.812  19.618  0.00  0.00    +0.000 C 
ATOM      6  C   UNL     1       2.556   4.942  20.461  0.00  0.00    +0.000 C 
ATOM      7  C   UNL     1       3.905   5.115  19.747  0.00  0.00    +0.000 C 
ENDROOT
BRANCH   2   8
ATOM      8  C   UNL     1       5.895   5.889  17.776  0.00  0.00    +0.000 A 
ATOM      9  C   UNL     1       6.551   4.697  17.487  0.00  0.00    +0.000 A 
ATOM     10  C   UNL     1       7.873   4.833  17.934  0.00  0.00    +0.000 A 
ATOM     11  F   UNL     1       8.784   3.904  17.901  0.00  0.00    +0.000 F 
ATOM     12  C   UNL     1       8.047   6.099  18.426  0.00  0.00    +0.000 A 
ATOM     13  N   UNL     1       6.855   6.756  18.268  0.00  0.00    +0.000 N 
ATOM     14  H   UNL     1       6.669   7.718  18.527  0.00  0.00    +0.000 HD
ENDBRANCH   2   8
BRANCH   5  15
ATOM     15  C   UNL     1       1.518   7.231  20.096  0.00  0.00    +0.000 A 
ATOM     16  N   UNL     1       1.247   7.625  21.323  0.00  0.00    +0.000 NA
ATOM     17  C   UNL     1       1.134   8.989  21.206  0.00  0.00    +0.000 A 
ATOM     18  N   UNL     1       1.373   9.470  19.978  0.00  0.00    +0.000 NA
ATOM     19  N   UNL     1       1.599   8.343  19.292  0.00  0.00    +0.000 N 
ATOM     20  H   UNL     1       1.740   8.402  18.289  0.00  0.00    +0.000 HD
BRANCH  17  21
ATOM     21  C   UNL     1       0.731   9.882  22.366  0.00  0.00    +0.000 C 
ATOM     22  C   UNL     1      -0.404   9.429  23.263  0.00  0.00    +0.000 C 
ATOM     23  C   UNL     1      -0.628  10.554  22.313  0.00  0.00    +0.000 C 
ENDBRANCH  17  21
ENDBRANCH   5  15
BRANCH   6  24
ATOM     24  C   UNL     1       2.162   3.474  20.483  0.00  0.00    +0.000 C 
ATOM     25  C   UNL     1       0.718   3.055  20.581  0.00  0.00    +0.000 C 
ATOM     26  C   UNL     1       1.627   2.853  21.757  0.00  0.00    +0.000 C 
ENDBRANCH   6  24
TORSDOF 4
ENDMDL
MODEL 7
REMARK VINA RESULT:      -6.6      3.267      6.908
REMARK  Name = 
REMARK  4 active torsions:
REMARK  status: ('A' for Active; 'I' for Inactive)
REMARK    1  A    between atoms: C_2  and  C_3
REMARK    2  A    between atoms: C_11  and  C_12
REMARK    3  A    between atoms: C_14  and  C_15
REMARK    4  A    between atoms: C_20  and  C_21
REMARK                            x       y       z     vdW  Elec       q    Type
REMARK                         _______ _______ _______ _____ _____    ______ ____
ROOT
ATOM      1  O   UNL     1       5.877   4.461  19.954  0.00  0.00    +0.000 OA
ATOM      2  C   UNL     1       5.178   4.114  19.005  0.00  0.00    +0.000 C 
ATOM      3  N   UNL     1       5.669   4.132  17.712  0.00  0.00    +0.000 N 
ATOM      4  C   UNL     1       7.083   4.301  17.423  0.00  0.00    +0.000 C 
ATOM      5  C   UNL     1       7.130   5.279  16.252  0.00  0.00    +0.000 C 
ATOM      6  C   UNL     1       5.830   4.988  15.470  0.00  0.00    +0.000 C 
ATOM      7  C   UNL     1       4.847   4.555  16.568  0.00  0.00    +0.000 C 
ENDROOT
BRANCH   2   8
ATOM      8  C   UNL     1       3.787   3.779  19.160  0.00  0.00    +0.000 A 
ATOM      9  C   UNL     1       2.723   4.555  19.608  0.00  0.00    +0.000 A 
ATOM     10  C   UNL     1       1.597   3.722  19.663  0.00  0.00    +0.000 A 
ATOM     11  F   UNL     1       0.420   4.068  20.098  0.00  0.00    +0.000 F 
ATOM     12  C   UNL     1       1.940   2.481  19.198  0.00  0.00    +0.000 A 
ATOM     13  N   UNL     1       3.260   2.543  18.835  0.00  0.00    +0.000 N 
ATOM     14  H   UNL     1       3.803   1.782  18.442  0.00  0.00    +0.000 HD
ENDBRANCH   2   8
BRANCH   5  15
ATOM     15  C   UNL     1       7.229   6.701  16.718  0.00  0.00    +0.000 A 
ATOM     16  N   UNL     1       8.259   7.248  17.331  0.00  0.00    +0.000 NA
ATOM     17  C   UNL     1       7.797   8.493  17.686  0.00  0.00    +0.000 A 
ATOM     18  N   UNL     1       6.550   8.768  17.278  0.00  0.00    +0.000 NA
ATOM     19  N   UNL     1       6.207   7.619  16.682  0.00  0.00    +0.000 N 
ATOM     20  H   UNL     1       5.260   7.513  16.335  0.00  0.00    +0.000 HD
BRANCH  17  21
ATOM     21  C   UNL     1       8.618   9.468  18.509  0.00  0.00    +0.000 C 
ATOM     22  C   UNL     1       8.376  10.952  18.321  0.00  0.00    +0.000 C 
ATOM     23  C   UNL     1       9.626  10.344  17.787  0.00  0.00    +0.000 C 
ENDBRANCH  17  21
ENDBRANCH   5  15
BRANCH   6  24
ATOM     24  C   UNL     1       5.990   3.877  14.445  0.00  0.00    +0.000 C 
ATOM     25  C   UNL     1       6.780   4.089  13.179  0.00  0.00    +0.000 C 
ATOM     26  C   UNL     1       5.286   3.973  13.107  0.00  0.00    +0.000 C 
ENDBRANCH   6  24
TORSDOF 4
ENDMDL
MODEL 8
REMARK VINA RESULT:      -6.6      2.838      6.584
REMARK  Name = 
REMARK  4 active torsions:
REMARK  status: ('A' for Active; 'I' for Inactive)
REMARK    1  A    between atoms: C_2  and  C_3
REMARK    2  A    between atoms: C_11  and  C_12
REMARK    3  A    between atoms: C_14  and  C_15
REMARK    4  A    between atoms: C_20  and  C_21
REMARK                            x       y       z     vdW  Elec       q    Type
REMARK                         _______ _______ _______ _____ _____    ______ ____
ROOT
ATOM      1  O   UNL     1       2.710   4.251  17.110  0.00  0.00    +0.000 OA
ATOM      2  C   UNL     1       3.559   4.466  17.972  0.00  0.00    +0.000 C 
ATOM      3  N   UNL     1       4.524   5.441  17.796  0.00  0.00    +0.000 N 
ATOM      4  C   UNL     1       4.441   6.428  16.733  0.00  0.00    +0.000 C 
ATOM      5  C   UNL     1       5.858   6.520  16.170  0.00  0.00    +0.000 C 
ATOM      6  C   UNL     1       6.762   6.223  17.388  0.00  0.00    +0.000 C 
ATOM      7  C   UNL     1       5.917   5.252  18.226  0.00  0.00    +0.000 C 
ENDROOT
BRANCH   2   8
ATOM      8  C   UNL     1       3.674   3.653  19.154  0.00  0.00    +0.000 A 
ATOM      9  C   UNL     1       4.704   2.815  19.568  0.00  0.00    +0.000 A 
ATOM     10  C   UNL     1       4.275   2.180  20.741  0.00  0.00    +0.000 A 
ATOM     11  F   UNL     1       4.936   1.269  21.395  0.00  0.00    +0.000 F 
ATOM     12  C   UNL     1       3.039   2.661  21.080  0.00  0.00    +0.000 A 
ATOM     13  N   UNL     1       2.708   3.605  20.142  0.00  0.00    +0.000 N 
ATOM     14  H   UNL     1       1.854   4.151  20.126  0.00  0.00    +0.000 HD
ENDBRANCH   2   8
BRANCH   5  15
ATOM     15  C   UNL     1       6.069   5.564  15.035  0.00  0.00    +0.000 A 
ATOM     16  N   UNL     1       5.152   4.791  14.489  0.00  0.00    +0.000 NA
ATOM     17  C   UNL     1       5.871   4.005  13.621  0.00  0.00    +0.000 A 
ATOM     18  N   UNL     1       7.180   4.285  13.560  0.00  0.00    +0.000 NA
ATOM     19  N   UNL     1       7.284   5.262  14.469  0.00  0.00    +0.000 N 
ATOM     20  H   UNL     1       8.205   5.626  14.692  0.00  0.00    +0.000 HD
BRANCH  17  21
ATOM     21  C   UNL     1       5.241   2.879  12.821  0.00  0.00    +0.000 C 
ATOM     22  C   UNL     1       5.861   2.505  11.490  0.00  0.00    +0.000 C 
ATOM     23  C   UNL     1       4.557   3.226  11.511  0.00  0.00    +0.000 C 
ENDBRANCH  17  21
ENDBRANCH   5  15
BRANCH   6  24
ATOM     24  C   UNL     1       7.090   7.464  18.201  0.00  0.00    +0.000 C 
ATOM     25  C   UNL     1       7.807   8.637  17.582  0.00  0.00    +0.000 C 
ATOM     26  C   UNL     1       8.527   7.769  18.573  0.00  0.00    +0.000 C 
ENDBRANCH   6  24
TORSDOF 4
ENDMDL
MODEL 9
REMARK VINA RESULT:      -6.5      7.569     10.108
REMARK  Name = 
REMARK  4 active torsions:
REMARK  status: ('A' for Active; 'I' for Inactive)
REMARK    1  A    between atoms: C_2  and  C_3
REMARK    2  A    between atoms: C_11  and  C_12
REMARK    3  A    between atoms: C_14  and  C_15
REMARK    4  A    between atoms: C_20  and  C_21
REMARK                            x       y       z     vdW  Elec       q    Type
REMARK                         _______ _______ _______ _____ _____    ______ ____
ROOT
ATOM      1  O   UNL     1       1.046  11.462  20.978  0.00  0.00    +0.000 OA
ATOM      2  C   UNL     1       0.680  10.672  20.112  0.00  0.00    +0.000 C 
ATOM      3  N   UNL     1      -0.273  11.030  19.175  0.00  0.00    +0.000 N 
ATOM      4  C   UNL     1      -0.697  12.407  18.990  0.00  0.00    +0.000 C 
ATOM      5  C   UNL     1      -2.215  12.335  18.846  0.00  0.00    +0.000 C 
ATOM      6  C   UNL     1      -2.462  10.963  18.180  0.00  0.00    +0.000 C 
ATOM      7  C   UNL     1      -1.315  10.097  18.721  0.00  0.00    +0.000 C 
ENDROOT
BRANCH   2   8
ATOM      8  C   UNL     1       1.126   9.304  20.085  0.00  0.00    +0.000 A 
ATOM      9  C   UNL     1       0.962   8.289  21.021  0.00  0.00    +0.000 A 
ATOM     10  C   UNL     1       1.674   7.176  20.554  0.00  0.00    +0.000 A 
ATOM     11  F   UNL     1       1.816   6.047  21.187  0.00  0.00    +0.000 F 
ATOM     12  C   UNL     1       2.210   7.473  19.330  0.00  0.00    +0.000 A 
ATOM     13  N   UNL     1       1.818   8.750  19.023  0.00  0.00    +0.000 N 
ATOM     14  H   UNL     1       2.048   9.253  18.173  0.00  0.00    +0.000 HD
ENDBRANCH   2   8
BRANCH   5  15
ATOM     15  C   UNL     1      -2.907  12.479  20.169  0.00  0.00    +0.000 A 
ATOM     16  N   UNL     1      -2.325  12.519  21.350  0.00  0.00    +0.000 NA
ATOM     17  C   UNL     1      -3.381  12.492  22.229  0.00  0.00    +0.000 A 
ATOM     18  N   UNL     1      -4.592  12.491  21.655  0.00  0.00    +0.000 NA
ATOM     19  N   UNL     1      -4.269  12.468  20.356  0.00  0.00    +0.000 N 
ATOM     20  H   UNL     1      -5.011  12.387  19.669  0.00  0.00    +0.000 HD
BRANCH  17  21
ATOM     21  C   UNL     1      -3.194  12.429  23.734  0.00  0.00    +0.000 C 
ATOM     22  C   UNL     1      -4.424  12.492  24.617  0.00  0.00    +0.000 C 
ATOM     23  C   UNL     1      -3.514  13.669  24.549  0.00  0.00    +0.000 C 
ENDBRANCH  17  21
ENDBRANCH   5  15
BRANCH   6  24
ATOM     24  C   UNL     1      -2.401  11.021  16.662  0.00  0.00    +0.000 C 
ATOM     25  C   UNL     1      -3.654  11.145  15.834  0.00  0.00    +0.000 C 
ATOM     26  C   UNL     1      -2.896   9.850  15.838  0.00  0.00    +0.000 C 
ENDBRANCH   6  24
TORSDOF 4
ENDMDL
