MODEL 1
REMARK VINA RESULT:      -8.1      0.000      0.000
REMARK  Name = 
REMARK  5 active torsions:
REMARK  status: ('A' for Active; 'I' for Inactive)
REMARK    1  A    between atoms: C_1  and  C_2
REMARK    2  A    between atoms: C_4  and  N_5
REMARK    3  A    between atoms: C_6  and  C_8
REMARK    4  A    between atoms: N_10  and  C_11
REMARK    5  A    between atoms: N_23  and  C_24
REMARK                            x       y       z     vdW  Elec       q    Type
REMARK                         _______ _______ _______ _____ _____    ______ ____
ROOT
ATOM      1  N   UNL     1       1.607   9.209  18.168  0.00  0.00    +0.000 N 
ATOM      2  C   UNL     1       1.802   8.275  19.225  0.00  0.00    +0.000 C 
ATOM      3  O   UNL     1       1.664   8.546  20.408  0.00  0.00    +0.000 OA
ATOM      4  H   UNL     1       1.681   8.818  17.222  0.00  0.00    +0.000 HD
ENDROOT
BRANCH   2   5
ATOM      5  C   UNL     1       2.325   7.043  18.647  0.00  0.00    +0.000 A 
ATOM      6  N   UNL     1       3.442   7.021  17.873  0.00  0.00    +0.000 NA
ATOM      7  N   UNL     1       3.922   5.738  17.968  0.00  0.00    +0.000 N 
ATOM      8  C   UNL     1       3.157   5.059  18.874  0.00  0.00    +0.000 A 
ATOM      9  C   UNL     1       1.989   5.750  19.061  0.00  0.00    +0.000 A 
ATOM     10  C   UNL     1       1.194   5.174  20.167  0.00  0.00    +0.000 C 
ATOM     11  C   UNL     1       2.370   4.646  21.039  0.00  0.00    +0.000 C 
ATOM     12  C   UNL     1       3.441   4.128  19.999  0.00  0.00    +0.000 C 
BRANCH   7  13
ATOM     13  C   UNL     1       5.035   5.306  17.217  0.00  0.00    +0.000 A 
ATOM     14  C   UNL     1       6.297   5.140  17.826  0.00  0.00    +0.000 A 
ATOM     15  C   UNL     1       7.379   4.633  17.079  0.00  0.00    +0.000 A 
ATOM     16  C   UNL     1       7.217   4.314  15.728  0.00  0.00    +0.000 A 
ATOM     17  C   UNL     1       5.971   4.479  15.143  0.00  0.00    +0.000 A 
ATOM     18  F   UNL     1       5.807   4.152  13.856  0.00  0.00    +0.000 F 
ATOM     19  C   UNL     1       4.886   4.971  15.867  0.00  0.00    +0.000 A 
ENDBRANCH   7  13
ENDBRANCH   2   5
BRANCH   1  23
ATOM     20  C   UNL     1       1.732  14.124  19.016  0.00  0.00    +0.000 C 
ATOM     21  C   UNL     1       1.327  12.725  18.737  0.00  0.00    +0.000 A 
ATOM     22  C   UNL     1       2.157  11.596  18.542  0.00  0.00    +0.000 A 
ATOM     23  C   UNL     1       1.295  10.538  18.371  0.00  0.00    +0.000 A 
ATOM     24  N   UNL     1       0.032  11.070  18.449  0.00  0.00    +0.000 N 
ATOM     25  N   UNL     1       0.033  12.401  18.667  0.00  0.00    +0.000 NA
BRANCH  24  26
ATOM     26  C   UNL     1      -1.237  10.364  18.506  0.00  0.00    +0.000 C 
ATOM     27  C   UNL     1      -1.648   9.790  17.162  0.00  0.00    +0.000 C 
ATOM     28  C   UNL     1      -2.680  10.758  16.618  0.00  0.00    +0.000 C 
ATOM     29  O   UNL     1      -3.001  11.694  17.658  0.00  0.00    +0.000 OA
ATOM     30  C   UNL     1      -2.398  11.260  18.888  0.00  0.00    +0.000 C 
ENDBRANCH  24  26
ENDBRANCH   1  23
TORSDOF 4
ENDMDL
MODEL 2
REMARK VINA RESULT:      -8.1      0.959      1.294
REMARK  Name = 
REMARK  5 active torsions:
REMARK  status: ('A' for Active; 'I' for Inactive)
REMARK    1  A    between atoms: C_1  and  C_2
REMARK    2  A    between atoms: C_4  and  N_5
REMARK    3  A    between atoms: C_6  and  C_8
REMARK    4  A    between atoms: N_10  and  C_11
REMARK    5  A    between atoms: N_23  and  C_24
REMARK                            x       y       z     vdW  Elec       q    Type
REMARK                         _______ _______ _______ _____ _____    ______ ____
ROOT
ATOM      1  N   UNL     1       1.253   9.238  18.349  0.00  0.00    +0.000 N 
ATOM      2  C   UNL     1       1.756   8.381  19.370  0.00  0.00    +0.000 C 
ATOM      3  O   UNL     1       1.841   8.700  20.545  0.00  0.00    +0.000 OA
ATOM      4  H   UNL     1       1.167   8.807  17.422  0.00  0.00    +0.000 HD
ENDROOT
BRANCH   2   5
ATOM      5  C   UNL     1       2.266   7.173  18.733  0.00  0.00    +0.000 A 
ATOM      6  N   UNL     1       3.382   7.177  17.959  0.00  0.00    +0.000 NA
ATOM      7  N   UNL     1       3.850   5.886  17.992  0.00  0.00    +0.000 N 
ATOM      8  C   UNL     1       3.078   5.172  18.865  0.00  0.00    +0.000 A 
ATOM      9  C   UNL     1       1.917   5.866  19.086  0.00  0.00    +0.000 A 
ATOM     10  C   UNL     1       1.117   5.246  20.164  0.00  0.00    +0.000 C 
ATOM     11  C   UNL     1       2.288   4.666  21.009  0.00  0.00    +0.000 C 
ATOM     12  C   UNL     1       3.354   4.187  19.945  0.00  0.00    +0.000 C 
BRANCH   7  13
ATOM     13  C   UNL     1       4.957   5.479  17.220  0.00  0.00    +0.000 A 
ATOM     14  C   UNL     1       4.946   5.608  15.815  0.00  0.00    +0.000 A 
ATOM     15  C   UNL     1       6.091   5.268  15.067  0.00  0.00    +0.000 A 
ATOM     16  C   UNL     1       7.234   4.781  15.706  0.00  0.00    +0.000 A 
ATOM     17  C   UNL     1       7.233   4.662  17.088  0.00  0.00    +0.000 A 
ATOM     18  F   UNL     1       8.334   4.218  17.704  0.00  0.00    +0.000 F 
ATOM     19  C   UNL     1       6.113   5.001  17.847  0.00  0.00    +0.000 A 
ENDBRANCH   7  13
ENDBRANCH   2   5
BRANCH   1  23
ATOM     20  C   UNL     1       1.039  14.087  19.504  0.00  0.00    +0.000 C 
ATOM     21  C   UNL     1       0.743  12.700  19.069  0.00  0.00    +0.000 A 
ATOM     22  C   UNL     1       1.636  11.608  18.963  0.00  0.00    +0.000 A 
ATOM     23  C   UNL     1       0.860  10.542  18.571  0.00  0.00    +0.000 A 
ATOM     24  N   UNL     1      -0.415  11.036  18.446  0.00  0.00    +0.000 N 
ATOM     25  N   UNL     1      -0.503  12.349  18.741  0.00  0.00    +0.000 NA
BRANCH  24  26
ATOM     26  C   UNL     1      -1.646  10.296  18.224  0.00  0.00    +0.000 C 
ATOM     27  C   UNL     1      -1.822   9.874  16.777  0.00  0.00    +0.000 C 
ATOM     28  C   UNL     1      -2.799  10.873  16.190  0.00  0.00    +0.000 C 
ATOM     29  O   UNL     1      -3.316  11.671  17.266  0.00  0.00    +0.000 OA
ATOM     30  C   UNL     1      -2.889  11.112  18.518  0.00  0.00    +0.000 C 
ENDBRANCH  24  26
ENDBRANCH   1  23
TORSDOF 4
ENDMDL
MODEL 3
REMARK VINA RESULT:      -7.7      2.039      2.867
REMARK  Name = 
REMARK  5 active torsions:
REMARK  status: ('A' for Active; 'I' for Inactive)
REMARK    1  A    between atoms: C_1  and  C_2
REMARK    2  A    between atoms: C_4  and  N_5
REMARK    3  A    between atoms: C_6  and  C_8
REMARK    4  A    between atoms: N_10  and  C_11
REMARK    5  A    between atoms: N_23  and  C_24
REMARK                            x       y       z     vdW  Elec       q    Type
REMARK                         _______ _______ _______ _____ _____    ______ ____
ROOT
ATOM      1  N   UNL     1       1.552   7.276  19.381  0.00  0.00    +0.000 N 
ATOM      2  C   UNL     1       1.824   5.914  19.699  0.00  0.00    +0.000 C 
ATOM      3  O   UNL     1       1.734   5.447  20.824  0.00  0.00    +0.000 OA
ATOM      4  H   UNL     1       1.593   7.505  18.382  0.00  0.00    +0.000 HD
ENDROOT
BRANCH   2   5
ATOM      5  C   UNL     1       2.353   5.269  18.504  0.00  0.00    +0.000 A 
ATOM      6  N   UNL     1       3.468   5.718  17.870  0.00  0.00    +0.000 NA
ATOM      7  N   UNL     1       3.958   4.633  17.186  0.00  0.00    +0.000 N 
ATOM      8  C   UNL     1       3.201   3.543  17.512  0.00  0.00    +0.000 A 
ATOM      9  C   UNL     1       2.028   3.980  18.071  0.00  0.00    +0.000 A 
ATOM     10  C   UNL     1       1.241   2.854  18.619  0.00  0.00    +0.000 C 
ATOM     11  C   UNL     1       2.423   1.921  19.010  0.00  0.00    +0.000 C 
ATOM     12  C   UNL     1       3.495   2.128  17.867  0.00  0.00    +0.000 C 
BRANCH   7  13
ATOM     13  C   UNL     1       5.071   4.738  16.327  0.00  0.00    +0.000 A 
ATOM     14  C   UNL     1       6.273   5.330  16.771  0.00  0.00    +0.000 A 
ATOM     15  C   UNL     1       7.400   5.357  15.925  0.00  0.00    +0.000 A 
ATOM     16  C   UNL     1       7.329   4.821  14.637  0.00  0.00    +0.000 A 
ATOM     17  C   UNL     1       6.143   4.240  14.214  0.00  0.00    +0.000 A 
ATOM     18  F   UNL     1       6.080   3.706  12.990  0.00  0.00    +0.000 F 
ATOM     19  C   UNL     1       5.019   4.196  15.039  0.00  0.00    +0.000 A 
ENDBRANCH   7  13
ENDBRANCH   2   5
BRANCH   1  23
ATOM     20  C   UNL     1       0.171   9.697  23.518  0.00  0.00    +0.000 C 
ATOM     21  C   UNL     1       0.610   9.324  22.151  0.00  0.00    +0.000 A 
ATOM     22  C   UNL     1       0.909   8.036  21.649  0.00  0.00    +0.000 A 
ATOM     23  C   UNL     1       1.212   8.226  20.321  0.00  0.00    +0.000 A 
ATOM     24  N   UNL     1       1.104   9.578  20.104  0.00  0.00    +0.000 N 
ATOM     25  N   UNL     1       0.742  10.261  21.209  0.00  0.00    +0.000 NA
BRANCH  24  26
ATOM     26  C   UNL     1       1.150  10.289  18.838  0.00  0.00    +0.000 C 
ATOM     27  C   UNL     1       1.376  11.780  19.013  0.00  0.00    +0.000 C 
ATOM     28  C   UNL     1       0.007  12.409  18.847  0.00  0.00    +0.000 C 
ATOM     29  O   UNL     1      -0.897  11.390  18.394  0.00  0.00    +0.000 OA
ATOM     30  C   UNL     1      -0.150  10.208  18.064  0.00  0.00    +0.000 C 
ENDBRANCH  24  26
ENDBRANCH   1  23
TORSDOF 4
ENDMDL
MODEL 4
REMARK VINA RESULT:      -7.6      3.192      8.177
REMARK  Name = 
REMARK  5 active torsions:
REMARK  status: ('A' for Active; 'I' for Inactive)
REMARK    1  A    between atoms: C_1  and  C_2
REMARK    2  A    between atoms: C_4  and  N_5
REMARK    3  A    between atoms: C_6  and  C_8
REMARK    4  A    between atoms: N_10  and  C_11
REMARK    5  A    between atoms: N_23  and  C_24
REMARK                            x       y       z     vdW  Elec       q    Type
REMARK                         _______ _______ _______ _____ _____    ______ ____
ROOT
ATOM      1  N   UNL     1       2.119   7.184  18.592  0.00  0.00    +0.000 N 
ATOM      2  C   UNL     1       2.311   8.460  17.988  0.00  0.00    +0.000 C 
ATOM      3  O   UNL     1       3.268   8.744  17.285  0.00  0.00    +0.000 OA
ATOM      4  H   UNL     1       1.230   7.067  19.089  0.00  0.00    +0.000 HD
ENDROOT
BRANCH   2   5
ATOM      5  C   UNL     1       1.272   9.353  18.484  0.00  0.00    +0.000 A 
ATOM      6  N   UNL     1       0.181   9.681  17.743  0.00  0.00    +0.000 NA
ATOM      7  N   UNL     1      -0.779  10.046  18.653  0.00  0.00    +0.000 N 
ATOM      8  C   UNL     1      -0.288   9.823  19.908  0.00  0.00    +0.000 A 
ATOM      9  C   UNL     1       1.075   9.696  19.825  0.00  0.00    +0.000 A 
ATOM     10  C   UNL     1       1.655   9.268  21.116  0.00  0.00    +0.000 C 
ATOM     11  C   UNL     1       0.452   8.430  21.637  0.00  0.00    +0.000 C 
ATOM     12  C   UNL     1      -0.829   9.221  21.156  0.00  0.00    +0.000 C 
BRANCH   7  13
ATOM     13  C   UNL     1      -2.035  10.543  18.247  0.00  0.00    +0.000 A 
ATOM     14  C   UNL     1      -2.753  11.444  19.062  0.00  0.00    +0.000 A 
ATOM     15  C   UNL     1      -3.969  11.991  18.606  0.00  0.00    +0.000 A 
ATOM     16  C   UNL     1      -4.483  11.629  17.358  0.00  0.00    +0.000 A 
ATOM     17  C   UNL     1      -3.766  10.746  16.566  0.00  0.00    +0.000 A 
ATOM     18  F   UNL     1      -4.244  10.416  15.361  0.00  0.00    +0.000 F 
ATOM     19  C   UNL     1      -2.556  10.200  16.995  0.00  0.00    +0.000 A 
ENDBRANCH   7  13
ENDBRANCH   2   5
BRANCH   1  23
ATOM     20  C   UNL     1       6.161   4.361  17.828  0.00  0.00    +0.000 C 
ATOM     21  C   UNL     1       4.812   4.875  18.168  0.00  0.00    +0.000 A 
ATOM     22  C   UNL     1       4.355   6.213  18.144  0.00  0.00    +0.000 A 
ATOM     23  C   UNL     1       3.025   6.148  18.491  0.00  0.00    +0.000 A 
ATOM     24  N   UNL     1       2.765   4.819  18.717  0.00  0.00    +0.000 N 
ATOM     25  N   UNL     1       3.842   4.031  18.529  0.00  0.00    +0.000 NA
BRANCH  24  26
ATOM     26  C   UNL     1       1.477   4.183  18.942  0.00  0.00    +0.000 C 
ATOM     27  C   UNL     1       1.030   4.264  20.391  0.00  0.00    +0.000 C 
ATOM     28  C   UNL     1       1.344   2.903  20.978  0.00  0.00    +0.000 C 
ATOM     29  O   UNL     1       1.734   2.036  19.902  0.00  0.00    +0.000 OA
ATOM     30  C   UNL     1       1.491   2.696  18.650  0.00  0.00    +0.000 C 
ENDBRANCH  24  26
ENDBRANCH   1  23
TORSDOF 4
ENDMDL
MODEL 5
REMARK VINA RESULT:      -7.6      4.104      8.111
REMARK  Name = 
REMARK  5 active torsions:
REMARK  status: ('A' for Active; 'I' for Inactive)
REMARK    1  A    between atoms: C_1  and  C_2
REMARK    2  A    between atoms: C_4  and  N_5
REMARK    3  A    between atoms: C_6  and  C_8
REMARK    4  A    between atoms: N_10  and  C_11
REMARK    5  A    between atoms: N_23  and  C_24
REMARK                            x       y       z     vdW  Elec       q    Type
REMARK                         _______ _______ _______ _____ _____    ______ ____
ROOT
ATOM      1  N   UNL     1       4.776   5.242  17.280  0.00  0.00    +0.000 N 
ATOM      2  C   UNL     1       4.396   4.295  18.275  0.00  0.00    +0.000 C 
ATOM      3  O   UNL     1       4.589   3.093  18.180  0.00  0.00    +0.000 OA
ATOM      4  H   UNL     1       4.622   6.224  17.532  0.00  0.00    +0.000 HD
ENDROOT
BRANCH   2   5
ATOM      5  C   UNL     1       3.629   4.999  19.296  0.00  0.00    +0.000 A 
ATOM      6  N   UNL     1       3.345   6.324  19.205  0.00  0.00    +0.000 NA
ATOM      7  N   UNL     1       2.225   6.508  19.978  0.00  0.00    +0.000 N 
ATOM      8  C   UNL     1       1.802   5.285  20.418  0.00  0.00    +0.000 A 
ATOM      9  C   UNL     1       2.829   4.390  20.267  0.00  0.00    +0.000 A 
ATOM     10  C   UNL     1       2.383   3.008  20.547  0.00  0.00    +0.000 C 
ATOM     11  C   UNL     1       0.904   3.150  20.084  0.00  0.00    +0.000 C 
ATOM     12  C   UNL     1       0.482   4.607  20.525  0.00  0.00    +0.000 C 
BRANCH   7  13
ATOM     13  C   UNL     1       1.681   7.789  20.203  0.00  0.00    +0.000 A 
ATOM     14  C   UNL     1       1.546   8.713  19.145  0.00  0.00    +0.000 A 
ATOM     15  C   UNL     1       0.929   9.960  19.372  0.00  0.00    +0.000 A 
ATOM     16  C   UNL     1       0.470  10.299  20.647  0.00  0.00    +0.000 A 
ATOM     17  C   UNL     1       0.606   9.381  21.677  0.00  0.00    +0.000 A 
ATOM     18  F   UNL     1       0.145   9.694  22.893  0.00  0.00    +0.000 F 
ATOM     19  C   UNL     1       1.205   8.139  21.471  0.00  0.00    +0.000 A 
ENDBRANCH   7  13
ENDBRANCH   2   5
BRANCH   1  23
ATOM     20  C   UNL     1       5.733   3.479  12.712  0.00  0.00    +0.000 C 
ATOM     21  C   UNL     1       5.801   4.127  14.044  0.00  0.00    +0.000 A 
ATOM     22  C   UNL     1       4.767   4.274  14.999  0.00  0.00    +0.000 A 
ATOM     23  C   UNL     1       5.356   4.893  16.077  0.00  0.00    +0.000 A 
ATOM     24  N   UNL     1       6.665   5.099  15.719  0.00  0.00    +0.000 N 
ATOM     25  N   UNL     1       6.952   4.643  14.483  0.00  0.00    +0.000 NA
BRANCH  24  26
ATOM     26  C   UNL     1       7.761   5.561  16.555  0.00  0.00    +0.000 C 
ATOM     27  C   UNL     1       7.984   4.676  17.768  0.00  0.00    +0.000 C 
ATOM     28  C   UNL     1       7.336   5.415  18.921  0.00  0.00    +0.000 C 
ATOM     29  O   UNL     1       6.964   6.722  18.456  0.00  0.00    +0.000 OA
ATOM     30  C   UNL     1       7.517   6.934  17.147  0.00  0.00    +0.000 C 
ENDBRANCH  24  26
ENDBRANCH   1  23
TORSDOF 4
ENDMDL
MODEL 6
REMARK VINA RESULT:      -7.6      3.582      8.418
REMARK  Name = 
REMARK  5 active torsions:
REMARK  status: ('A' for Active; 'I' for Inactive)
REMARK    1  A    between atoms: C_1  and  C_2
REMARK    2  A    between atoms: C_4  and  N_5
REMARK    3  A    between atoms: C_6  and  C_8
REMARK    4  A    between atoms: N_10  and  C_11
REMARK    5  A    between atoms: N_23  and  C_24
REMARK                            x       y       z     vdW  Elec       q    Type
REMARK                         _______ _______ _______ _____ _____    ______ ____
ROOT
ATOM      1  N   UNL     1       2.116   7.185  18.652  0.00  0.00    +0.000 N 
ATOM      2  C   UNL     1       2.196   8.432  17.968  0.00  0.00    +0.000 C 
ATOM      3  O   UNL     1       3.035   8.692  17.121  0.00  0.00    +0.000 OA
ATOM      4  H   UNL     1       1.310   7.083  19.279  0.00  0.00    +0.000 HD
ENDROOT
BRANCH   2   5
ATOM      5  C   UNL     1       1.223   9.338  18.567  0.00  0.00    +0.000 A 
ATOM      6  N   UNL     1       0.113   9.754  17.904  0.00  0.00    +0.000 NA
ATOM      7  N   UNL     1      -0.784  10.104  18.882  0.00  0.00    +0.000 N 
ATOM      8  C   UNL     1      -0.241   9.787  20.096  0.00  0.00    +0.000 A 
ATOM      9  C   UNL     1       1.108   9.609  19.935  0.00  0.00    +0.000 A 
ATOM     10  C   UNL     1       1.732   9.081  21.167  0.00  0.00    +0.000 C 
ATOM     11  C   UNL     1       0.519   8.264  21.701  0.00  0.00    +0.000 C 
ATOM     12  C   UNL     1      -0.747   9.136  21.334  0.00  0.00    +0.000 C 
BRANCH   7  13
ATOM     13  C   UNL     1      -2.035  10.677  18.571  0.00  0.00    +0.000 A 
ATOM     14  C   UNL     1      -2.800  10.196  17.488  0.00  0.00    +0.000 A 
ATOM     15  C   UNL     1      -4.082  10.728  17.239  0.00  0.00    +0.000 A 
ATOM     16  C   UNL     1      -4.592  11.749  18.046  0.00  0.00    +0.000 A 
ATOM     17  C   UNL     1      -3.830  12.210  19.109  0.00  0.00    +0.000 A 
ATOM     18  F   UNL     1      -4.327  13.170  19.897  0.00  0.00    +0.000 F 
ATOM     19  C   UNL     1      -2.564  11.691  19.377  0.00  0.00    +0.000 A 
ENDBRANCH   7  13
ENDBRANCH   2   5
BRANCH   1  23
ATOM     20  C   UNL     1       6.127   4.404  17.621  0.00  0.00    +0.000 C 
ATOM     21  C   UNL     1       4.789   4.900  18.026  0.00  0.00    +0.000 A 
ATOM     22  C   UNL     1       4.335   6.239  18.089  0.00  0.00    +0.000 A 
ATOM     23  C   UNL     1       3.015   6.155  18.469  0.00  0.00    +0.000 A 
ATOM     24  N   UNL     1       2.758   4.816  18.630  0.00  0.00    +0.000 N 
ATOM     25  N   UNL     1       3.828   4.039  18.369  0.00  0.00    +0.000 NA
BRANCH  24  26
ATOM     26  C   UNL     1       1.476   4.171  18.857  0.00  0.00    +0.000 C 
ATOM     27  C   UNL     1       1.035   4.240  20.308  0.00  0.00    +0.000 C 
ATOM     28  C   UNL     1       1.360   2.878  20.886  0.00  0.00    +0.000 C 
ATOM     29  O   UNL     1       1.752   2.020  19.803  0.00  0.00    +0.000 OA
ATOM     30  C   UNL     1       1.499   2.685  18.556  0.00  0.00    +0.000 C 
ENDBRANCH  24  26
ENDBRANCH   1  23
TORSDOF 4
ENDMDL
MODEL 7
REMARK VINA RESULT:      -7.6      4.178      5.980
REMARK  Name = 
REMARK  5 active torsions:
REMARK  status: ('A' for Active; 'I' for Inactive)
REMARK    1  A    between atoms: C_1  and  C_2
REMARK    2  A    between atoms: C_4  and  N_5
REMARK    3  A    between atoms: C_6  and  C_8
REMARK    4  A    between atoms: N_10  and  C_11
REMARK    5  A    between atoms: N_23  and  C_24
REMARK                            x       y       z     vdW  Elec       q    Type
REMARK                         _______ _______ _______ _____ _____    ______ ____
ROOT
ATOM      1  N   UNL     1       4.014   5.482  18.572  0.00  0.00    +0.000 N 
ATOM      2  C   UNL     1       5.155   4.738  18.991  0.00  0.00    +0.000 C 
ATOM      3  O   UNL     1       5.300   4.291  20.118  0.00  0.00    +0.000 OA
ATOM      4  H   UNL     1       3.994   5.724  17.576  0.00  0.00    +0.000 HD
ENDROOT
BRANCH   2   5
ATOM      5  C   UNL     1       6.127   4.756  17.905  0.00  0.00    +0.000 A 
ATOM      6  N   UNL     1       5.822   4.332  16.650  0.00  0.00    +0.000 NA
ATOM      7  N   UNL     1       6.717   4.969  15.826  0.00  0.00    +0.000 N 
ATOM      8  C   UNL     1       7.455   5.836  16.582  0.00  0.00    +0.000 A 
ATOM      9  C   UNL     1       7.319   5.487  17.900  0.00  0.00    +0.000 A 
ATOM     10  C   UNL     1       7.938   6.494  18.789  0.00  0.00    +0.000 C 
ATOM     11  C   UNL     1       7.706   7.751  17.902  0.00  0.00    +0.000 C 
ATOM     12  C   UNL     1       7.911   7.242  16.420  0.00  0.00    +0.000 C 
BRANCH   7  13
ATOM     13  C   UNL     1       6.769   4.703  14.442  0.00  0.00    +0.000 A 
ATOM     14  C   UNL     1       7.715   5.348  13.618  0.00  0.00    +0.000 A 
ATOM     15  C   UNL     1       7.804   5.013  12.251  0.00  0.00    +0.000 A 
ATOM     16  C   UNL     1       6.943   4.061  11.700  0.00  0.00    +0.000 A 
ATOM     17  C   UNL     1       6.020   3.433  12.522  0.00  0.00    +0.000 A 
ATOM     18  F   UNL     1       5.211   2.504  12.001  0.00  0.00    +0.000 F 
ATOM     19  C   UNL     1       5.922   3.744  13.878  0.00  0.00    +0.000 A 
ENDBRANCH   7  13
ENDBRANCH   2   5
BRANCH   1  23
ATOM     20  C   UNL     1       0.703   7.890  21.423  0.00  0.00    +0.000 C 
ATOM     21  C   UNL     1       1.487   6.875  20.678  0.00  0.00    +0.000 A 
ATOM     22  C   UNL     1       2.571   7.083  19.793  0.00  0.00    +0.000 A 
ATOM     23  C   UNL     1       2.976   5.824  19.413  0.00  0.00    +0.000 A 
ATOM     24  N   UNL     1       2.129   4.953  20.053  0.00  0.00    +0.000 N 
ATOM     25  N   UNL     1       1.215   5.575  20.823  0.00  0.00    +0.000 NA
BRANCH  24  26
ATOM     26  C   UNL     1       2.227   3.505  20.133  0.00  0.00    +0.000 C 
ATOM     27  C   UNL     1       2.166   2.838  18.770  0.00  0.00    +0.000 C 
ATOM     28  C   UNL     1       0.745   2.326  18.644  0.00  0.00    +0.000 C 
ATOM     29  O   UNL     1       0.102   2.487  19.918  0.00  0.00    +0.000 OA
ATOM     30  C   UNL     1       1.079   2.875  20.896  0.00  0.00    +0.000 C 
ENDBRANCH  24  26
ENDBRANCH   1  23
TORSDOF 4
ENDMDL
MODEL 8
REMARK VINA RESULT:      -7.5      3.860      7.953
REMARK  Name = 
REMARK  5 active torsions:
REMARK  status: ('A' for Active; 'I' for Inactive)
REMARK    1  A    between atoms: C_1  and  C_2
REMARK    2  A    between atoms: C_4  and  N_5
REMARK    3  A    between atoms: C_6  and  C_8
REMARK    4  A    between atoms: N_10  and  C_11
REMARK    5  A    between atoms: N_23  and  C_24
REMARK                            x       y       z     vdW  Elec       q    Type
REMARK                         _______ _______ _______ _____ _____    ______ ____
ROOT
ATOM      1  N   UNL     1       4.786   5.250  17.272  0.00  0.00    +0.000 N 
ATOM      2  C   UNL     1       4.399   4.306  18.266  0.00  0.00    +0.000 C 
ATOM      3  O   UNL     1       4.593   3.104  18.177  0.00  0.00    +0.000 OA
ATOM      4  H   UNL     1       4.629   6.233  17.520  0.00  0.00    +0.000 HD
ENDROOT
BRANCH   2   5
ATOM      5  C   UNL     1       3.625   5.012  19.280  0.00  0.00    +0.000 A 
ATOM      6  N   UNL     1       3.308   6.328  19.165  0.00  0.00    +0.000 NA
ATOM      7  N   UNL     1       2.191   6.501  19.945  0.00  0.00    +0.000 N 
ATOM      8  C   UNL     1       1.801   5.278  20.413  0.00  0.00    +0.000 A 
ATOM      9  C   UNL     1       2.848   4.404  20.271  0.00  0.00    +0.000 A 
ATOM     10  C   UNL     1       2.438   3.018  20.583  0.00  0.00    +0.000 C 
ATOM     11  C   UNL     1       0.952   3.116  20.131  0.00  0.00    +0.000 C 
ATOM     12  C   UNL     1       0.499   4.572  20.546  0.00  0.00    +0.000 C 
BRANCH   7  13
ATOM     13  C   UNL     1       1.619   7.774  20.149  0.00  0.00    +0.000 A 
ATOM     14  C   UNL     1       1.150   8.159  21.423  0.00  0.00    +0.000 A 
ATOM     15  C   UNL     1       0.652   9.462  21.627  0.00  0.00    +0.000 A 
ATOM     16  C   UNL     1       0.598  10.371  20.567  0.00  0.00    +0.000 A 
ATOM     17  C   UNL     1       1.065   9.981  19.321  0.00  0.00    +0.000 A 
ATOM     18  F   UNL     1       1.036  10.857  18.311  0.00  0.00    +0.000 F 
ATOM     19  C   UNL     1       1.569   8.699  19.101  0.00  0.00    +0.000 A 
ENDBRANCH   7  13
ENDBRANCH   2   5
BRANCH   1  23
ATOM     20  C   UNL     1       5.772   3.485  12.711  0.00  0.00    +0.000 C 
ATOM     21  C   UNL     1       5.832   4.131  14.044  0.00  0.00    +0.000 A 
ATOM     22  C   UNL     1       4.791   4.284  14.990  0.00  0.00    +0.000 A 
ATOM     23  C   UNL     1       5.374   4.899  16.074  0.00  0.00    +0.000 A 
ATOM     24  N   UNL     1       6.688   5.095  15.728  0.00  0.00    +0.000 N 
ATOM     25  N   UNL     1       6.983   4.638  14.494  0.00  0.00    +0.000 NA
BRANCH  24  26
ATOM     26  C   UNL     1       7.780   5.548  16.574  0.00  0.00    +0.000 C 
ATOM     27  C   UNL     1       7.989   4.658  17.785  0.00  0.00    +0.000 C 
ATOM     28  C   UNL     1       7.335   5.396  18.936  0.00  0.00    +0.000 C 
ATOM     29  O   UNL     1       6.973   6.706  18.473  0.00  0.00    +0.000 OA
ATOM     30  C   UNL     1       7.537   6.921  17.170  0.00  0.00    +0.000 C 
ENDBRANCH  24  26
ENDBRANCH   1  23
TORSDOF 4
ENDMDL
MODEL 9
REMARK VINA RESULT:      -7.5      2.105      2.820
REMARK  Name = 
REMARK  5 active torsions:
REMARK  status: ('A' for Active; 'I' for Inactive)
REMARK    1  A    between atoms: C_1  and  C_2
REMARK    2  A    between atoms: C_4  and  N_5
REMARK    3  A    between atoms: C_6  and  C_8
REMARK    4  A    between atoms: N_10  and  C_11
REMARK    5  A    between atoms: N_23  and  C_24
REMARK                            x       y       z     vdW  Elec       q    Type
REMARK                         _______ _______ _______ _____ _____    ______ ____
ROOT
ATOM      1  N   UNL     1       0.741   8.388  20.128  0.00  0.00    +0.000 N 
ATOM      2  C   UNL     1       1.751   7.598  20.750  0.00  0.00    +0.000 C 
ATOM      3  O   UNL     1       2.206   7.826  21.859  0.00  0.00    +0.000 OA
ATOM      4  H   UNL     1       0.400   8.030  19.229  0.00  0.00    +0.000 HD
ENDROOT
BRANCH   2   5
ATOM      5  C   UNL     1       2.214   6.614  19.779  0.00  0.00    +0.000 A 
ATOM      6  N   UNL     1       3.322   6.810  19.018  0.00  0.00    +0.000 NA
ATOM      7  N   UNL     1       3.746   5.553  18.665  0.00  0.00    +0.000 N 
ATOM      8  C   UNL     1       2.959   4.639  19.307  0.00  0.00    +0.000 A 
ATOM      9  C   UNL     1       1.824   5.272  19.742  0.00  0.00    +0.000 A 
ATOM     10  C   UNL     1       1.014   4.388  20.607  0.00  0.00    +0.000 C 
ATOM     11  C   UNL     1       2.172   3.552  21.224  0.00  0.00    +0.000 C 
ATOM     12  C   UNL     1       3.211   3.373  20.047  0.00  0.00    +0.000 C 
BRANCH   7  13
ATOM     13  C   UNL     1       4.833   5.356  17.788  0.00  0.00    +0.000 A 
ATOM     14  C   UNL     1       4.743   5.733  16.431  0.00  0.00    +0.000 A 
ATOM     15  C   UNL     1       5.864   5.600  15.587  0.00  0.00    +0.000 A 
ATOM     16  C   UNL     1       7.061   5.075  16.080  0.00  0.00    +0.000 A 
ATOM     17  C   UNL     1       7.137   4.713  17.416  0.00  0.00    +0.000 A 
ATOM     18  F   UNL     1       8.289   4.232  17.896  0.00  0.00    +0.000 F 
ATOM     19  C   UNL     1       6.042   4.844  18.269  0.00  0.00    +0.000 A 
ENDBRANCH   7  13
ENDBRANCH   2   5
BRANCH   1  23
ATOM     20  C   UNL     1      -1.446  11.725  23.123  0.00  0.00    +0.000 C 
ATOM     21  C   UNL     1      -0.751  11.031  22.011  0.00  0.00    +0.000 A 
ATOM     22  C   UNL     1      -0.334   9.681  21.948  0.00  0.00    +0.000 A 
ATOM     23  C   UNL     1       0.208   9.528  20.692  0.00  0.00    +0.000 A 
ATOM     24  N   UNL     1       0.111  10.760  20.092  0.00  0.00    +0.000 N 
ATOM     25  N   UNL     1      -0.467  11.687  20.883  0.00  0.00    +0.000 NA
BRANCH  24  26
ATOM     26  C   UNL     1       0.377  11.105  18.706  0.00  0.00    +0.000 C 
ATOM     27  C   UNL     1       1.860  11.117  18.381  0.00  0.00    +0.000 C 
ATOM     28  C   UNL     1       2.255  12.581  18.393  0.00  0.00    +0.000 C 
ATOM     29  O   UNL     1       1.055  13.362  18.497  0.00  0.00    +0.000 OA
ATOM     30  C   UNL     1      -0.085  12.503  18.345  0.00  0.00    +0.000 C 
ENDBRANCH  24  26
ENDBRANCH   1  23
TORSDOF 4
ENDMDL
