MODEL 1
REMARK VINA RESULT:      -8.5      0.000      0.000
REMARK  Name = 
REMARK  6 active torsions:
REMARK  status: ('A' for Active; 'I' for Inactive)
REMARK    1  A    between atoms: C_1  and  O_2
REMARK    2  A    between atoms: O_2  and  C_3
REMARK    3  A    between atoms: C_6  and  N_7
REMARK    4  A    between atoms: C_8  and  C_10
REMARK    5  A    between atoms: C_20  and  S_21
REMARK    6  A    between atoms: S_21  and  N_24
REMARK                            x       y       z     vdW  Elec       q    Type
REMARK                         _______ _______ _______ _____ _____    ______ ____
ROOT
ATOM      1  C   UNL     1       2.330   3.893  19.973  0.00  0.00    +0.000 A 
ATOM      2  C   UNL     1       1.176   4.437  20.557  0.00  0.00    +0.000 A 
ATOM      3  C   UNL     1       0.983   5.814  20.604  0.00  0.00    +0.000 A 
ATOM      4  C   UNL     1       1.949   6.679  20.098  0.00  0.00    +0.000 A 
ATOM      5  C   UNL     1       3.116   6.167  19.539  0.00  0.00    +0.000 A 
ATOM      6  C   UNL     1       3.278   4.760  19.415  0.00  0.00    +0.000 A 
ENDROOT
BRANCH   4   7
ATOM      7  N   UNL     1       1.734   8.063  20.158  0.00  0.00    +0.000 N 
ATOM      8  C   UNL     1       1.501   8.787  18.999  0.00  0.00    +0.000 C 
ATOM      9  O   UNL     1       1.832   8.383  17.886  0.00  0.00    +0.000 OA
ATOM     10  H   UNL     1       1.970   8.582  20.993  0.00  0.00    +0.000 HD
BRANCH   8  11
ATOM     11  C   UNL     1       0.790  10.047  19.175  0.00  0.00    +0.000 A 
ATOM     12  C   UNL     1       1.027  11.027  20.127  0.00  0.00    +0.000 A 
ATOM     13  N   UNL     1       0.046  11.977  20.002  0.00  0.00    +0.000 N 
ATOM     14  C   UNL     1      -0.976  11.473  19.233  0.00  0.00    +0.000 A 
ATOM     15  C   UNL     1      -2.314  11.865  19.114  0.00  0.00    +0.000 A 
ATOM     16  C   UNL     1      -3.100  11.179  18.182  0.00  0.00    +0.000 A 
ATOM     17  C   UNL     1      -2.543  10.219  17.339  0.00  0.00    +0.000 A 
ATOM     18  C   UNL     1      -1.213   9.824  17.496  0.00  0.00    +0.000 A 
ATOM     19  C   UNL     1      -0.442  10.400  18.527  0.00  0.00    +0.000 A 
ATOM     20  H   UNL     1       0.013  12.860  20.492  0.00  0.00    +0.000 HD
ENDBRANCH   8  11
ENDBRANCH   4   7
BRANCH   6  21
ATOM     21  S   UNL     1       4.783   4.173  18.627  0.00  0.00    +0.000 S 
ATOM     22  O   UNL     1       5.451   3.322  19.601  0.00  0.00    +0.000 OA
ATOM     23  O   UNL     1       4.468   3.648  17.316  0.00  0.00    +0.000 OA
BRANCH  21  24
ATOM     24  N   UNL     1       5.770   5.581  18.420  0.00  0.00    +0.000 NA
ATOM     25  C   UNL     1       7.184   5.419  18.854  0.00  0.00    +0.000 C 
ATOM     26  C   UNL     1       7.980   6.717  18.733  0.00  0.00    +0.000 C 
ATOM     27  C   UNL     1       7.838   7.340  17.353  0.00  0.00    +0.000 C 
ATOM     28  C   UNL     1       6.369   7.604  17.076  0.00  0.00    +0.000 C 
ATOM     29  C   UNL     1       5.546   6.324  17.157  0.00  0.00    +0.000 C 
ENDBRANCH  21  24
ENDBRANCH   6  21
BRANCH   1  31
ATOM     30  C   UNL     1       1.761   1.884  18.863  0.00  0.00    +0.000 C 
ATOM     31  O   UNL     1       2.503   2.542  19.892  0.00  0.00    +0.000 OA
ENDBRANCH   1  31
TORSDOF 5
ENDMDL
MODEL 2
REMARK VINA RESULT:      -8.0      1.322      1.495
REMARK  Name = 
REMARK  6 active torsions:
REMARK  status: ('A' for Active; 'I' for Inactive)
REMARK    1  A    between atoms: C_1  and  O_2
REMARK    2  A    between atoms: O_2  and  C_3
REMARK    3  A    between atoms: C_6  and  N_7
REMARK    4  A    between atoms: C_8  and  C_10
REMARK    5  A    between atoms: C_20  and  S_21
REMARK    6  A    between atoms: S_21  and  N_24
REMARK                            x       y       z     vdW  Elec       q    Type
REMARK                         _______ _______ _______ _____ _____    ______ ____
ROOT
ATOM      1  C   UNL     1       2.215   4.090  20.277  0.00  0.00    +0.000 A 
ATOM      2  C   UNL     1       1.274   4.972  20.829  0.00  0.00    +0.000 A 
ATOM      3  C   UNL     1       1.302   6.328  20.520  0.00  0.00    +0.000 A 
ATOM      4  C   UNL     1       2.288   6.839  19.679  0.00  0.00    +0.000 A 
ATOM      5  C   UNL     1       3.251   5.991  19.141  0.00  0.00    +0.000 A 
ATOM      6  C   UNL     1       3.174   4.593  19.388  0.00  0.00    +0.000 A 
ENDROOT
BRANCH   4   7
ATOM      7  N   UNL     1       2.298   8.209  19.383  0.00  0.00    +0.000 N 
ATOM      8  C   UNL     1       1.746   8.674  18.199  0.00  0.00    +0.000 C 
ATOM      9  O   UNL     1       1.578   7.955  17.217  0.00  0.00    +0.000 OA
ATOM     10  H   UNL     1       2.897   8.840  19.898  0.00  0.00    +0.000 HD
BRANCH   8  11
ATOM     11  C   UNL     1       1.329  10.071  18.204  0.00  0.00    +0.000 A 
ATOM     12  C   UNL     1       2.100  11.184  18.503  0.00  0.00    +0.000 A 
ATOM     13  N   UNL     1       1.272  12.277  18.504  0.00  0.00    +0.000 N 
ATOM     14  C   UNL     1      -0.035  11.855  18.539  0.00  0.00    +0.000 A 
ATOM     15  C   UNL     1      -1.206  12.523  18.913  0.00  0.00    +0.000 A 
ATOM     16  C   UNL     1      -2.412  11.828  18.774  0.00  0.00    +0.000 A 
ATOM     17  C   UNL     1      -2.449  10.563  18.191  0.00  0.00    +0.000 A 
ATOM     18  C   UNL     1      -1.265   9.903  17.851  0.00  0.00    +0.000 A 
ATOM     19  C   UNL     1      -0.030  10.529  18.117  0.00  0.00    +0.000 A 
ATOM     20  H   UNL     1       1.566  13.240  18.589  0.00  0.00    +0.000 HD
ENDBRANCH   8  11
ENDBRANCH   4   7
BRANCH   6  21
ATOM     21  S   UNL     1       4.416   3.552  18.611  0.00  0.00    +0.000 S 
ATOM     22  O   UNL     1       5.394   3.240  19.642  0.00  0.00    +0.000 OA
ATOM     23  O   UNL     1       3.763   2.476  17.896  0.00  0.00    +0.000 OA
BRANCH  21  24
ATOM     24  N   UNL     1       5.204   4.568  17.452  0.00  0.00    +0.000 NA
ATOM     25  C   UNL     1       6.603   4.940  17.800  0.00  0.00    +0.000 C 
ATOM     26  C   UNL     1       7.213   5.909  16.789  0.00  0.00    +0.000 C 
ATOM     27  C   UNL     1       7.057   5.409  15.362  0.00  0.00    +0.000 C 
ATOM     28  C   UNL     1       5.581   5.210  15.064  0.00  0.00    +0.000 C 
ATOM     29  C   UNL     1       4.943   4.223  16.034  0.00  0.00    +0.000 C 
ENDBRANCH  21  24
ENDBRANCH   6  21
BRANCH   1  31
ATOM     30  C   UNL     1       1.711   2.407  21.860  0.00  0.00    +0.000 C 
ATOM     31  O   UNL     1       2.166   2.754  20.550  0.00  0.00    +0.000 OA
ENDBRANCH   1  31
TORSDOF 5
ENDMDL
MODEL 3
REMARK VINA RESULT:      -8.0      3.287      8.671
REMARK  Name = 
REMARK  6 active torsions:
REMARK  status: ('A' for Active; 'I' for Inactive)
REMARK    1  A    between atoms: C_1  and  O_2
REMARK    2  A    between atoms: O_2  and  C_3
REMARK    3  A    between atoms: C_6  and  N_7
REMARK    4  A    between atoms: C_8  and  C_10
REMARK    5  A    between atoms: C_20  and  S_21
REMARK    6  A    between atoms: S_21  and  N_24
REMARK                            x       y       z     vdW  Elec       q    Type
REMARK                         _______ _______ _______ _____ _____    ______ ____
ROOT
ATOM      1  C   UNL     1      -0.919  11.464  18.666  0.00  0.00    +0.000 A 
ATOM      2  C   UNL     1      -1.130  10.348  17.842  0.00  0.00    +0.000 A 
ATOM      3  C   UNL     1      -0.133   9.396  17.664  0.00  0.00    +0.000 A 
ATOM      4  C   UNL     1       1.108   9.551  18.278  0.00  0.00    +0.000 A 
ATOM      5  C   UNL     1       1.354  10.663  19.077  0.00  0.00    +0.000 A 
ATOM      6  C   UNL     1       0.309  11.594  19.327  0.00  0.00    +0.000 A 
ENDROOT
BRANCH   4   7
ATOM      7  N   UNL     1       2.099   8.579  18.083  0.00  0.00    +0.000 N 
ATOM      8  C   UNL     1       2.292   7.577  19.020  0.00  0.00    +0.000 C 
ATOM      9  O   UNL     1       1.917   7.677  20.187  0.00  0.00    +0.000 OA
ATOM     10  H   UNL     1       2.827   8.721  17.395  0.00  0.00    +0.000 HD
BRANCH   8  11
ATOM     11  C   UNL     1       2.929   6.363  18.525  0.00  0.00    +0.000 A 
ATOM     12  C   UNL     1       3.914   6.261  17.554  0.00  0.00    +0.000 A 
ATOM     13  N   UNL     1       4.128   4.927  17.315  0.00  0.00    +0.000 N 
ATOM     14  C   UNL     1       3.096   4.199  17.857  0.00  0.00    +0.000 A 
ATOM     15  C   UNL     1       2.649   2.900  17.590  0.00  0.00    +0.000 A 
ATOM     16  C   UNL     1       1.594   2.414  18.369  0.00  0.00    +0.000 A 
ATOM     17  C   UNL     1       1.083   3.156  19.432  0.00  0.00    +0.000 A 
ATOM     18  C   UNL     1       1.525   4.462  19.662  0.00  0.00    +0.000 A 
ATOM     19  C   UNL     1       2.486   5.024  18.797  0.00  0.00    +0.000 A 
ATOM     20  H   UNL     1       4.857   4.541  16.732  0.00  0.00    +0.000 HD
ENDBRANCH   8  11
ENDBRANCH   4   7
BRANCH   6  21
ATOM     21  S   UNL     1       0.681  12.974  20.418  0.00  0.00    +0.000 S 
ATOM     22  O   UNL     1       2.040  12.763  20.897  0.00  0.00    +0.000 OA
ATOM     23  O   UNL     1       0.340  14.215  19.757  0.00  0.00    +0.000 OA
BRANCH  21  24
ATOM     24  N   UNL     1      -0.373  12.780  21.777  0.00  0.00    +0.000 NA
ATOM     25  C   UNL     1      -1.412  13.837  21.914  0.00  0.00    +0.000 C 
ATOM     26  C   UNL     1      -2.252  13.665  23.178  0.00  0.00    +0.000 C 
ATOM     27  C   UNL     1      -2.805  12.253  23.300  0.00  0.00    +0.000 C 
ATOM     28  C   UNL     1      -1.651  11.266  23.305  0.00  0.00    +0.000 C 
ATOM     29  C   UNL     1      -0.807  11.387  22.042  0.00  0.00    +0.000 C 
ENDBRANCH  21  24
ENDBRANCH   6  21
BRANCH   1  31
ATOM     30  C   UNL     1      -3.241  11.861  18.871  0.00  0.00    +0.000 C 
ATOM     31  O   UNL     1      -1.910  12.380  18.871  0.00  0.00    +0.000 OA
ENDBRANCH   1  31
TORSDOF 5
ENDMDL
MODEL 4
REMARK VINA RESULT:      -8.0      1.838      2.686
REMARK  Name = 
REMARK  6 active torsions:
REMARK  status: ('A' for Active; 'I' for Inactive)
REMARK    1  A    between atoms: C_1  and  O_2
REMARK    2  A    between atoms: O_2  and  C_3
REMARK    3  A    between atoms: C_6  and  N_7
REMARK    4  A    between atoms: C_8  and  C_10
REMARK    5  A    between atoms: C_20  and  S_21
REMARK    6  A    between atoms: S_21  and  N_24
REMARK                            x       y       z     vdW  Elec       q    Type
REMARK                         _______ _______ _______ _____ _____    ______ ____
ROOT
ATOM      1  C   UNL     1       3.246   4.403  17.793  0.00  0.00    +0.000 A 
ATOM      2  C   UNL     1       2.194   4.491  18.717  0.00  0.00    +0.000 A 
ATOM      3  C   UNL     1       1.796   5.723  19.227  0.00  0.00    +0.000 A 
ATOM      4  C   UNL     1       2.457   6.889  18.851  0.00  0.00    +0.000 A 
ATOM      5  C   UNL     1       3.523   6.827  17.958  0.00  0.00    +0.000 A 
ATOM      6  C   UNL     1       3.878   5.581  17.372  0.00  0.00    +0.000 A 
ENDROOT
BRANCH   4   7
ATOM      7  N   UNL     1       2.039   8.118  19.379  0.00  0.00    +0.000 N 
ATOM      8  C   UNL     1       1.514   9.096  18.549  0.00  0.00    +0.000 C 
ATOM      9  O   UNL     1       1.723   9.120  17.337  0.00  0.00    +0.000 OA
ATOM     10  H   UNL     1       2.321   8.398  20.309  0.00  0.00    +0.000 HD
BRANCH   8  11
ATOM     11  C   UNL     1       0.652  10.077  19.196  0.00  0.00    +0.000 A 
ATOM     12  C   UNL     1       0.458  11.401  18.836  0.00  0.00    +0.000 A 
ATOM     13  N   UNL     1      -0.336  11.982  19.792  0.00  0.00    +0.000 N 
ATOM     14  C   UNL     1      -0.381  11.169  20.898  0.00  0.00    +0.000 A 
ATOM     15  C   UNL     1      -0.721  11.444  22.227  0.00  0.00    +0.000 A 
ATOM     16  C   UNL     1      -0.730  10.368  23.121  0.00  0.00    +0.000 A 
ATOM     17  C   UNL     1      -0.510   9.065  22.680  0.00  0.00    +0.000 A 
ATOM     18  C   UNL     1      -0.144   8.817  21.355  0.00  0.00    +0.000 A 
ATOM     19  C   UNL     1       0.013   9.904  20.471  0.00  0.00    +0.000 A 
ATOM     20  H   UNL     1      -0.729  12.912  19.747  0.00  0.00    +0.000 HD
ENDBRANCH   8  11
ENDBRANCH   4   7
BRANCH   6  21
ATOM     21  S   UNL     1       5.224   5.587  16.181  0.00  0.00    +0.000 S 
ATOM     22  O   UNL     1       5.355   4.219  15.703  0.00  0.00    +0.000 OA
ATOM     23  O   UNL     1       5.022   6.660  15.232  0.00  0.00    +0.000 OA
BRANCH  21  24
ATOM     24  N   UNL     1       6.646   5.943  17.102  0.00  0.00    +0.000 NA
ATOM     25  C   UNL     1       6.907   7.394  17.307  0.00  0.00    +0.000 C 
ATOM     26  C   UNL     1       8.221   7.648  18.044  0.00  0.00    +0.000 C 
ATOM     27  C   UNL     1       8.319   6.829  19.322  0.00  0.00    +0.000 C 
ATOM     28  C   UNL     1       8.194   5.356  18.978  0.00  0.00    +0.000 C 
ATOM     29  C   UNL     1       6.879   5.057  18.267  0.00  0.00    +0.000 C 
ENDBRANCH  21  24
ENDBRANCH   6  21
BRANCH   1  31
ATOM     30  C   UNL     1       2.969   2.055  17.825  0.00  0.00    +0.000 C 
ATOM     31  O   UNL     1       3.614   3.200  17.263  0.00  0.00    +0.000 OA
ENDBRANCH   1  31
TORSDOF 5
ENDMDL
MODEL 5
REMARK VINA RESULT:      -7.9      1.235      1.728
REMARK  Name = 
REMARK  6 active torsions:
REMARK  status: ('A' for Active; 'I' for Inactive)
REMARK    1  A    between atoms: C_1  and  O_2
REMARK    2  A    between atoms: O_2  and  C_3
REMARK    3  A    between atoms: C_6  and  N_7
REMARK    4  A    between atoms: C_8  and  C_10
REMARK    5  A    between atoms: C_20  and  S_21
REMARK    6  A    between atoms: S_21  and  N_24
REMARK                            x       y       z     vdW  Elec       q    Type
REMARK                         _______ _______ _______ _____ _____    ______ ____
ROOT
ATOM      1  C   UNL     1       2.646   4.393  20.302  0.00  0.00    +0.000 A 
ATOM      2  C   UNL     1       1.430   4.937  20.742  0.00  0.00    +0.000 A 
ATOM      3  C   UNL     1       1.165   6.295  20.600  0.00  0.00    +0.000 A 
ATOM      4  C   UNL     1       2.118   7.146  20.045  0.00  0.00    +0.000 A 
ATOM      5  C   UNL     1       3.344   6.637  19.627  0.00  0.00    +0.000 A 
ATOM      6  C   UNL     1       3.585   5.238  19.694  0.00  0.00    +0.000 A 
ENDROOT
BRANCH   4   7
ATOM      7  N   UNL     1       1.829   8.511  19.914  0.00  0.00    +0.000 N 
ATOM      8  C   UNL     1       1.440   9.030  18.689  0.00  0.00    +0.000 C 
ATOM      9  O   UNL     1       1.680   8.468  17.622  0.00  0.00    +0.000 OA
ATOM     10  H   UNL     1       2.117   9.166  20.628  0.00  0.00    +0.000 HD
BRANCH   8  11
ATOM     11  C   UNL     1       0.678  10.272  18.744  0.00  0.00    +0.000 A 
ATOM     12  C   UNL     1       0.958  11.405  19.492  0.00  0.00    +0.000 A 
ATOM     13  N   UNL     1      -0.087  12.279  19.334  0.00  0.00    +0.000 N 
ATOM     14  C   UNL     1      -1.154  11.613  18.782  0.00  0.00    +0.000 A 
ATOM     15  C   UNL     1      -2.518  11.924  18.760  0.00  0.00    +0.000 A 
ATOM     16  C   UNL     1      -3.359  11.061  18.048  0.00  0.00    +0.000 A 
ATOM     17  C   UNL     1      -2.841   9.999  17.310  0.00  0.00    +0.000 A 
ATOM     18  C   UNL     1      -1.480   9.691  17.370  0.00  0.00    +0.000 A 
ATOM     19  C   UNL     1      -0.637  10.461  18.197  0.00  0.00    +0.000 A 
ATOM     20  H   UNL     1      -0.119  13.229  19.677  0.00  0.00    +0.000 HD
ENDBRANCH   8  11
ENDBRANCH   4   7
BRANCH   6  21
ATOM     21  S   UNL     1       5.167   4.646  19.080  0.00  0.00    +0.000 S 
ATOM     22  O   UNL     1       6.177   5.552  19.607  0.00  0.00    +0.000 OA
ATOM     23  O   UNL     1       5.279   3.225  19.331  0.00  0.00    +0.000 OA
BRANCH  21  24
ATOM     24  N   UNL     1       5.111   4.887  17.366  0.00  0.00    +0.000 NA
ATOM     25  C   UNL     1       5.481   6.258  16.919  0.00  0.00    +0.000 C 
ATOM     26  C   UNL     1       5.325   6.436  15.410  0.00  0.00    +0.000 C 
ATOM     27  C   UNL     1       6.030   5.335  14.635  0.00  0.00    +0.000 C 
ATOM     28  C   UNL     1       5.467   3.990  15.058  0.00  0.00    +0.000 C 
ATOM     29  C   UNL     1       5.634   3.761  16.556  0.00  0.00    +0.000 C 
ENDBRANCH  21  24
ENDBRANCH   6  21
BRANCH   1  31
ATOM     30  C   UNL     1       1.740   2.225  20.566  0.00  0.00    +0.000 C 
ATOM     31  O   UNL     1       2.893   3.055  20.406  0.00  0.00    +0.000 OA
ENDBRANCH   1  31
TORSDOF 5
ENDMDL
MODEL 6
REMARK VINA RESULT:      -7.9      1.458      1.675
REMARK  Name = 
REMARK  6 active torsions:
REMARK  status: ('A' for Active; 'I' for Inactive)
REMARK    1  A    between atoms: C_1  and  O_2
REMARK    2  A    between atoms: O_2  and  C_3
REMARK    3  A    between atoms: C_6  and  N_7
REMARK    4  A    between atoms: C_8  and  C_10
REMARK    5  A    between atoms: C_20  and  S_21
REMARK    6  A    between atoms: S_21  and  N_24
REMARK                            x       y       z     vdW  Elec       q    Type
REMARK                         _______ _______ _______ _____ _____    ______ ____
ROOT
ATOM      1  C   UNL     1       2.335   3.681  19.718  0.00  0.00    +0.000 A 
ATOM      2  C   UNL     1       1.201   4.143  20.402  0.00  0.00    +0.000 A 
ATOM      3  C   UNL     1       1.056   5.491  20.711  0.00  0.00    +0.000 A 
ATOM      4  C   UNL     1       2.054   6.403  20.374  0.00  0.00    +0.000 A 
ATOM      5  C   UNL     1       3.202   5.966  19.720  0.00  0.00    +0.000 A 
ATOM      6  C   UNL     1       3.314   4.604  19.329  0.00  0.00    +0.000 A 
ENDROOT
BRANCH   4   7
ATOM      7  N   UNL     1       1.887   7.757  20.697  0.00  0.00    +0.000 N 
ATOM      8  C   UNL     1       1.461   8.659  19.735  0.00  0.00    +0.000 C 
ATOM      9  O   UNL     1       1.569   8.446  18.529  0.00  0.00    +0.000 OA
ATOM     10  H   UNL     1       2.287   8.133  21.546  0.00  0.00    +0.000 HD
BRANCH   8  11
ATOM     11  C   UNL     1       0.826   9.870  20.244  0.00  0.00    +0.000 A 
ATOM     12  C   UNL     1      -0.208   9.961  21.162  0.00  0.00    +0.000 A 
ATOM     13  N   UNL     1      -0.571  11.281  21.253  0.00  0.00    +0.000 N 
ATOM     14  C   UNL     1      -0.031  11.972  20.195  0.00  0.00    +0.000 A 
ATOM     15  C   UNL     1      -0.378  13.203  19.629  0.00  0.00    +0.000 A 
ATOM     16  C   UNL     1       0.420  13.674  18.582  0.00  0.00    +0.000 A 
ATOM     17  C   UNL     1       1.571  12.992  18.192  0.00  0.00    +0.000 A 
ATOM     18  C   UNL     1       1.883  11.750  18.751  0.00  0.00    +0.000 A 
ATOM     19  C   UNL     1       1.011  11.189  19.707  0.00  0.00    +0.000 A 
ATOM     20  H   UNL     1      -1.228  11.668  21.915  0.00  0.00    +0.000 HD
ENDBRANCH   8  11
ENDBRANCH   4   7
BRANCH   6  21
ATOM     21  S   UNL     1       4.798   4.126  18.435  0.00  0.00    +0.000 S 
ATOM     22  O   UNL     1       5.500   3.174  19.284  0.00  0.00    +0.000 OA
ATOM     23  O   UNL     1       4.446   3.753  17.082  0.00  0.00    +0.000 OA
BRANCH  21  24
ATOM     24  N   UNL     1       5.770   5.557  18.364  0.00  0.00    +0.000 NA
ATOM     25  C   UNL     1       7.183   5.371  18.793  0.00  0.00    +0.000 C 
ATOM     26  C   UNL     1       7.965   6.683  18.797  0.00  0.00    +0.000 C 
ATOM     27  C   UNL     1       7.826   7.426  17.477  0.00  0.00    +0.000 C 
ATOM     28  C   UNL     1       6.357   7.699  17.213  0.00  0.00    +0.000 C 
ATOM     29  C   UNL     1       5.547   6.409  17.171  0.00  0.00    +0.000 C 
ENDBRANCH  21  24
ENDBRANCH   6  21
BRANCH   1  31
ATOM     30  C   UNL     1       1.679   1.935  18.264  0.00  0.00    +0.000 C 
ATOM     31  O   UNL     1       2.461   2.364  19.381  0.00  0.00    +0.000 OA
ENDBRANCH   1  31
TORSDOF 5
ENDMDL
MODEL 7
REMARK VINA RESULT:      -7.8      0.759      1.184
REMARK  Name = 
REMARK  6 active torsions:
REMARK  status: ('A' for Active; 'I' for Inactive)
REMARK    1  A    between atoms: C_1  and  O_2
REMARK    2  A    between atoms: O_2  and  C_3
REMARK    3  A    between atoms: C_6  and  N_7
REMARK    4  A    between atoms: C_8  and  C_10
REMARK    5  A    between atoms: C_20  and  S_21
REMARK    6  A    between atoms: S_21  and  N_24
REMARK                            x       y       z     vdW  Elec       q    Type
REMARK                         _______ _______ _______ _____ _____    ______ ____
ROOT
ATOM      1  C   UNL     1       2.716   4.226  19.890  0.00  0.00    +0.000 A 
ATOM      2  C   UNL     1       1.882   4.868  20.817  0.00  0.00    +0.000 A 
ATOM      3  C   UNL     1       1.645   6.236  20.734  0.00  0.00    +0.000 A 
ATOM      4  C   UNL     1       2.258   6.999  19.743  0.00  0.00    +0.000 A 
ATOM      5  C   UNL     1       3.113   6.392  18.828  0.00  0.00    +0.000 A 
ATOM      6  C   UNL     1       3.291   4.982  18.860  0.00  0.00    +0.000 A 
ENDROOT
BRANCH   4   7
ATOM      7  N   UNL     1       2.005   8.376  19.679  0.00  0.00    +0.000 N 
ATOM      8  C   UNL     1       1.542   8.950  18.506  0.00  0.00    +0.000 C 
ATOM      9  O   UNL     1       1.682   8.419  17.405  0.00  0.00    +0.000 OA
ATOM     10  H   UNL     1       2.368   8.997  20.390  0.00  0.00    +0.000 HD
BRANCH   8  11
ATOM     11  C   UNL     1       0.828  10.211  18.659  0.00  0.00    +0.000 A 
ATOM     12  C   UNL     1       1.186  11.296  19.444  0.00  0.00    +0.000 A 
ATOM     13  N   UNL     1       0.165  12.211  19.383  0.00  0.00    +0.000 N 
ATOM     14  C   UNL     1      -0.952  11.608  18.858  0.00  0.00    +0.000 A 
ATOM     15  C   UNL     1      -2.304  11.963  18.923  0.00  0.00    +0.000 A 
ATOM     16  C   UNL     1      -3.210  11.164  18.218  0.00  0.00    +0.000 A 
ATOM     17  C   UNL     1      -2.768  10.124  17.404  0.00  0.00    +0.000 A 
ATOM     18  C   UNL     1      -1.417   9.769  17.376  0.00  0.00    +0.000 A 
ATOM     19  C   UNL     1      -0.506  10.470  18.193  0.00  0.00    +0.000 A 
ATOM     20  H   UNL     1       0.184  13.143  19.772  0.00  0.00    +0.000 HD
ENDBRANCH   8  11
ENDBRANCH   4   7
BRANCH   6  21
ATOM     21  S   UNL     1       4.362   4.261  17.610  0.00  0.00    +0.000 S 
ATOM     22  O   UNL     1       4.554   2.868  17.987  0.00  0.00    +0.000 OA
ATOM     23  O   UNL     1       3.850   4.581  16.295  0.00  0.00    +0.000 OA
BRANCH  21  24
ATOM     24  N   UNL     1       5.888   5.055  17.801  0.00  0.00    +0.000 NA
ATOM     25  C   UNL     1       6.091   6.233  16.913  0.00  0.00    +0.000 C 
ATOM     26  C   UNL     1       7.487   6.835  17.061  0.00  0.00    +0.000 C 
ATOM     27  C   UNL     1       7.834   7.107  18.516  0.00  0.00    +0.000 C 
ATOM     28  C   UNL     1       7.744   5.809  19.299  0.00  0.00    +0.000 C 
ATOM     29  C   UNL     1       6.353   5.193  19.201  0.00  0.00    +0.000 C 
ENDBRANCH  21  24
ENDBRANCH   6  21
BRANCH   1  31
ATOM     30  C   UNL     1       1.772   2.067  19.689  0.00  0.00    +0.000 C 
ATOM     31  O   UNL     1       2.920   2.878  19.948  0.00  0.00    +0.000 OA
ENDBRANCH   1  31
TORSDOF 5
ENDMDL
MODEL 8
REMARK VINA RESULT:      -7.8      1.859      2.479
REMARK  Name = 
REMARK  6 active torsions:
REMARK  status: ('A' for Active; 'I' for Inactive)
REMARK    1  A    between atoms: C_1  and  O_2
REMARK    2  A    between atoms: O_2  and  C_3
REMARK    3  A    between atoms: C_6  and  N_7
REMARK    4  A    between atoms: C_8  and  C_10
REMARK    5  A    between atoms: C_20  and  S_21
REMARK    6  A    between atoms: S_21  and  N_24
REMARK                            x       y       z     vdW  Elec       q    Type
REMARK                         _______ _______ _______ _____ _____    ______ ____
ROOT
ATOM      1  C   UNL     1       2.732   3.753  19.637  0.00  0.00    +0.000 A 
ATOM      2  C   UNL     1       1.440   4.208  19.942  0.00  0.00    +0.000 A 
ATOM      3  C   UNL     1       1.187   5.564  20.120  0.00  0.00    +0.000 A 
ATOM      4  C   UNL     1       2.220   6.493  20.028  0.00  0.00    +0.000 A 
ATOM      5  C   UNL     1       3.516   6.066  19.755  0.00  0.00    +0.000 A 
ATOM      6  C   UNL     1       3.763   4.691  19.490  0.00  0.00    +0.000 A 
ENDROOT
BRANCH   4   7
ATOM      7  N   UNL     1       1.941   7.854  20.213  0.00  0.00    +0.000 N 
ATOM      8  C   UNL     1       1.655   8.665  19.126  0.00  0.00    +0.000 C 
ATOM      9  O   UNL     1       1.985   8.376  17.977  0.00  0.00    +0.000 OA
ATOM     10  H   UNL     1       2.168   8.309  21.087  0.00  0.00    +0.000 HD
BRANCH   8  11
ATOM     11  C   UNL     1       0.889   9.869  19.421  0.00  0.00    +0.000 A 
ATOM     12  C   UNL     1       0.940  11.087  18.760  0.00  0.00    +0.000 A 
ATOM     13  N   UNL     1       0.148  11.969  19.450  0.00  0.00    +0.000 N 
ATOM     14  C   UNL     1      -0.136  11.449  20.689  0.00  0.00    +0.000 A 
ATOM     15  C   UNL     1      -0.568  12.067  21.868  0.00  0.00    +0.000 A 
ATOM     16  C   UNL     1      -0.835  11.240  22.964  0.00  0.00    +0.000 A 
ATOM     17  C   UNL     1      -0.772   9.853  22.849  0.00  0.00    +0.000 A 
ATOM     18  C   UNL     1      -0.311   9.258  21.672  0.00  0.00    +0.000 A 
ATOM     19  C   UNL     1       0.102  10.081  20.603  0.00  0.00    +0.000 A 
ATOM     20  H   UNL     1      -0.092  12.905  19.152  0.00  0.00    +0.000 HD
ENDBRANCH   8  11
ENDBRANCH   4   7
BRANCH   6  21
ATOM     21  S   UNL     1       5.449   4.222  19.084  0.00  0.00    +0.000 S 
ATOM     22  O   UNL     1       6.317   5.128  19.822  0.00  0.00    +0.000 OA
ATOM     23  O   UNL     1       5.604   2.793  19.247  0.00  0.00    +0.000 OA
BRANCH  21  24
ATOM     24  N   UNL     1       5.636   4.595  17.404  0.00  0.00    +0.000 NA
ATOM     25  C   UNL     1       7.044   4.613  16.923  0.00  0.00    +0.000 C 
ATOM     26  C   UNL     1       7.152   5.037  15.460  0.00  0.00    +0.000 C 
ATOM     27  C   UNL     1       6.218   4.232  14.569  0.00  0.00    +0.000 C 
ATOM     28  C   UNL     1       4.791   4.409  15.056  0.00  0.00    +0.000 C 
ATOM     29  C   UNL     1       4.637   3.966  16.507  0.00  0.00    +0.000 C 
ENDBRANCH  21  24
ENDBRANCH   6  21
BRANCH   1  31
ATOM     30  C   UNL     1       2.182   1.808  18.411  0.00  0.00    +0.000 C 
ATOM     31  O   UNL     1       2.975   2.427  19.425  0.00  0.00    +0.000 OA
ENDBRANCH   1  31
TORSDOF 5
ENDMDL
MODEL 9
REMARK VINA RESULT:      -7.8      3.697      8.566
REMARK  Name = 
REMARK  6 active torsions:
REMARK  status: ('A' for Active; 'I' for Inactive)
REMARK    1  A    between atoms: C_1  and  O_2
REMARK    2  A    between atoms: O_2  and  C_3
REMARK    3  A    between atoms: C_6  and  N_7
REMARK    4  A    between atoms: C_8  and  C_10
REMARK    5  A    between atoms: C_20  and  S_21
REMARK    6  A    between atoms: S_21  and  N_24
REMARK                            x       y       z     vdW  Elec       q    Type
REMARK                         _______ _______ _______ _____ _____    ______ ____
ROOT
ATOM      1  C   UNL     1      -0.846  11.775  18.969  0.00  0.00    +0.000 A 
ATOM      2  C   UNL     1      -1.166  10.633  18.220  0.00  0.00    +0.000 A 
ATOM      3  C   UNL     1      -0.226   9.627  18.019  0.00  0.00    +0.000 A 
ATOM      4  C   UNL     1       1.062   9.752  18.534  0.00  0.00    +0.000 A 
ATOM      5  C   UNL     1       1.414  10.889  19.257  0.00  0.00    +0.000 A 
ATOM      6  C   UNL     1       0.432  11.878  19.534  0.00  0.00    +0.000 A 
ENDROOT
BRANCH   4   7
ATOM      7  N   UNL     1       1.992   8.727  18.318  0.00  0.00    +0.000 N 
ATOM      8  C   UNL     1       2.148   7.714  19.251  0.00  0.00    +0.000 C 
ATOM      9  O   UNL     1       1.805   7.834  20.425  0.00  0.00    +0.000 OA
ATOM     10  H   UNL     1       2.712   8.829  17.615  0.00  0.00    +0.000 HD
BRANCH   8  11
ATOM     11  C   UNL     1       2.706   6.467  18.741  0.00  0.00    +0.000 A 
ATOM     12  C   UNL     1       3.588   6.305  17.684  0.00  0.00    +0.000 A 
ATOM     13  N   UNL     1       3.747   4.958  17.476  0.00  0.00    +0.000 N 
ATOM     14  C   UNL     1       2.757   4.277  18.142  0.00  0.00    +0.000 A 
ATOM     15  C   UNL     1       2.256   2.982  17.969  0.00  0.00    +0.000 A 
ATOM     16  C   UNL     1       1.272   2.552  18.865  0.00  0.00    +0.000 A 
ATOM     17  C   UNL     1       0.885   3.344  19.944  0.00  0.00    +0.000 A 
ATOM     18  C   UNL     1       1.377   4.645  20.081  0.00  0.00    +0.000 A 
ATOM     19  C   UNL     1       2.261   5.151  19.105  0.00  0.00    +0.000 A 
ATOM     20  H   UNL     1       4.407   4.533  16.840  0.00  0.00    +0.000 HD
ENDBRANCH   8  11
ENDBRANCH   4   7
BRANCH   6  21
ATOM     21  S   UNL     1       0.944  13.288  20.524  0.00  0.00    +0.000 S 
ATOM     22  O   UNL     1      -0.163  13.582  21.423  0.00  0.00    +0.000 OA
ATOM     23  O   UNL     1       2.261  13.042  21.068  0.00  0.00    +0.000 OA
BRANCH  21  24
ATOM     24  N   UNL     1       1.060  14.610  19.412  0.00  0.00    +0.000 NA
ATOM     25  C   UNL     1      -0.009  15.636  19.551  0.00  0.00    +0.000 C 
ATOM     26  C   UNL     1       0.093  16.727  18.486  0.00  0.00    +0.000 C 
ATOM     27  C   UNL     1       1.492  17.317  18.414  0.00  0.00    +0.000 C 
ATOM     28  C   UNL     1       2.484  16.207  18.115  0.00  0.00    +0.000 C 
ATOM     29  C   UNL     1       2.434  15.112  19.175  0.00  0.00    +0.000 C 
ENDBRANCH  21  24
ENDBRANCH   6  21
BRANCH   1  31
ATOM     30  C   UNL     1      -3.055  12.283  19.644  0.00  0.00    +0.000 C 
ATOM     31  O   UNL     1      -1.778  12.746  19.199  0.00  0.00    +0.000 OA
ENDBRANCH   1  31
TORSDOF 5
ENDMDL
