MODEL 1
REMARK VINA RESULT:      -9.1      0.000      0.000
REMARK  Name = 
REMARK  7 active torsions:
REMARK  status: ('A' for Active; 'I' for Inactive)
REMARK    1  A    between atoms: C_1  and  C_2
REMARK    2  A    between atoms: C_5  and  C_6
REMARK    3  A    between atoms: C_9  and  C_10
REMARK    4  A    between atoms: N_12  and  C_13
REMARK    5  A    between atoms: C_13  and  C_14
REMARK    6  A    between atoms: C_14  and  C_15
REMARK    7  A    between atoms: C_14  and  C_21
REMARK                            x       y       z     vdW  Elec       q    Type
REMARK                         _______ _______ _______ _____ _____    ______ ____
ROOT
ATOM      1  C   UNL     1       1.337   9.223  18.108  0.00  0.00    +0.000 C 
ATOM      2  O   UNL     1       2.197   9.668  17.357  0.00  0.00    +0.000 OA
ATOM      3  N   UNL     1       1.507   8.083  18.854  0.00  0.00    +0.000 N 
ATOM      4  H   UNL     1       0.826   7.842  19.560  0.00  0.00    +0.000 HD
ENDROOT
BRANCH   1   8
ATOM      5  C   UNL     1      -2.473  11.194  18.516  0.00  0.00    +0.000 A 
ATOM      6  C   UNL     1      -1.468  11.416  19.473  0.00  0.00    +0.000 A 
ATOM      7  C   UNL     1      -0.219  10.789  19.360  0.00  0.00    +0.000 A 
ATOM      8  C   UNL     1       0.043   9.939  18.278  0.00  0.00    +0.000 A 
ATOM      9  C   UNL     1      -0.950   9.716  17.323  0.00  0.00    +0.000 A 
ATOM     10  C   UNL     1      -2.193  10.342  17.437  0.00  0.00    +0.000 A 
BRANCH   5  15
ATOM     11  C   UNL     1      -7.204  12.409  18.017  0.00  0.00    +0.000 C 
ATOM     12  C   UNL     1      -5.816  12.335  18.509  0.00  0.00    +0.000 A 
ATOM     13  N   UNL     1      -5.430  12.867  19.676  0.00  0.00    +0.000 NA
ATOM     14  O   UNL     1      -4.084  12.496  19.760  0.00  0.00    +0.000 OA
ATOM     15  C   UNL     1      -3.806  11.774  18.632  0.00  0.00    +0.000 A 
ATOM     16  N   UNL     1      -4.838  11.667  17.823  0.00  0.00    +0.000 NA
ENDBRANCH   5  15
ENDBRANCH   1   8
BRANCH   3  17
ATOM     17  C   UNL     1       2.767   7.349  18.841  0.00  0.00    +0.000 C 
BRANCH  17  18
ATOM     18  C   UNL     1       2.676   5.942  18.192  0.00  0.00    +0.000 C 
BRANCH  18  19
ATOM     19  C   UNL     1       3.991   5.610  17.468  0.00  0.00    +0.000 A 
ATOM     20  C   UNL     1       4.251   4.330  16.948  0.00  0.00    +0.000 A 
ATOM     21  C   UNL     1       5.448   4.052  16.284  0.00  0.00    +0.000 A 
ATOM     22  C   UNL     1       6.406   5.051  16.135  0.00  0.00    +0.000 A 
ATOM     23  C   UNL     1       6.175   6.322  16.657  0.00  0.00    +0.000 A 
ATOM     24  C   UNL     1       4.979   6.600  17.324  0.00  0.00    +0.000 A 
ENDBRANCH  18  19
BRANCH  18  25
ATOM     25  C   UNL     1       2.179   4.823  19.119  0.00  0.00    +0.000 A 
ATOM     26  C   UNL     1       1.324   3.794  18.689  0.00  0.00    +0.000 A 
ATOM     27  C   UNL     1       0.853   2.826  19.577  0.00  0.00    +0.000 A 
ATOM     28  C   UNL     1       1.248   2.851  20.910  0.00  0.00    +0.000 A 
ATOM     29  C   UNL     1       2.129   3.834  21.351  0.00  0.00    +0.000 A 
ATOM     30  C   UNL     1       2.597   4.807  20.463  0.00  0.00    +0.000 A 
ENDBRANCH  18  25
ENDBRANCH  17  18
ENDBRANCH   3  17
TORSDOF 6
ENDMDL
MODEL 2
REMARK VINA RESULT:      -9.0      2.615      4.486
REMARK  Name = 
REMARK  7 active torsions:
REMARK  status: ('A' for Active; 'I' for Inactive)
REMARK    1  A    between atoms: C_1  and  C_2
REMARK    2  A    between atoms: C_5  and  C_6
REMARK    3  A    between atoms: C_9  and  C_10
REMARK    4  A    between atoms: N_12  and  C_13
REMARK    5  A    between atoms: C_13  and  C_14
REMARK    6  A    between atoms: C_14  and  C_15
REMARK    7  A    between atoms: C_14  and  C_21
REMARK                            x       y       z     vdW  Elec       q    Type
REMARK                         _______ _______ _______ _____ _____    ______ ____
ROOT
ATOM      1  C   UNL     1       1.588   9.414  18.584  0.00  0.00    +0.000 C 
ATOM      2  O   UNL     1       1.859  10.001  17.543  0.00  0.00    +0.000 OA
ATOM      3  N   UNL     1       2.016   8.139  18.862  0.00  0.00    +0.000 N 
ATOM      4  H   UNL     1       1.886   7.760  19.789  0.00  0.00    +0.000 HD
ENDROOT
BRANCH   1   8
ATOM      5  C   UNL     1      -0.809  11.427  21.545  0.00  0.00    +0.000 A 
ATOM      6  C   UNL     1      -0.062  10.295  21.907  0.00  0.00    +0.000 A 
ATOM      7  C   UNL     1       0.729   9.624  20.963  0.00  0.00    +0.000 A 
ATOM      8  C   UNL     1       0.789  10.089  19.643  0.00  0.00    +0.000 A 
ATOM      9  C   UNL     1       0.051  11.216  19.277  0.00  0.00    +0.000 A 
ATOM     10  C   UNL     1      -0.735  11.882  20.220  0.00  0.00    +0.000 A 
BRANCH   5  15
ATOM     11  C   UNL     1      -4.315  12.684  24.746  0.00  0.00    +0.000 C 
ATOM     12  C   UNL     1      -3.134  12.731  23.864  0.00  0.00    +0.000 A 
ATOM     13  N   UNL     1      -2.246  13.733  23.891  0.00  0.00    +0.000 NA
ATOM     14  O   UNL     1      -1.282  13.325  22.964  0.00  0.00    +0.000 OA
ATOM     15  C   UNL     1      -1.694  12.114  22.480  0.00  0.00    +0.000 A 
ATOM     16  N   UNL     1      -2.839  11.718  22.991  0.00  0.00    +0.000 NA
ENDBRANCH   5  15
ENDBRANCH   1   8
BRANCH   3  17
ATOM     17  C   UNL     1       2.883   7.413  17.941  0.00  0.00    +0.000 C 
BRANCH  17  18
ATOM     18  C   UNL     1       3.663   6.241  18.595  0.00  0.00    +0.000 C 
BRANCH  18  19
ATOM     19  C   UNL     1       2.688   5.134  19.025  0.00  0.00    +0.000 A 
ATOM     20  C   UNL     1       2.329   4.940  20.371  0.00  0.00    +0.000 A 
ATOM     21  C   UNL     1       1.433   3.935  20.740  0.00  0.00    +0.000 A 
ATOM     22  C   UNL     1       0.885   3.103  19.767  0.00  0.00    +0.000 A 
ATOM     23  C   UNL     1       1.240   3.268  18.430  0.00  0.00    +0.000 A 
ATOM     24  C   UNL     1       2.139   4.272  18.060  0.00  0.00    +0.000 A 
ENDBRANCH  18  19
BRANCH  18  25
ATOM     25  C   UNL     1       4.869   5.729  17.794  0.00  0.00    +0.000 A 
ATOM     26  C   UNL     1       4.954   5.816  16.394  0.00  0.00    +0.000 A 
ATOM     27  C   UNL     1       6.045   5.290  15.700  0.00  0.00    +0.000 A 
ATOM     28  C   UNL     1       7.088   4.689  16.395  0.00  0.00    +0.000 A 
ATOM     29  C   UNL     1       7.050   4.630  17.785  0.00  0.00    +0.000 A 
ATOM     30  C   UNL     1       5.954   5.152  18.479  0.00  0.00    +0.000 A 
ENDBRANCH  18  25
ENDBRANCH  17  18
ENDBRANCH   3  17
TORSDOF 6
ENDMDL
MODEL 3
REMARK VINA RESULT:      -9.0      3.637      5.782
REMARK  Name = 
REMARK  7 active torsions:
REMARK  status: ('A' for Active; 'I' for Inactive)
REMARK    1  A    between atoms: C_1  and  C_2
REMARK    2  A    between atoms: C_5  and  C_6
REMARK    3  A    between atoms: C_9  and  C_10
REMARK    4  A    between atoms: N_12  and  C_13
REMARK    5  A    between atoms: C_13  and  C_14
REMARK    6  A    between atoms: C_14  and  C_15
REMARK    7  A    between atoms: C_14  and  C_21
REMARK                            x       y       z     vdW  Elec       q    Type
REMARK                         _______ _______ _______ _____ _____    ______ ____
ROOT
ATOM      1  C   UNL     1       3.097   4.603  18.081  0.00  0.00    +0.000 C 
ATOM      2  O   UNL     1       2.664   3.458  18.146  0.00  0.00    +0.000 OA
ATOM      3  N   UNL     1       4.073   4.989  17.195  0.00  0.00    +0.000 N 
ATOM      4  H   UNL     1       4.288   5.969  17.086  0.00  0.00    +0.000 HD
ENDROOT
BRANCH   1   8
ATOM      5  C   UNL     1       1.479   7.769  20.515  0.00  0.00    +0.000 A 
ATOM      6  C   UNL     1       1.467   6.449  20.993  0.00  0.00    +0.000 A 
ATOM      7  C   UNL     1       1.992   5.401  20.222  0.00  0.00    +0.000 A 
ATOM      8  C   UNL     1       2.545   5.667  18.963  0.00  0.00    +0.000 A 
ATOM      9  C   UNL     1       2.561   6.978  18.483  0.00  0.00    +0.000 A 
ATOM     10  C   UNL     1       2.039   8.019  19.253  0.00  0.00    +0.000 A 
BRANCH   5  15
ATOM     11  C   UNL     1      -1.224  11.564  22.067  0.00  0.00    +0.000 C 
ATOM     12  C   UNL     1      -0.230  10.476  22.009  0.00  0.00    +0.000 A 
ATOM     13  N   UNL     1       0.452  10.058  23.083  0.00  0.00    +0.000 NA
ATOM     14  O   UNL     1       1.201   8.988  22.582  0.00  0.00    +0.000 OA
ATOM     15  C   UNL     1       0.885   8.876  21.256  0.00  0.00    +0.000 A 
ATOM     16  N   UNL     1       0.022   9.784  20.855  0.00  0.00    +0.000 NA
ENDBRANCH   5  15
ENDBRANCH   1   8
BRANCH   3  17
ATOM     17  C   UNL     1       4.622   4.056  16.219  0.00  0.00    +0.000 C 
BRANCH  17  18
ATOM     18  C   UNL     1       6.165   4.131  16.067  0.00  0.00    +0.000 C 
BRANCH  18  19
ATOM     19  C   UNL     1       6.542   4.261  14.582  0.00  0.00    +0.000 A 
ATOM     20  C   UNL     1       5.857   3.554  13.576  0.00  0.00    +0.000 A 
ATOM     21  C   UNL     1       6.209   3.694  12.232  0.00  0.00    +0.000 A 
ATOM     22  C   UNL     1       7.255   4.539  11.873  0.00  0.00    +0.000 A 
ATOM     23  C   UNL     1       7.956   5.236  12.855  0.00  0.00    +0.000 A 
ATOM     24  C   UNL     1       7.607   5.094  14.201  0.00  0.00    +0.000 A 
ENDBRANCH  18  19
BRANCH  18  25
ATOM     25  C   UNL     1       6.864   5.152  16.975  0.00  0.00    +0.000 A 
ATOM     26  C   UNL     1       7.533   4.795  18.159  0.00  0.00    +0.000 A 
ATOM     27  C   UNL     1       8.110   5.761  18.984  0.00  0.00    +0.000 A 
ATOM     28  C   UNL     1       8.055   7.104  18.630  0.00  0.00    +0.000 A 
ATOM     29  C   UNL     1       7.438   7.480  17.440  0.00  0.00    +0.000 A 
ATOM     30  C   UNL     1       6.855   6.513  16.617  0.00  0.00    +0.000 A 
ENDBRANCH  18  25
ENDBRANCH  17  18
ENDBRANCH   3  17
TORSDOF 6
ENDMDL
MODEL 4
REMARK VINA RESULT:      -9.0      2.191      4.144
REMARK  Name = 
REMARK  7 active torsions:
REMARK  status: ('A' for Active; 'I' for Inactive)
REMARK    1  A    between atoms: C_1  and  C_2
REMARK    2  A    between atoms: C_5  and  C_6
REMARK    3  A    between atoms: C_9  and  C_10
REMARK    4  A    between atoms: N_12  and  C_13
REMARK    5  A    between atoms: C_13  and  C_14
REMARK    6  A    between atoms: C_14  and  C_15
REMARK    7  A    between atoms: C_14  and  C_21
REMARK                            x       y       z     vdW  Elec       q    Type
REMARK                         _______ _______ _______ _____ _____    ______ ____
ROOT
ATOM      1  C   UNL     1       1.665   9.519  18.399  0.00  0.00    +0.000 C 
ATOM      2  O   UNL     1       2.149  10.182  17.489  0.00  0.00    +0.000 OA
ATOM      3  N   UNL     1       1.961   8.194  18.605  0.00  0.00    +0.000 N 
ATOM      4  H   UNL     1       1.648   7.738  19.450  0.00  0.00    +0.000 HD
ENDROOT
BRANCH   1   8
ATOM      5  C   UNL     1      -1.135  11.350  21.114  0.00  0.00    +0.000 A 
ATOM      6  C   UNL     1      -0.088  10.564  21.620  0.00  0.00    +0.000 A 
ATOM      7  C   UNL     1       0.839   9.960  20.758  0.00  0.00    +0.000 A 
ATOM      8  C   UNL     1       0.732  10.147  19.373  0.00  0.00    +0.000 A 
ATOM      9  C   UNL     1      -0.305  10.930  18.864  0.00  0.00    +0.000 A 
ATOM     10  C   UNL     1      -1.226  11.530  19.725  0.00  0.00    +0.000 A 
BRANCH   5  15
ATOM     11  C   UNL     1      -4.973  13.779  22.982  0.00  0.00    +0.000 C 
ATOM     12  C   UNL     1      -3.781  12.921  22.851  0.00  0.00    +0.000 A 
ATOM     13  N   UNL     1      -3.359  12.109  23.828  0.00  0.00    +0.000 NA
ATOM     14  O   UNL     1      -2.271  11.452  23.244  0.00  0.00    +0.000 OA
ATOM     15  C   UNL     1      -2.157  11.940  21.972  0.00  0.00    +0.000 A 
ATOM     16  N   UNL     1      -3.054  12.862  21.692  0.00  0.00    +0.000 NA
ENDBRANCH   5  15
ENDBRANCH   1   8
BRANCH   3  17
ATOM     17  C   UNL     1       2.933   7.496  17.772  0.00  0.00    +0.000 C 
BRANCH  17  18
ATOM     18  C   UNL     1       3.678   6.343  18.496  0.00  0.00    +0.000 C 
BRANCH  18  19
ATOM     19  C   UNL     1       2.678   5.258  18.926  0.00  0.00    +0.000 A 
ATOM     20  C   UNL     1       2.079   4.388  17.996  0.00  0.00    +0.000 A 
ATOM     21  C   UNL     1       1.180   3.402  18.409  0.00  0.00    +0.000 A 
ATOM     22  C   UNL     1       0.863   3.273  19.758  0.00  0.00    +0.000 A 
ATOM     23  C   UNL     1       1.433   4.135  20.693  0.00  0.00    +0.000 A 
ATOM     24  C   UNL     1       2.330   5.125  20.281  0.00  0.00    +0.000 A 
ENDBRANCH  18  19
BRANCH  18  25
ATOM     25  C   UNL     1       4.910   5.795  17.761  0.00  0.00    +0.000 A 
ATOM     26  C   UNL     1       5.040   5.809  16.362  0.00  0.00    +0.000 A 
ATOM     27  C   UNL     1       6.153   5.252  15.732  0.00  0.00    +0.000 A 
ATOM     28  C   UNL     1       7.175   4.692  16.489  0.00  0.00    +0.000 A 
ATOM     29  C   UNL     1       7.093   4.706  17.879  0.00  0.00    +0.000 A 
ATOM     30  C   UNL     1       5.975   5.258  18.509  0.00  0.00    +0.000 A 
ENDBRANCH  18  25
ENDBRANCH  17  18
ENDBRANCH   3  17
TORSDOF 6
ENDMDL
MODEL 5
REMARK VINA RESULT:      -9.0      2.721      4.608
REMARK  Name = 
REMARK  7 active torsions:
REMARK  status: ('A' for Active; 'I' for Inactive)
REMARK    1  A    between atoms: C_1  and  C_2
REMARK    2  A    between atoms: C_5  and  C_6
REMARK    3  A    between atoms: C_9  and  C_10
REMARK    4  A    between atoms: N_12  and  C_13
REMARK    5  A    between atoms: C_13  and  C_14
REMARK    6  A    between atoms: C_14  and  C_15
REMARK    7  A    between atoms: C_14  and  C_21
REMARK                            x       y       z     vdW  Elec       q    Type
REMARK                         _______ _______ _______ _____ _____    ______ ____
ROOT
ATOM      1  C   UNL     1       1.073   9.302  18.916  0.00  0.00    +0.000 C 
ATOM      2  O   UNL     1       0.978   9.684  17.755  0.00  0.00    +0.000 OA
ATOM      3  N   UNL     1       1.841   8.228  19.294  0.00  0.00    +0.000 N 
ATOM      4  H   UNL     1       1.997   8.047  20.275  0.00  0.00    +0.000 HD
ENDROOT
BRANCH   1   8
ATOM      5  C   UNL     1      -1.043  11.478  21.975  0.00  0.00    +0.000 A 
ATOM      6  C   UNL     1      -0.432  10.253  22.289  0.00  0.00    +0.000 A 
ATOM      7  C   UNL     1       0.266   9.528  21.312  0.00  0.00    +0.000 A 
ATOM      8  C   UNL     1       0.369  10.029  20.008  0.00  0.00    +0.000 A 
ATOM      9  C   UNL     1      -0.234  11.247  19.690  0.00  0.00    +0.000 A 
ATOM     10  C   UNL     1      -0.928  11.967  20.665  0.00  0.00    +0.000 A 
BRANCH   5  15
ATOM     11  C   UNL     1      -3.029  14.909  24.873  0.00  0.00    +0.000 C 
ATOM     12  C   UNL     1      -2.755  13.629  24.194  0.00  0.00    +0.000 A 
ATOM     13  N   UNL     1      -3.588  12.582  24.253  0.00  0.00    +0.000 NA
ATOM     14  O   UNL     1      -2.972  11.643  23.420  0.00  0.00    +0.000 OA
ATOM     15  C   UNL     1      -1.832  12.230  22.944  0.00  0.00    +0.000 A 
ATOM     16  N   UNL     1      -1.648  13.446  23.410  0.00  0.00    +0.000 NA
ENDBRANCH   5  15
ENDBRANCH   1   8
BRANCH   3  17
ATOM     17  C   UNL     1       2.650   7.497  18.326  0.00  0.00    +0.000 C 
BRANCH  17  18
ATOM     18  C   UNL     1       3.440   6.306  18.930  0.00  0.00    +0.000 C 
BRANCH  18  19
ATOM     19  C   UNL     1       2.493   5.123  19.192  0.00  0.00    +0.000 A 
ATOM     20  C   UNL     1       1.983   4.334  18.145  0.00  0.00    +0.000 A 
ATOM     21  C   UNL     1       1.132   3.257  18.405  0.00  0.00    +0.000 A 
ATOM     22  C   UNL     1       0.774   2.957  19.716  0.00  0.00    +0.000 A 
ATOM     23  C   UNL     1       1.255   3.737  20.766  0.00  0.00    +0.000 A 
ATOM     24  C   UNL     1       2.104   4.816  20.507  0.00  0.00    +0.000 A 
ENDBRANCH  18  19
BRANCH  18  25
ATOM     25  C   UNL     1       4.722   5.920  18.178  0.00  0.00    +0.000 A 
ATOM     26  C   UNL     1       4.898   6.137  16.800  0.00  0.00    +0.000 A 
ATOM     27  C   UNL     1       6.058   5.722  16.145  0.00  0.00    +0.000 A 
ATOM     28  C   UNL     1       7.079   5.105  16.858  0.00  0.00    +0.000 A 
ATOM     29  C   UNL     1       6.948   4.919  18.232  0.00  0.00    +0.000 A 
ATOM     30  C   UNL     1       5.784   5.329  18.887  0.00  0.00    +0.000 A 
ENDBRANCH  18  25
ENDBRANCH  17  18
ENDBRANCH   3  17
TORSDOF 6
ENDMDL
MODEL 6
REMARK VINA RESULT:      -9.0      3.685      5.696
REMARK  Name = 
REMARK  7 active torsions:
REMARK  status: ('A' for Active; 'I' for Inactive)
REMARK    1  A    between atoms: C_1  and  C_2
REMARK    2  A    between atoms: C_5  and  C_6
REMARK    3  A    between atoms: C_9  and  C_10
REMARK    4  A    between atoms: N_12  and  C_13
REMARK    5  A    between atoms: C_13  and  C_14
REMARK    6  A    between atoms: C_14  and  C_15
REMARK    7  A    between atoms: C_14  and  C_21
REMARK                            x       y       z     vdW  Elec       q    Type
REMARK                         _______ _______ _______ _____ _____    ______ ____
ROOT
ATOM      1  C   UNL     1       3.326   4.894  18.265  0.00  0.00    +0.000 C 
ATOM      2  O   UNL     1       3.238   3.790  18.791  0.00  0.00    +0.000 OA
ATOM      3  N   UNL     1       4.013   5.119  17.098  0.00  0.00    +0.000 N 
ATOM      4  H   UNL     1       3.932   6.013  16.635  0.00  0.00    +0.000 HD
ENDROOT
BRANCH   1   8
ATOM      5  C   UNL     1       1.365   8.242  20.139  0.00  0.00    +0.000 A 
ATOM      6  C   UNL     1       1.894   8.380  18.846  0.00  0.00    +0.000 A 
ATOM      7  C   UNL     1       2.533   7.305  18.212  0.00  0.00    +0.000 A 
ATOM      8  C   UNL     1       2.641   6.070  18.867  0.00  0.00    +0.000 A 
ATOM      9  C   UNL     1       2.115   5.926  20.151  0.00  0.00    +0.000 A 
ATOM     10  C   UNL     1       1.478   6.998  20.779  0.00  0.00    +0.000 A 
BRANCH   5  15
ATOM     11  C   UNL     1      -1.270  11.119  23.122  0.00  0.00    +0.000 C 
ATOM     12  C   UNL     1      -0.309  10.654  22.105  0.00  0.00    +0.000 A 
ATOM     13  N   UNL     1       0.627  11.450  21.572  0.00  0.00    +0.000 NA
ATOM     14  O   UNL     1       1.337  10.583  20.735  0.00  0.00    +0.000 OA
ATOM     15  C   UNL     1       0.751   9.353  20.858  0.00  0.00    +0.000 A 
ATOM     16  N   UNL     1      -0.279   9.354  21.676  0.00  0.00    +0.000 NA
ENDBRANCH   5  15
ENDBRANCH   1   8
BRANCH   3  17
ATOM     17  C   UNL     1       4.645   4.027  16.368  0.00  0.00    +0.000 C 
BRANCH  17  18
ATOM     18  C   UNL     1       6.177   4.190  16.182  0.00  0.00    +0.000 C 
BRANCH  18  19
ATOM     19  C   UNL     1       6.520   4.274  14.685  0.00  0.00    +0.000 A 
ATOM     20  C   UNL     1       7.573   5.075  14.207  0.00  0.00    +0.000 A 
ATOM     21  C   UNL     1       7.875   5.128  12.845  0.00  0.00    +0.000 A 
ATOM     22  C   UNL     1       7.124   4.386  11.938  0.00  0.00    +0.000 A 
ATOM     23  C   UNL     1       6.066   3.599  12.389  0.00  0.00    +0.000 A 
ATOM     24  C   UNL     1       5.762   3.546  13.752  0.00  0.00    +0.000 A 
ENDBRANCH  18  19
BRANCH  18  25
ATOM     25  C   UNL     1       6.827   5.292  17.030  0.00  0.00    +0.000 A 
ATOM     26  C   UNL     1       6.804   6.651  16.672  0.00  0.00    +0.000 A 
ATOM     27  C   UNL     1       7.454   7.615  17.445  0.00  0.00    +0.000 A 
ATOM     28  C   UNL     1       8.119   7.244  18.607  0.00  0.00    +0.000 A 
ATOM     29  C   UNL     1       8.119   5.910  19.008  0.00  0.00    +0.000 A 
ATOM     30  C   UNL     1       7.473   4.945  18.231  0.00  0.00    +0.000 A 
ENDBRANCH  18  25
ENDBRANCH  17  18
ENDBRANCH   3  17
TORSDOF 6
ENDMDL
MODEL 7
REMARK VINA RESULT:      -9.0      1.024      1.461
REMARK  Name = 
REMARK  7 active torsions:
REMARK  status: ('A' for Active; 'I' for Inactive)
REMARK    1  A    between atoms: C_1  and  C_2
REMARK    2  A    between atoms: C_5  and  C_6
REMARK    3  A    between atoms: C_9  and  C_10
REMARK    4  A    between atoms: N_12  and  C_13
REMARK    5  A    between atoms: C_13  and  C_14
REMARK    6  A    between atoms: C_14  and  C_15
REMARK    7  A    between atoms: C_14  and  C_21
REMARK                            x       y       z     vdW  Elec       q    Type
REMARK                         _______ _______ _______ _____ _____    ______ ____
ROOT
ATOM      1  C   UNL     1       1.256   9.355  18.185  0.00  0.00    +0.000 C 
ATOM      2  O   UNL     1       2.142   9.792  17.460  0.00  0.00    +0.000 OA
ATOM      3  N   UNL     1       1.428   8.276  19.017  0.00  0.00    +0.000 N 
ATOM      4  H   UNL     1       0.714   8.049  19.695  0.00  0.00    +0.000 HD
ENDROOT
BRANCH   1   8
ATOM      5  C   UNL     1      -2.660  11.154  18.228  0.00  0.00    +0.000 A 
ATOM      6  C   UNL     1      -1.708  11.535  19.188  0.00  0.00    +0.000 A 
ATOM      7  C   UNL     1      -0.426  10.967  19.193  0.00  0.00    +0.000 A 
ATOM      8  C   UNL     1      -0.078  10.015  18.226  0.00  0.00    +0.000 A 
ATOM      9  C   UNL     1      -1.018   9.634  17.268  0.00  0.00    +0.000 A 
ATOM     10  C   UNL     1      -2.294  10.201  17.265  0.00  0.00    +0.000 A 
BRANCH   5  15
ATOM     11  C   UNL     1      -6.986  13.195  19.338  0.00  0.00    +0.000 C 
ATOM     12  C   UNL     1      -5.886  12.543  18.603  0.00  0.00    +0.000 A 
ATOM     13  N   UNL     1      -5.890  12.393  17.273  0.00  0.00    +0.000 NA
ATOM     14  O   UNL     1      -4.646  11.808  17.018  0.00  0.00    +0.000 OA
ATOM     15  C   UNL     1      -4.023  11.671  18.228  0.00  0.00    +0.000 A 
ATOM     16  N   UNL     1      -4.758  12.092  19.235  0.00  0.00    +0.000 NA
ENDBRANCH   5  15
ENDBRANCH   1   8
BRANCH   3  17
ATOM     17  C   UNL     1       2.718   7.606  19.133  0.00  0.00    +0.000 C 
BRANCH  17  18
ATOM     18  C   UNL     1       2.842   6.314  18.282  0.00  0.00    +0.000 C 
BRANCH  18  19
ATOM     19  C   UNL     1       4.316   6.054  17.930  0.00  0.00    +0.000 A 
ATOM     20  C   UNL     1       5.202   5.450  18.840  0.00  0.00    +0.000 A 
ATOM     21  C   UNL     1       6.535   5.213  18.497  0.00  0.00    +0.000 A 
ATOM     22  C   UNL     1       7.003   5.582  17.239  0.00  0.00    +0.000 A 
ATOM     23  C   UNL     1       6.146   6.197  16.329  0.00  0.00    +0.000 A 
ATOM     24  C   UNL     1       4.813   6.437  16.672  0.00  0.00    +0.000 A 
ENDBRANCH  18  19
BRANCH  18  25
ATOM     25  C   UNL     1       2.112   5.086  18.844  0.00  0.00    +0.000 A 
ATOM     26  C   UNL     1       1.775   4.947  20.202  0.00  0.00    +0.000 A 
ATOM     27  C   UNL     1       1.159   3.790  20.680  0.00  0.00    +0.000 A 
ATOM     28  C   UNL     1       0.843   2.757  19.807  0.00  0.00    +0.000 A 
ATOM     29  C   UNL     1       1.126   2.887  18.450  0.00  0.00    +0.000 A 
ATOM     30  C   UNL     1       1.748   4.043  17.972  0.00  0.00    +0.000 A 
ENDBRANCH  18  25
ENDBRANCH  17  18
ENDBRANCH   3  17
TORSDOF 6
ENDMDL
MODEL 8
REMARK VINA RESULT:      -9.0      2.379      4.379
REMARK  Name = 
REMARK  7 active torsions:
REMARK  status: ('A' for Active; 'I' for Inactive)
REMARK    1  A    between atoms: C_1  and  C_2
REMARK    2  A    between atoms: C_5  and  C_6
REMARK    3  A    between atoms: C_9  and  C_10
REMARK    4  A    between atoms: N_12  and  C_13
REMARK    5  A    between atoms: C_13  and  C_14
REMARK    6  A    between atoms: C_14  and  C_15
REMARK    7  A    between atoms: C_14  and  C_21
REMARK                            x       y       z     vdW  Elec       q    Type
REMARK                         _______ _______ _______ _____ _____    ______ ____
ROOT
ATOM      1  C   UNL     1       1.595   9.474  18.508  0.00  0.00    +0.000 C 
ATOM      2  O   UNL     1       2.047  10.096  17.553  0.00  0.00    +0.000 OA
ATOM      3  N   UNL     1       1.886   8.155  18.753  0.00  0.00    +0.000 N 
ATOM      4  H   UNL     1       1.605   7.735  19.627  0.00  0.00    +0.000 HD
ENDROOT
BRANCH   1   8
ATOM      5  C   UNL     1      -1.061  11.450  21.266  0.00  0.00    +0.000 A 
ATOM      6  C   UNL     1      -0.038  10.623  21.757  0.00  0.00    +0.000 A 
ATOM      7  C   UNL     1       0.843   9.972  20.880  0.00  0.00    +0.000 A 
ATOM      8  C   UNL     1       0.713  10.151  19.497  0.00  0.00    +0.000 A 
ATOM      9  C   UNL     1      -0.301  10.974  19.003  0.00  0.00    +0.000 A 
ATOM     10  C   UNL     1      -1.175  11.621  19.878  0.00  0.00    +0.000 A 
BRANCH   5  15
ATOM     11  C   UNL     1      -4.220  12.622  24.839  0.00  0.00    +0.000 C 
ATOM     12  C   UNL     1      -3.378  12.685  23.630  0.00  0.00    +0.000 A 
ATOM     13  N   UNL     1      -3.163  13.821  22.954  0.00  0.00    +0.000 NA
ATOM     14  O   UNL     1      -2.267  13.427  21.955  0.00  0.00    +0.000 OA
ATOM     15  C   UNL     1      -2.037  12.091  22.140  0.00  0.00    +0.000 A 
ATOM     16  N   UNL     1      -2.715  11.588  23.149  0.00  0.00    +0.000 NA
ENDBRANCH   5  15
ENDBRANCH   1   8
BRANCH   3  17
ATOM     17  C   UNL     1       2.814   7.413  17.906  0.00  0.00    +0.000 C 
BRANCH  17  18
ATOM     18  C   UNL     1       3.569   6.273  18.639  0.00  0.00    +0.000 C 
BRANCH  18  19
ATOM     19  C   UNL     1       2.586   5.157  19.031  0.00  0.00    +0.000 A 
ATOM     20  C   UNL     1       2.014   4.299  18.074  0.00  0.00    +0.000 A 
ATOM     21  C   UNL     1       1.132   3.285  18.453  0.00  0.00    +0.000 A 
ATOM     22  C   UNL     1       0.803   3.117  19.795  0.00  0.00    +0.000 A 
ATOM     23  C   UNL     1       1.345   3.967  20.757  0.00  0.00    +0.000 A 
ATOM     24  C   UNL     1       2.227   4.984  20.379  0.00  0.00    +0.000 A 
ENDBRANCH  18  19
BRANCH  18  25
ATOM     25  C   UNL     1       4.834   5.764  17.933  0.00  0.00    +0.000 A 
ATOM     26  C   UNL     1       5.900   5.151  18.614  0.00  0.00    +0.000 A 
ATOM     27  C   UNL     1       7.055   4.752  17.940  0.00  0.00    +0.000 A 
ATOM     28  C   UNL     1       7.159   4.932  16.566  0.00  0.00    +0.000 A 
ATOM     29  C   UNL     1       6.099   5.496  15.861  0.00  0.00    +0.000 A 
ATOM     30  C   UNL     1       4.945   5.902  16.537  0.00  0.00    +0.000 A 
ENDBRANCH  18  25
ENDBRANCH  17  18
ENDBRANCH   3  17
TORSDOF 6
ENDMDL
MODEL 9
REMARK VINA RESULT:      -8.9      2.829      4.697
REMARK  Name = 
REMARK  7 active torsions:
REMARK  status: ('A' for Active; 'I' for Inactive)
REMARK    1  A    between atoms: C_1  and  C_2
REMARK    2  A    between atoms: C_5  and  C_6
REMARK    3  A    between atoms: C_9  and  C_10
REMARK    4  A    between atoms: N_12  and  C_13
REMARK    5  A    between atoms: C_13  and  C_14
REMARK    6  A    between atoms: C_14  and  C_15
REMARK    7  A    between atoms: C_14  and  C_21
REMARK                            x       y       z     vdW  Elec       q    Type
REMARK                         _______ _______ _______ _____ _____    ______ ____
ROOT
ATOM      1  C   UNL     1       1.660   9.274  18.599  0.00  0.00    +0.000 C 
ATOM      2  O   UNL     1       1.856   9.798  17.508  0.00  0.00    +0.000 OA
ATOM      3  N   UNL     1       2.108   8.017  18.921  0.00  0.00    +0.000 N 
ATOM      4  H   UNL     1       2.044   7.694  19.876  0.00  0.00    +0.000 HD
ENDROOT
BRANCH   1   8
ATOM      5  C   UNL     1      -0.491  11.502  21.595  0.00  0.00    +0.000 A 
ATOM      6  C   UNL     1      -0.062  10.195  21.874  0.00  0.00    +0.000 A 
ATOM      7  C   UNL     1       0.644   9.450  20.917  0.00  0.00    +0.000 A 
ATOM      8  C   UNL     1       0.937  10.014  19.669  0.00  0.00    +0.000 A 
ATOM      9  C   UNL     1       0.515  11.314  19.386  0.00  0.00    +0.000 A 
ATOM     10  C   UNL     1      -0.186  12.053  20.340  0.00  0.00    +0.000 A 
BRANCH   5  15
ATOM     11  C   UNL     1      -2.420  15.003  24.448  0.00  0.00    +0.000 C 
ATOM     12  C   UNL     1      -2.185  13.718  23.763  0.00  0.00    +0.000 A 
ATOM     13  N   UNL     1      -3.076  12.719  23.768  0.00  0.00    +0.000 NA
ATOM     14  O   UNL     1      -2.475  11.757  22.950  0.00  0.00    +0.000 OA
ATOM     15  C   UNL     1      -1.283  12.285  22.536  0.00  0.00    +0.000 A 
ATOM     16  N   UNL     1      -1.053  13.484  23.029  0.00  0.00    +0.000 NA
ENDBRANCH   5  15
ENDBRANCH   1   8
BRANCH   3  17
ATOM     17  C   UNL     1       2.908   7.234  17.987  0.00  0.00    +0.000 C 
BRANCH  17  18
ATOM     18  C   UNL     1       3.676   6.055  18.641  0.00  0.00    +0.000 C 
BRANCH  18  19
ATOM     19  C   UNL     1       2.690   4.951  19.057  0.00  0.00    +0.000 A 
ATOM     20  C   UNL     1       2.376   4.703  20.405  0.00  0.00    +0.000 A 
ATOM     21  C   UNL     1       1.470   3.702  20.761  0.00  0.00    +0.000 A 
ATOM     22  C   UNL     1       0.867   2.929  19.773  0.00  0.00    +0.000 A 
ATOM     23  C   UNL     1       1.178   3.147  18.432  0.00  0.00    +0.000 A 
ATOM     24  C   UNL     1       2.087   4.147  18.075  0.00  0.00    +0.000 A 
ENDBRANCH  18  19
BRANCH  18  25
ATOM     25  C   UNL     1       4.887   5.540  17.849  0.00  0.00    +0.000 A 
ATOM     26  C   UNL     1       6.033   5.003  18.461  0.00  0.00    +0.000 A 
ATOM     27  C   UNL     1       7.133   4.596  17.705  0.00  0.00    +0.000 A 
ATOM     28  C   UNL     1       7.101   4.692  16.319  0.00  0.00    +0.000 A 
ATOM     29  C   UNL     1       5.960   5.178  15.686  0.00  0.00    +0.000 A 
ATOM     30  C   UNL     1       4.861   5.592  16.443  0.00  0.00    +0.000 A 
ENDBRANCH  18  25
ENDBRANCH  17  18
ENDBRANCH   3  17
TORSDOF 6
ENDMDL
