MODEL 1
REMARK VINA RESULT:      -9.1      0.000      0.000
REMARK  Name = 
REMARK  4 active torsions:
REMARK  status: ('A' for Active; 'I' for Inactive)
REMARK    1  A    between atoms: C_2  and  C_14
REMARK    2  A    between atoms: N_3  and  C_4
REMARK    3  A    between atoms: C_16  and  C_17
REMARK    4  A    between atoms: N_22  and  C_23
REMARK                            x       y       z     vdW  Elec       q    Type
REMARK                         _______ _______ _______ _____ _____    ______ ____
ROOT
ATOM      1  C   UNL     1       2.807   7.708  17.916  0.00  0.00    +0.000 A 
ATOM      2  N   UNL     1       4.031   7.635  17.284  0.00  0.00    +0.000 NA
ATOM      3  C   UNL     1       4.299   6.341  17.271  0.00  0.00    +0.000 A 
ATOM      4  N   UNL     1       3.312   5.656  17.967  0.00  0.00    +0.000 N 
ATOM      5  N   UNL     1       2.309   6.512  18.275  0.00  0.00    +0.000 NA
ENDROOT
BRANCH   4   6
ATOM      6  C   UNL     1       3.231   4.286  18.340  0.00  0.00    +0.000 A 
ATOM      7  C   UNL     1       2.379   3.425  17.627  0.00  0.00    +0.000 A 
ATOM      8  C   UNL     1       2.330   2.063  17.946  0.00  0.00    +0.000 A 
ATOM      9  C   UNL     1       3.096   1.564  18.997  0.00  0.00    +0.000 A 
ATOM     10  C   UNL     1       3.908   2.429  19.723  0.00  0.00    +0.000 A 
ATOM     11  F   UNL     1       4.629   1.952  20.745  0.00  0.00    +0.000 F 
ATOM     12  C   UNL     1       3.988   3.783  19.405  0.00  0.00    +0.000 A 
ENDBRANCH   4   6
BRANCH   3  13
ATOM     13  C   UNL     1       5.341   5.757  16.469  0.00  0.00    +0.000 A 
ATOM     14  C   UNL     1       5.303   5.464  15.116  0.00  0.00    +0.000 A 
ATOM     15  C   UNL     1       6.529   4.918  14.637  0.00  0.00    +0.000 A 
ATOM     16  C   UNL     1       7.478   4.845  15.631  0.00  0.00    +0.000 A 
ATOM     17  S   UNL     1       6.882   5.406  17.132  0.00  0.00    +0.000 S 
ENDBRANCH   3  13
BRANCH   1  19
ATOM     18  O   UNL     1       2.320   9.972  17.430  0.00  0.00    +0.000 OA
ATOM     19  C   UNL     1       2.069   8.981  18.114  0.00  0.00    +0.000 C 
ATOM     20  N   UNL     1       1.143   8.941  19.157  0.00  0.00    +0.000 N 
ATOM     21  H   UNL     1       1.121   8.074  19.687  0.00  0.00    +0.000 HD
BRANCH  20  22
ATOM     22  C   UNL     1       0.387  10.039  19.639  0.00  0.00    +0.000 A 
ATOM     23  C   UNL     1       0.730  10.747  20.813  0.00  0.00    +0.000 A 
ATOM     24  C   UNL     1      -0.070  11.779  21.326  0.00  0.00    +0.000 A 
ATOM     25  C   UNL     1      -1.224  12.103  20.647  0.00  0.00    +0.000 A 
ATOM     26  C   UNL     1      -1.547  11.433  19.469  0.00  0.00    +0.000 A 
ATOM     27  C   UNL     1      -0.764  10.418  18.934  0.00  0.00    +0.000 A 
ATOM     28  C   UNL     1      -2.825  11.978  18.994  0.00  0.00    +0.000 C 
ATOM     29  O   UNL     1      -3.427  11.627  17.999  0.00  0.00    +0.000 OA
ATOM     30  N   UNL     1      -3.209  12.947  19.898  0.00  0.00    +0.000 N 
ATOM     31  C   UNL     1      -2.273  13.107  20.983  0.00  0.00    +0.000 C 
ATOM     32  H   UNL     1      -4.081  13.450  19.797  0.00  0.00    +0.000 HD
ENDBRANCH  20  22
ENDBRANCH   1  19
TORSDOF 4
ENDMDL
MODEL 2
REMARK VINA RESULT:      -9.0      1.499      3.270
REMARK  Name = 
REMARK  4 active torsions:
REMARK  status: ('A' for Active; 'I' for Inactive)
REMARK    1  A    between atoms: C_2  and  C_14
REMARK    2  A    between atoms: N_3  and  C_4
REMARK    3  A    between atoms: C_16  and  C_17
REMARK    4  A    between atoms: N_22  and  C_23
REMARK                            x       y       z     vdW  Elec       q    Type
REMARK                         _______ _______ _______ _____ _____    ______ ____
ROOT
ATOM      1  C   UNL     1       2.541   7.780  17.965  0.00  0.00    +0.000 A 
ATOM      2  N   UNL     1       1.890   6.603  18.273  0.00  0.00    +0.000 NA
ATOM      3  C   UNL     1       2.787   5.669  18.001  0.00  0.00    +0.000 A 
ATOM      4  N   UNL     1       3.915   6.259  17.447  0.00  0.00    +0.000 N 
ATOM      5  N   UNL     1       3.802   7.605  17.531  0.00  0.00    +0.000 NA
ENDROOT
BRANCH   4   6
ATOM      6  C   UNL     1       5.075   5.667  16.874  0.00  0.00    +0.000 A 
ATOM      7  C   UNL     1       5.175   5.554  15.477  0.00  0.00    +0.000 A 
ATOM      8  C   UNL     1       6.333   5.025  14.896  0.00  0.00    +0.000 A 
ATOM      9  C   UNL     1       7.375   4.572  15.703  0.00  0.00    +0.000 A 
ATOM     10  C   UNL     1       7.253   4.652  17.085  0.00  0.00    +0.000 A 
ATOM     11  F   UNL     1       8.246   4.198  17.860  0.00  0.00    +0.000 F 
ATOM     12  C   UNL     1       6.118   5.197  17.681  0.00  0.00    +0.000 A 
ENDBRANCH   4   6
BRANCH   3  13
ATOM     13  C   UNL     1       2.658   4.302  18.428  0.00  0.00    +0.000 A 
ATOM     14  C   UNL     1       2.510   3.178  17.634  0.00  0.00    +0.000 A 
ATOM     15  C   UNL     1       2.445   1.973  18.391  0.00  0.00    +0.000 A 
ATOM     16  C   UNL     1       2.581   2.210  19.740  0.00  0.00    +0.000 A 
ATOM     17  S   UNL     1       2.760   3.876  20.085  0.00  0.00    +0.000 S 
ENDBRANCH   3  13
BRANCH   1  19
ATOM     18  O   UNL     1       2.329  10.095  17.526  0.00  0.00    +0.000 OA
ATOM     19  C   UNL     1       1.935   9.120  18.164  0.00  0.00    +0.000 C 
ATOM     20  N   UNL     1       0.953   9.155  19.155  0.00  0.00    +0.000 N 
ATOM     21  H   UNL     1       0.808   8.282  19.655  0.00  0.00    +0.000 HD
BRANCH  20  22
ATOM     22  C   UNL     1       0.294  10.315  19.630  0.00  0.00    +0.000 A 
ATOM     23  C   UNL     1       0.843  11.152  20.628  0.00  0.00    +0.000 A 
ATOM     24  C   UNL     1       0.147  12.252  21.149  0.00  0.00    +0.000 A 
ATOM     25  C   UNL     1      -1.113  12.514  20.659  0.00  0.00    +0.000 A 
ATOM     26  C   UNL     1      -1.644  11.714  19.650  0.00  0.00    +0.000 A 
ATOM     27  C   UNL     1      -0.968  10.629  19.106  0.00  0.00    +0.000 A 
ATOM     28  C   UNL     1      -2.990  12.222  19.353  0.00  0.00    +0.000 C 
ATOM     29  O   UNL     1      -3.762  11.766  18.535  0.00  0.00    +0.000 OA
ATOM     30  N   UNL     1      -3.205  13.299  20.189  0.00  0.00    +0.000 N 
ATOM     31  C   UNL     1      -2.087  13.570  21.058  0.00  0.00    +0.000 C 
ATOM     32  H   UNL     1      -4.083  13.802  20.188  0.00  0.00    +0.000 HD
ENDBRANCH  20  22
ENDBRANCH   1  19
TORSDOF 4
ENDMDL
MODEL 3
REMARK VINA RESULT:      -8.9      0.988      1.272
REMARK  Name = 
REMARK  4 active torsions:
REMARK  status: ('A' for Active; 'I' for Inactive)
REMARK    1  A    between atoms: C_2  and  C_14
REMARK    2  A    between atoms: N_3  and  C_4
REMARK    3  A    between atoms: C_16  and  C_17
REMARK    4  A    between atoms: N_22  and  C_23
REMARK                            x       y       z     vdW  Elec       q    Type
REMARK                         _______ _______ _______ _____ _____    ______ ____
ROOT
ATOM      1  C   UNL     1       2.717   7.809  17.935  0.00  0.00    +0.000 A 
ATOM      2  N   UNL     1       3.962   7.657  17.360  0.00  0.00    +0.000 NA
ATOM      3  C   UNL     1       4.147   6.348  17.357  0.00  0.00    +0.000 A 
ATOM      4  N   UNL     1       3.086   5.729  18.006  0.00  0.00    +0.000 N 
ATOM      5  N   UNL     1       2.128   6.647  18.268  0.00  0.00    +0.000 NA
ENDROOT
BRANCH   4   6
ATOM      6  C   UNL     1       2.901   4.366  18.372  0.00  0.00    +0.000 A 
ATOM      7  C   UNL     1       3.986   3.633  18.879  0.00  0.00    +0.000 A 
ATOM      8  C   UNL     1       3.806   2.309  19.296  0.00  0.00    +0.000 A 
ATOM      9  C   UNL     1       2.559   1.701  19.171  0.00  0.00    +0.000 A 
ATOM     10  C   UNL     1       1.498   2.422  18.633  0.00  0.00    +0.000 A 
ATOM     11  F   UNL     1       0.305   1.830  18.496  0.00  0.00    +0.000 F 
ATOM     12  C   UNL     1       1.652   3.748  18.235  0.00  0.00    +0.000 A 
ENDBRANCH   4   6
BRANCH   3  13
ATOM     13  C   UNL     1       5.185   5.697  16.603  0.00  0.00    +0.000 A 
ATOM     14  C   UNL     1       5.069   5.059  15.380  0.00  0.00    +0.000 A 
ATOM     15  C   UNL     1       6.312   4.551  14.904  0.00  0.00    +0.000 A 
ATOM     16  C   UNL     1       7.347   4.848  15.761  0.00  0.00    +0.000 A 
ATOM     17  S   UNL     1       6.813   5.711  17.139  0.00  0.00    +0.000 S 
ENDBRANCH   3  13
BRANCH   1  19
ATOM     18  O   UNL     1       2.420  10.106  17.453  0.00  0.00    +0.000 OA
ATOM     19  C   UNL     1       2.054   9.126  18.101  0.00  0.00    +0.000 C 
ATOM     20  N   UNL     1       1.053   9.138  19.074  0.00  0.00    +0.000 N 
ATOM     21  H   UNL     1       0.935   8.268  19.587  0.00  0.00    +0.000 HD
BRANCH  20  22
ATOM     22  C   UNL     1       0.340  10.278  19.519  0.00  0.00    +0.000 A 
ATOM     23  C   UNL     1       0.830  11.143  20.524  0.00  0.00    +0.000 A 
ATOM     24  C   UNL     1       0.080  12.222  21.014  0.00  0.00    +0.000 A 
ATOM     25  C   UNL     1      -1.174  12.435  20.484  0.00  0.00    +0.000 A 
ATOM     26  C   UNL     1      -1.646  11.607  19.468  0.00  0.00    +0.000 A 
ATOM     27  C   UNL     1      -0.916  10.541  18.955  0.00  0.00    +0.000 A 
ATOM     28  C   UNL     1      -2.999  12.064  19.128  0.00  0.00    +0.000 C 
ATOM     29  O   UNL     1      -3.731  11.573  18.291  0.00  0.00    +0.000 OA
ATOM     30  N   UNL     1      -3.277  13.140  19.945  0.00  0.00    +0.000 N 
ATOM     31  C   UNL     1      -2.196  13.458  20.843  0.00  0.00    +0.000 C 
ATOM     32  H   UNL     1      -4.172  13.611  19.914  0.00  0.00    +0.000 HD
ENDBRANCH  20  22
ENDBRANCH   1  19
TORSDOF 4
ENDMDL
MODEL 4
REMARK VINA RESULT:      -8.8      0.941      1.100
REMARK  Name = 
REMARK  4 active torsions:
REMARK  status: ('A' for Active; 'I' for Inactive)
REMARK    1  A    between atoms: C_2  and  C_14
REMARK    2  A    between atoms: N_3  and  C_4
REMARK    3  A    between atoms: C_16  and  C_17
REMARK    4  A    between atoms: N_22  and  C_23
REMARK                            x       y       z     vdW  Elec       q    Type
REMARK                         _______ _______ _______ _____ _____    ______ ____
ROOT
ATOM      1  C   UNL     1       2.626   7.839  18.122  0.00  0.00    +0.000 A 
ATOM      2  N   UNL     1       3.950   7.696  17.763  0.00  0.00    +0.000 NA
ATOM      3  C   UNL     1       4.139   6.387  17.783  0.00  0.00    +0.000 A 
ATOM      4  N   UNL     1       2.988   5.760  18.241  0.00  0.00    +0.000 N 
ATOM      5  N   UNL     1       1.995   6.673  18.345  0.00  0.00    +0.000 NA
ENDROOT
BRANCH   4   6
ATOM      6  C   UNL     1       2.750   4.395  18.563  0.00  0.00    +0.000 A 
ATOM      7  C   UNL     1       2.631   3.452  17.529  0.00  0.00    +0.000 A 
ATOM      8  C   UNL     1       2.452   2.097  17.830  0.00  0.00    +0.000 A 
ATOM      9  C   UNL     1       2.352   1.684  19.157  0.00  0.00    +0.000 A 
ATOM     10  C   UNL     1       2.433   2.628  20.175  0.00  0.00    +0.000 A 
ATOM     11  F   UNL     1       2.318   2.234  21.449  0.00  0.00    +0.000 F 
ATOM     12  C   UNL     1       2.634   3.978  19.895  0.00  0.00    +0.000 A 
ENDBRANCH   4   6
BRANCH   3  13
ATOM     13  C   UNL     1       5.292   5.746  17.208  0.00  0.00    +0.000 A 
ATOM     14  C   UNL     1       6.365   5.180  17.874  0.00  0.00    +0.000 A 
ATOM     15  C   UNL     1       7.319   4.601  16.989  0.00  0.00    +0.000 A 
ATOM     16  C   UNL     1       6.927   4.710  15.674  0.00  0.00    +0.000 A 
ATOM     17  S   UNL     1       5.433   5.527  15.514  0.00  0.00    +0.000 S 
ENDBRANCH   3  13
BRANCH   1  19
ATOM     18  O   UNL     1       2.250  10.067  17.421  0.00  0.00    +0.000 OA
ATOM     19  C   UNL     1       1.938   9.153  18.183  0.00  0.00    +0.000 C 
ATOM     20  N   UNL     1       0.982   9.245  19.195  0.00  0.00    +0.000 N 
ATOM     21  H   UNL     1       0.908   8.431  19.799  0.00  0.00    +0.000 HD
BRANCH  20  22
ATOM     22  C   UNL     1       0.261  10.411  19.553  0.00  0.00    +0.000 A 
ATOM     23  C   UNL     1       0.774  11.387  20.437  0.00  0.00    +0.000 A 
ATOM     24  C   UNL     1       0.021  12.495  20.848  0.00  0.00    +0.000 A 
ATOM     25  C   UNL     1      -1.262  12.625  20.362  0.00  0.00    +0.000 A 
ATOM     26  C   UNL     1      -1.759  11.685  19.462  0.00  0.00    +0.000 A 
ATOM     27  C   UNL     1      -1.027  10.587  19.028  0.00  0.00    +0.000 A 
ATOM     28  C   UNL     1      -3.139  12.075  19.143  0.00  0.00    +0.000 C 
ATOM     29  O   UNL     1      -3.896  11.483  18.400  0.00  0.00    +0.000 OA
ATOM     30  N   UNL     1      -3.406  13.225  19.857  0.00  0.00    +0.000 N 
ATOM     31  C   UNL     1      -2.292  13.659  20.663  0.00  0.00    +0.000 C 
ATOM     32  H   UNL     1      -4.314  13.671  19.822  0.00  0.00    +0.000 HD
ENDBRANCH  20  22
ENDBRANCH   1  19
TORSDOF 4
ENDMDL
MODEL 5
REMARK VINA RESULT:      -8.8      1.842      3.492
REMARK  Name = 
REMARK  4 active torsions:
REMARK  status: ('A' for Active; 'I' for Inactive)
REMARK    1  A    between atoms: C_2  and  C_14
REMARK    2  A    between atoms: N_3  and  C_4
REMARK    3  A    between atoms: C_16  and  C_17
REMARK    4  A    between atoms: N_22  and  C_23
REMARK                            x       y       z     vdW  Elec       q    Type
REMARK                         _______ _______ _______ _____ _____    ______ ____
ROOT
ATOM      1  C   UNL     1       2.501   7.844  18.021  0.00  0.00    +0.000 A 
ATOM      2  N   UNL     1       1.814   6.667  18.236  0.00  0.00    +0.000 NA
ATOM      3  C   UNL     1       2.727   5.731  18.042  0.00  0.00    +0.000 A 
ATOM      4  N   UNL     1       3.912   6.321  17.621  0.00  0.00    +0.000 N 
ATOM      5  N   UNL     1       3.799   7.666  17.719  0.00  0.00    +0.000 NA
ENDROOT
BRANCH   4   6
ATOM      6  C   UNL     1       5.122   5.730  17.162  0.00  0.00    +0.000 A 
ATOM      7  C   UNL     1       6.181   5.534  18.063  0.00  0.00    +0.000 A 
ATOM      8  C   UNL     1       7.357   4.904  17.640  0.00  0.00    +0.000 A 
ATOM      9  C   UNL     1       7.496   4.504  16.313  0.00  0.00    +0.000 A 
ATOM     10  C   UNL     1       6.458   4.735  15.417  0.00  0.00    +0.000 A 
ATOM     11  F   UNL     1       6.600   4.368  14.137  0.00  0.00    +0.000 F 
ATOM     12  C   UNL     1       5.271   5.340  15.825  0.00  0.00    +0.000 A 
ENDBRANCH   4   6
BRANCH   3  13
ATOM     13  C   UNL     1       2.546   4.357  18.425  0.00  0.00    +0.000 A 
ATOM     14  C   UNL     1       2.345   3.266  17.597  0.00  0.00    +0.000 A 
ATOM     15  C   UNL     1       2.235   2.041  18.316  0.00  0.00    +0.000 A 
ATOM     16  C   UNL     1       2.391   2.229  19.670  0.00  0.00    +0.000 A 
ATOM     17  S   UNL     1       2.642   3.873  20.067  0.00  0.00    +0.000 S 
ENDBRANCH   3  13
BRANCH   1  19
ATOM     18  O   UNL     1       2.238  10.131  17.479  0.00  0.00    +0.000 OA
ATOM     19  C   UNL     1       1.886   9.185  18.182  0.00  0.00    +0.000 C 
ATOM     20  N   UNL     1       0.949   9.258  19.213  0.00  0.00    +0.000 N 
ATOM     21  H   UNL     1       0.839   8.409  19.762  0.00  0.00    +0.000 HD
BRANCH  20  22
ATOM     22  C   UNL     1       0.296  10.433  19.661  0.00  0.00    +0.000 A 
ATOM     23  C   UNL     1       0.875  11.320  20.597  0.00  0.00    +0.000 A 
ATOM     24  C   UNL     1       0.188  12.437  21.095  0.00  0.00    +0.000 A 
ATOM     25  C   UNL     1      -1.093  12.664  20.643  0.00  0.00    +0.000 A 
ATOM     26  C   UNL     1      -1.654  11.813  19.693  0.00  0.00    +0.000 A 
ATOM     27  C   UNL     1      -0.989  10.710  19.174  0.00  0.00    +0.000 A 
ATOM     28  C   UNL     1      -3.016  12.295  19.428  0.00  0.00    +0.000 C 
ATOM     29  O   UNL     1      -3.815  11.793  18.662  0.00  0.00    +0.000 OA
ATOM     30  N   UNL     1      -3.211  13.407  20.221  0.00  0.00    +0.000 N 
ATOM     31  C   UNL     1      -2.062  13.728  21.031  0.00  0.00    +0.000 C 
ATOM     32  H   UNL     1      -4.094  13.901  20.232  0.00  0.00    +0.000 HD
ENDBRANCH  20  22
ENDBRANCH   1  19
TORSDOF 4
ENDMDL
MODEL 6
REMARK VINA RESULT:      -8.7      1.803      2.238
REMARK  Name = 
REMARK  4 active torsions:
REMARK  status: ('A' for Active; 'I' for Inactive)
REMARK    1  A    between atoms: C_2  and  C_14
REMARK    2  A    between atoms: N_3  and  C_4
REMARK    3  A    between atoms: C_16  and  C_17
REMARK    4  A    between atoms: N_22  and  C_23
REMARK                            x       y       z     vdW  Elec       q    Type
REMARK                         _______ _______ _______ _____ _____    ______ ____
ROOT
ATOM      1  C   UNL     1       2.482   8.023  18.051  0.00  0.00    +0.000 A 
ATOM      2  N   UNL     1       3.794   7.799  17.688  0.00  0.00    +0.000 NA
ATOM      3  C   UNL     1       3.898   6.481  17.691  0.00  0.00    +0.000 A 
ATOM      4  N   UNL     1       2.709   5.924  18.142  0.00  0.00    +0.000 N 
ATOM      5  N   UNL     1       1.777   6.897  18.260  0.00  0.00    +0.000 NA
ENDROOT
BRANCH   4   6
ATOM      6  C   UNL     1       2.384   4.572  18.447  0.00  0.00    +0.000 A 
ATOM      7  C   UNL     1       2.597   3.576  17.480  0.00  0.00    +0.000 A 
ATOM      8  C   UNL     1       2.334   2.235  17.783  0.00  0.00    +0.000 A 
ATOM      9  C   UNL     1       1.822   1.889  19.031  0.00  0.00    +0.000 A 
ATOM     10  C   UNL     1       1.578   2.885  19.970  0.00  0.00    +0.000 A 
ATOM     11  F   UNL     1       1.068   2.553  21.163  0.00  0.00    +0.000 F 
ATOM     12  C   UNL     1       1.856   4.222  19.695  0.00  0.00    +0.000 A 
ENDBRANCH   4   6
BRANCH   3  13
ATOM     13  C   UNL     1       5.007   5.774  17.107  0.00  0.00    +0.000 A 
ATOM     14  C   UNL     1       5.297   5.619  15.762  0.00  0.00    +0.000 A 
ATOM     15  C   UNL     1       6.496   4.883  15.539  0.00  0.00    +0.000 A 
ATOM     16  C   UNL     1       7.105   4.529  16.722  0.00  0.00    +0.000 A 
ATOM     17  S   UNL     1       6.219   5.060  18.085  0.00  0.00    +0.000 S 
ENDBRANCH   3  13
BRANCH   1  19
ATOM     18  O   UNL     1       2.294  10.297  17.425  0.00  0.00    +0.000 OA
ATOM     19  C   UNL     1       1.881   9.378  18.130  0.00  0.00    +0.000 C 
ATOM     20  N   UNL     1       0.878   9.497  19.094  0.00  0.00    +0.000 N 
ATOM     21  H   UNL     1       0.718   8.667  19.659  0.00  0.00    +0.000 HD
BRANCH  20  22
ATOM     22  C   UNL     1       0.217  10.694  19.462  0.00  0.00    +0.000 A 
ATOM     23  C   UNL     1      -1.071  11.034  18.988  0.00  0.00    +0.000 A 
ATOM     24  C   UNL     1      -1.682  12.259  19.293  0.00  0.00    +0.000 A 
ATOM     25  C   UNL     1      -0.991  13.149  20.085  0.00  0.00    +0.000 A 
ATOM     26  C   UNL     1       0.262  12.803  20.585  0.00  0.00    +0.000 A 
ATOM     27  C   UNL     1       0.882  11.591  20.310  0.00  0.00    +0.000 A 
ATOM     28  C   UNL     1       0.749  13.946  21.368  0.00  0.00    +0.000 C 
ATOM     29  O   UNL     1       1.816  14.016  21.945  0.00  0.00    +0.000 OA
ATOM     30  N   UNL     1      -0.227  14.919  21.309  0.00  0.00    +0.000 N 
ATOM     31  C   UNL     1      -1.369  14.523  20.522  0.00  0.00    +0.000 C 
ATOM     32  H   UNL     1      -0.106  15.820  21.755  0.00  0.00    +0.000 HD
ENDBRANCH  20  22
ENDBRANCH   1  19
TORSDOF 4
ENDMDL
MODEL 7
REMARK VINA RESULT:      -8.7      1.961      3.657
REMARK  Name = 
REMARK  4 active torsions:
REMARK  status: ('A' for Active; 'I' for Inactive)
REMARK    1  A    between atoms: C_2  and  C_14
REMARK    2  A    between atoms: N_3  and  C_4
REMARK    3  A    between atoms: C_16  and  C_17
REMARK    4  A    between atoms: N_22  and  C_23
REMARK                            x       y       z     vdW  Elec       q    Type
REMARK                         _______ _______ _______ _____ _____    ______ ____
ROOT
ATOM      1  C   UNL     1       2.489   7.820  17.906  0.00  0.00    +0.000 A 
ATOM      2  N   UNL     1       1.853   6.642  18.240  0.00  0.00    +0.000 NA
ATOM      3  C   UNL     1       2.763   5.714  17.996  0.00  0.00    +0.000 A 
ATOM      4  N   UNL     1       3.886   6.306  17.432  0.00  0.00    +0.000 N 
ATOM      5  N   UNL     1       3.754   7.652  17.483  0.00  0.00    +0.000 NA
ENDROOT
BRANCH   4   6
ATOM      6  C   UNL     1       5.057   5.716  16.879  0.00  0.00    +0.000 A 
ATOM      7  C   UNL     1       5.181   5.603  15.485  0.00  0.00    +0.000 A 
ATOM      8  C   UNL     1       6.350   5.076  14.924  0.00  0.00    +0.000 A 
ATOM      9  C   UNL     1       7.378   4.625  15.748  0.00  0.00    +0.000 A 
ATOM     10  C   UNL     1       7.233   4.705  17.129  0.00  0.00    +0.000 A 
ATOM     11  F   UNL     1       8.213   4.253  17.921  0.00  0.00    +0.000 F 
ATOM     12  C   UNL     1       6.086   5.248  17.705  0.00  0.00    +0.000 A 
ENDBRANCH   4   6
BRANCH   3  13
ATOM     13  C   UNL     1       2.651   4.356  18.455  0.00  0.00    +0.000 A 
ATOM     14  C   UNL     1       2.477   3.216  17.689  0.00  0.00    +0.000 A 
ATOM     15  C   UNL     1       2.439   2.027  18.474  0.00  0.00    +0.000 A 
ATOM     16  C   UNL     1       2.621   2.292  19.812  0.00  0.00    +0.000 A 
ATOM     17  S   UNL     1       2.810   3.965  20.116  0.00  0.00    +0.000 S 
ENDBRANCH   3  13
BRANCH   1  19
ATOM     18  O   UNL     1       2.440  10.175  17.693  0.00  0.00    +0.000 OA
ATOM     19  C   UNL     1       1.864   9.156  18.070  0.00  0.00    +0.000 C 
ATOM     20  N   UNL     1       0.631   9.128  18.724  0.00  0.00    +0.000 N 
ATOM     21  H   UNL     1       0.336   8.213  19.055  0.00  0.00    +0.000 HD
BRANCH  20  22
ATOM     22  C   UNL     1      -0.129  10.258  19.113  0.00  0.00    +0.000 A 
ATOM     23  C   UNL     1      -0.798  11.087  18.184  0.00  0.00    +0.000 A 
ATOM     24  C   UNL     1      -1.479  12.249  18.573  0.00  0.00    +0.000 A 
ATOM     25  C   UNL     1      -1.490  12.579  19.910  0.00  0.00    +0.000 A 
ATOM     26  C   UNL     1      -0.863  11.745  20.834  0.00  0.00    +0.000 A 
ATOM     27  C   UNL     1      -0.195  10.581  20.476  0.00  0.00    +0.000 A 
ATOM     28  C   UNL     1      -1.026  12.361  22.157  0.00  0.00    +0.000 C 
ATOM     29  O   UNL     1      -0.597  11.925  23.207  0.00  0.00    +0.000 OA
ATOM     30  N   UNL     1      -1.741  13.526  21.973  0.00  0.00    +0.000 N 
ATOM     31  C   UNL     1      -2.083  13.764  20.592  0.00  0.00    +0.000 C 
ATOM     32  H   UNL     1      -1.955  14.144  22.745  0.00  0.00    +0.000 HD
ENDBRANCH  20  22
ENDBRANCH   1  19
TORSDOF 4
ENDMDL
MODEL 8
REMARK VINA RESULT:      -8.7      1.287      1.653
REMARK  Name = 
REMARK  4 active torsions:
REMARK  status: ('A' for Active; 'I' for Inactive)
REMARK    1  A    between atoms: C_2  and  C_14
REMARK    2  A    between atoms: N_3  and  C_4
REMARK    3  A    between atoms: C_16  and  C_17
REMARK    4  A    between atoms: N_22  and  C_23
REMARK                            x       y       z     vdW  Elec       q    Type
REMARK                         _______ _______ _______ _____ _____    ______ ____
ROOT
ATOM      1  C   UNL     1       2.679   7.889  17.905  0.00  0.00    +0.000 A 
ATOM      2  N   UNL     1       3.928   7.795  17.328  0.00  0.00    +0.000 NA
ATOM      3  C   UNL     1       4.182   6.498  17.340  0.00  0.00    +0.000 A 
ATOM      4  N   UNL     1       3.157   5.832  18.000  0.00  0.00    +0.000 N 
ATOM      5  N   UNL     1       2.153   6.702  18.255  0.00  0.00    +0.000 NA
ENDROOT
BRANCH   4   6
ATOM      6  C   UNL     1       3.045   4.466  18.383  0.00  0.00    +0.000 A 
ATOM      7  C   UNL     1       1.985   3.693  17.881  0.00  0.00    +0.000 A 
ATOM      8  C   UNL     1       1.892   2.334  18.204  0.00  0.00    +0.000 A 
ATOM      9  C   UNL     1       2.828   1.754  19.058  0.00  0.00    +0.000 A 
ATOM     10  C   UNL     1       3.852   2.535  19.582  0.00  0.00    +0.000 A 
ATOM     11  F   UNL     1       4.739   1.981  20.418  0.00  0.00    +0.000 F 
ATOM     12  C   UNL     1       3.974   3.883  19.253  0.00  0.00    +0.000 A 
ENDBRANCH   4   6
BRANCH   3  13
ATOM     13  C   UNL     1       5.250   5.893  16.589  0.00  0.00    +0.000 A 
ATOM     14  C   UNL     1       5.206   5.412  15.291  0.00  0.00    +0.000 A 
ATOM     15  C   UNL     1       6.461   4.906  14.849  0.00  0.00    +0.000 A 
ATOM     16  C   UNL     1       7.436   5.048  15.810  0.00  0.00    +0.000 A 
ATOM     17  S   UNL     1       6.830   5.764  17.240  0.00  0.00    +0.000 S 
ENDBRANCH   3  13
BRANCH   1  19
ATOM     18  O   UNL     1       2.434  10.229  17.660  0.00  0.00    +0.000 OA
ATOM     19  C   UNL     1       1.948   9.171  18.058  0.00  0.00    +0.000 C 
ATOM     20  N   UNL     1       0.729   9.052  18.727  0.00  0.00    +0.000 N 
ATOM     21  H   UNL     1       0.513   8.122  19.075  0.00  0.00    +0.000 HD
BRANCH  20  22
ATOM     22  C   UNL     1      -0.116  10.123  19.110  0.00  0.00    +0.000 A 
ATOM     23  C   UNL     1      -0.885  10.860  18.181  0.00  0.00    +0.000 A 
ATOM     24  C   UNL     1      -1.655  11.969  18.560  0.00  0.00    +0.000 A 
ATOM     25  C   UNL     1      -1.654  12.337  19.887  0.00  0.00    +0.000 A 
ATOM     26  C   UNL     1      -0.927  11.591  20.812  0.00  0.00    +0.000 A 
ATOM     27  C   UNL     1      -0.169  10.480  20.465  0.00  0.00    +0.000 A 
ATOM     28  C   UNL     1      -1.104  12.230  22.123  0.00  0.00    +0.000 C 
ATOM     29  O   UNL     1      -0.607  11.865  23.169  0.00  0.00    +0.000 OA
ATOM     30  N   UNL     1      -1.926  13.321  21.930  0.00  0.00    +0.000 N 
ATOM     31  C   UNL     1      -2.330  13.485  20.556  0.00  0.00    +0.000 C 
ATOM     32  H   UNL     1      -2.171  13.941  22.691  0.00  0.00    +0.000 HD
ENDBRANCH  20  22
ENDBRANCH   1  19
TORSDOF 4
ENDMDL
MODEL 9
REMARK VINA RESULT:      -8.7      1.218      1.369
REMARK  Name = 
REMARK  4 active torsions:
REMARK  status: ('A' for Active; 'I' for Inactive)
REMARK    1  A    between atoms: C_2  and  C_14
REMARK    2  A    between atoms: N_3  and  C_4
REMARK    3  A    between atoms: C_16  and  C_17
REMARK    4  A    between atoms: N_22  and  C_23
REMARK                            x       y       z     vdW  Elec       q    Type
REMARK                         _______ _______ _______ _____ _____    ______ ____
ROOT
ATOM      1  C   UNL     1       2.625   7.678  18.345  0.00  0.00    +0.000 A 
ATOM      2  N   UNL     1       3.737   7.437  17.566  0.00  0.00    +0.000 NA
ATOM      3  C   UNL     1       4.056   6.186  17.854  0.00  0.00    +0.000 A 
ATOM      4  N   UNL     1       3.219   5.715  18.858  0.00  0.00    +0.000 N 
ATOM      5  N   UNL     1       2.242   6.622  19.085  0.00  0.00    +0.000 NA
ENDROOT
BRANCH   4   6
ATOM      6  C   UNL     1       3.257   4.495  19.590  0.00  0.00    +0.000 A 
ATOM      7  C   UNL     1       4.344   3.622  19.422  0.00  0.00    +0.000 A 
ATOM      8  C   UNL     1       4.423   2.445  20.175  0.00  0.00    +0.000 A 
ATOM      9  C   UNL     1       3.403   2.116  21.066  0.00  0.00    +0.000 A 
ATOM     10  C   UNL     1       2.311   2.967  21.199  0.00  0.00    +0.000 A 
ATOM     11  F   UNL     1       1.322   2.641  22.040  0.00  0.00    +0.000 F 
ATOM     12  C   UNL     1       2.227   4.155  20.474  0.00  0.00    +0.000 A 
ENDBRANCH   4   6
BRANCH   3  13
ATOM     13  C   UNL     1       4.984   5.407  17.078  0.00  0.00    +0.000 A 
ATOM     14  C   UNL     1       4.692   4.446  16.126  0.00  0.00    +0.000 A 
ATOM     15  C   UNL     1       5.860   3.893  15.527  0.00  0.00    +0.000 A 
ATOM     16  C   UNL     1       7.008   4.474  16.014  0.00  0.00    +0.000 A 
ATOM     17  S   UNL     1       6.675   5.659  17.203  0.00  0.00    +0.000 S 
ENDBRANCH   3  13
BRANCH   1  19
ATOM     18  O   UNL     1       2.043   9.770  17.408  0.00  0.00    +0.000 OA
ATOM     19  C   UNL     1       1.873   8.957  18.315  0.00  0.00    +0.000 C 
ATOM     20  N   UNL     1       1.033   9.146  19.414  0.00  0.00    +0.000 N 
ATOM     21  H   UNL     1       1.076   8.421  20.124  0.00  0.00    +0.000 HD
BRANCH  20  22
ATOM     22  C   UNL     1       0.290  10.318  19.699  0.00  0.00    +0.000 A 
ATOM     23  C   UNL     1       0.742  11.310  20.599  0.00  0.00    +0.000 A 
ATOM     24  C   UNL     1      -0.037  12.426  20.936  0.00  0.00    +0.000 A 
ATOM     25  C   UNL     1      -1.282  12.547  20.359  0.00  0.00    +0.000 A 
ATOM     26  C   UNL     1      -1.716  11.591  19.443  0.00  0.00    +0.000 A 
ATOM     27  C   UNL     1      -0.957  10.485  19.082  0.00  0.00    +0.000 A 
ATOM     28  C   UNL     1      -3.069  11.975  19.022  0.00  0.00    +0.000 C 
ATOM     29  O   UNL     1      -3.773  11.370  18.238  0.00  0.00    +0.000 OA
ATOM     30  N   UNL     1      -3.385  13.138  19.694  0.00  0.00    +0.000 N 
ATOM     31  C   UNL     1      -2.329  13.586  20.568  0.00  0.00    +0.000 C 
ATOM     32  H   UNL     1      -4.287  13.584  19.587  0.00  0.00    +0.000 HD
ENDBRANCH  20  22
ENDBRANCH   1  19
TORSDOF 4
ENDMDL
