MODEL 1
REMARK VINA RESULT:      -8.5      0.000      0.000
REMARK  Name = 
REMARK  6 active torsions:
REMARK  status: ('A' for Active; 'I' for Inactive)
REMARK    1  A    between atoms: C_1  and  O_2
REMARK    2  A    between atoms: O_2  and  C_3
REMARK    3  A    between atoms: C_6  and  N_7
REMARK    4  A    between atoms: C_8  and  C_10
REMARK    5  A    between atoms: C_21  and  S_22
REMARK    6  A    between atoms: S_22  and  N_25
REMARK                            x       y       z     vdW  Elec       q    Type
REMARK                         _______ _______ _______ _____ _____    ______ ____
ROOT
ATOM      1  C   UNL     1       4.828   4.482  17.088  0.00  0.00    +0.000 A 
ATOM      2  C   UNL     1       6.088   4.560  16.487  0.00  0.00    +0.000 A 
ATOM      3  C   UNL     1       6.836   5.738  16.526  0.00  0.00    +0.000 A 
ATOM      4  C   UNL     1       6.353   6.880  17.155  0.00  0.00    +0.000 A 
ATOM      5  C   UNL     1       5.086   6.821  17.750  0.00  0.00    +0.000 A 
ATOM      6  C   UNL     1       4.316   5.634  17.695  0.00  0.00    +0.000 A 
ENDROOT
BRANCH   4   7
ATOM      7  N   UNL     1       7.114   8.072  17.264  0.00  0.00    +0.000 N 
ATOM      8  C   UNL     1       8.130   8.299  18.182  0.00  0.00    +0.000 C 
ATOM      9  O   UNL     1       8.606   7.498  18.977  0.00  0.00    +0.000 OA
ATOM     10  H   UNL     1       6.822   8.851  16.686  0.00  0.00    +0.000 HD
BRANCH   8  11
ATOM     11  C   UNL     1       8.646   9.685  18.247  0.00  0.00    +0.000 A 
ATOM     12  C   UNL     1       7.920  10.666  17.563  0.00  0.00    +0.000 A 
ATOM     13  C   UNL     1       8.410  11.965  17.492  0.00  0.00    +0.000 A 
ATOM     14  C   UNL     1       9.551  12.322  18.218  0.00  0.00    +0.000 A 
ATOM     15  C   UNL     1      10.052  13.622  18.145  0.00  0.00    +0.000 A 
ATOM     16  C   UNL     1      10.827  14.119  19.185  0.00  0.00    +0.000 A 
ATOM     17  C   UNL     1      11.305  13.248  20.159  0.00  0.00    +0.000 A 
ATOM     18  C   UNL     1      11.066  11.875  20.046  0.00  0.00    +0.000 A 
ATOM     19  C   UNL     1      10.148  11.392  19.095  0.00  0.00    +0.000 A 
ATOM     20  C   UNL     1       9.757  10.040  19.020  0.00  0.00    +0.000 A 
ENDBRANCH   8  11
ENDBRANCH   4   7
BRANCH   6  21
ATOM     21  S   UNL     1       2.774   5.623  18.634  0.00  0.00    +0.000 S 
ATOM     22  O   UNL     1       1.720   5.031  17.809  0.00  0.00    +0.000 OA
ATOM     23  O   UNL     1       3.085   5.046  19.912  0.00  0.00    +0.000 OA
BRANCH  21  24
ATOM     24  N   UNL     1       2.382   7.272  18.913  0.00  0.00    +0.000 NA
ATOM     25  C   UNL     1       1.981   8.040  17.709  0.00  0.00    +0.000 C 
ATOM     26  C   UNL     1       1.765   9.522  18.007  0.00  0.00    +0.000 C 
ATOM     27  C   UNL     1       0.801   9.705  19.159  0.00  0.00    +0.000 C 
ATOM     28  C   UNL     1       1.372   9.031  20.396  0.00  0.00    +0.000 C 
ATOM     29  C   UNL     1       1.625   7.543  20.164  0.00  0.00    +0.000 C 
ENDBRANCH  21  24
ENDBRANCH   6  21
BRANCH   1  31
ATOM     30  C   UNL     1       4.171   2.459  18.139  0.00  0.00    +0.000 C 
ATOM     31  O   UNL     1       4.071   3.345  17.022  0.00  0.00    +0.000 OA
ENDBRANCH   1  31
TORSDOF 5
ENDMDL
MODEL 2
REMARK VINA RESULT:      -8.4      5.453      8.792
REMARK  Name = 
REMARK  6 active torsions:
REMARK  status: ('A' for Active; 'I' for Inactive)
REMARK    1  A    between atoms: C_1  and  O_2
REMARK    2  A    between atoms: O_2  and  C_3
REMARK    3  A    between atoms: C_6  and  N_7
REMARK    4  A    between atoms: C_8  and  C_10
REMARK    5  A    between atoms: C_21  and  S_22
REMARK    6  A    between atoms: S_22  and  N_25
REMARK                            x       y       z     vdW  Elec       q    Type
REMARK                         _______ _______ _______ _____ _____    ______ ____
ROOT
ATOM      1  C   UNL     1      -1.052  11.274  21.793  0.00  0.00    +0.000 A 
ATOM      2  C   UNL     1      -0.327  10.372  22.578  0.00  0.00    +0.000 A 
ATOM      3  C   UNL     1       0.494   9.404  21.995  0.00  0.00    +0.000 A 
ATOM      4  C   UNL     1       0.615   9.296  20.615  0.00  0.00    +0.000 A 
ATOM      5  C   UNL     1      -0.116  10.185  19.814  0.00  0.00    +0.000 A 
ATOM      6  C   UNL     1      -0.966  11.154  20.402  0.00  0.00    +0.000 A 
ENDROOT
BRANCH   4   7
ATOM      7  N   UNL     1       1.488   8.365  19.994  0.00  0.00    +0.000 N 
ATOM      8  C   UNL     1       2.047   8.502  18.731  0.00  0.00    +0.000 C 
ATOM      9  O   UNL     1       1.969   9.470  17.985  0.00  0.00    +0.000 OA
ATOM     10  H   UNL     1       1.633   7.487  20.479  0.00  0.00    +0.000 HD
BRANCH   8  11
ATOM     11  C   UNL     1       2.761   7.315  18.209  0.00  0.00    +0.000 A 
ATOM     12  C   UNL     1       2.240   6.061  18.543  0.00  0.00    +0.000 A 
ATOM     13  C   UNL     1       2.926   4.908  18.176  0.00  0.00    +0.000 A 
ATOM     14  C   UNL     1       4.057   4.997  17.359  0.00  0.00    +0.000 A 
ATOM     15  C   UNL     1       4.753   3.844  16.994  0.00  0.00    +0.000 A 
ATOM     16  C   UNL     1       5.523   3.844  15.839  0.00  0.00    +0.000 A 
ATOM     17  C   UNL     1       5.798   5.048  15.198  0.00  0.00    +0.000 A 
ATOM     18  C   UNL     1       5.361   6.252  15.759  0.00  0.00    +0.000 A 
ATOM     19  C   UNL     1       4.446   6.245  16.827  0.00  0.00    +0.000 A 
ATOM     20  C   UNL     1       3.860   7.416  17.348  0.00  0.00    +0.000 A 
ENDBRANCH   8  11
ENDBRANCH   4   7
BRANCH   6  21
ATOM     21  S   UNL     1      -1.730  12.348  19.283  0.00  0.00    +0.000 S 
ATOM     22  O   UNL     1      -1.597  13.688  19.857  0.00  0.00    +0.000 OA
ATOM     23  O   UNL     1      -1.193  12.077  17.979  0.00  0.00    +0.000 OA
BRANCH  21  24
ATOM     24  N   UNL     1      -3.398  11.942  19.231  0.00  0.00    +0.000 NA
ATOM     25  C   UNL     1      -4.293  12.840  20.001  0.00  0.00    +0.000 C 
ATOM     26  C   UNL     1      -5.740  12.355  20.012  0.00  0.00    +0.000 C 
ATOM     27  C   UNL     1      -6.236  12.110  18.603  0.00  0.00    +0.000 C 
ATOM     28  C   UNL     1      -5.365  11.052  17.946  0.00  0.00    +0.000 C 
ATOM     29  C   UNL     1      -3.897  11.469  17.913  0.00  0.00    +0.000 C 
ENDBRANCH  21  24
ENDBRANCH   6  21
BRANCH   1  31
ATOM     30  C   UNL     1      -1.278  13.154  23.222  0.00  0.00    +0.000 C 
ATOM     31  O   UNL     1      -1.889  12.199  22.352  0.00  0.00    +0.000 OA
ENDBRANCH   1  31
TORSDOF 5
ENDMDL
MODEL 3
REMARK VINA RESULT:      -8.3      4.663      7.335
REMARK  Name = 
REMARK  6 active torsions:
REMARK  status: ('A' for Active; 'I' for Inactive)
REMARK    1  A    between atoms: C_1  and  O_2
REMARK    2  A    between atoms: O_2  and  C_3
REMARK    3  A    between atoms: C_6  and  N_7
REMARK    4  A    between atoms: C_8  and  C_10
REMARK    5  A    between atoms: C_21  and  S_22
REMARK    6  A    between atoms: S_22  and  N_25
REMARK                            x       y       z     vdW  Elec       q    Type
REMARK                         _______ _______ _______ _____ _____    ______ ____
ROOT
ATOM      1  C   UNL     1       4.838   5.331  16.493  0.00  0.00    +0.000 A 
ATOM      2  C   UNL     1       5.135   6.689  16.345  0.00  0.00    +0.000 A 
ATOM      3  C   UNL     1       4.352   7.671  16.954  0.00  0.00    +0.000 A 
ATOM      4  C   UNL     1       3.243   7.337  17.722  0.00  0.00    +0.000 A 
ATOM      5  C   UNL     1       2.924   5.980  17.869  0.00  0.00    +0.000 A 
ATOM      6  C   UNL     1       3.705   4.982  17.236  0.00  0.00    +0.000 A 
ENDROOT
BRANCH   4   7
ATOM      7  N   UNL     1       2.464   8.308  18.404  0.00  0.00    +0.000 N 
ATOM      8  C   UNL     1       1.842   8.126  19.631  0.00  0.00    +0.000 C 
ATOM      9  O   UNL     1       1.932   7.156  20.374  0.00  0.00    +0.000 OA
ATOM     10  H   UNL     1       2.270   9.167  17.902  0.00  0.00    +0.000 HD
BRANCH   8  11
ATOM     11  C   UNL     1       0.917   9.201  20.053  0.00  0.00    +0.000 A 
ATOM     12  C   UNL     1       0.269   9.916  19.040  0.00  0.00    +0.000 A 
ATOM     13  C   UNL     1      -0.526  11.009  19.366  0.00  0.00    +0.000 A 
ATOM     14  C   UNL     1      -0.790  11.308  20.707  0.00  0.00    +0.000 A 
ATOM     15  C   UNL     1      -1.581  12.408  21.039  0.00  0.00    +0.000 A 
ATOM     16  C   UNL     1      -2.246  12.431  22.258  0.00  0.00    +0.000 A 
ATOM     17  C   UNL     1      -1.923  11.492  23.233  0.00  0.00    +0.000 A 
ATOM     18  C   UNL     1      -0.886  10.582  23.008  0.00  0.00    +0.000 A 
ATOM     19  C   UNL     1      -0.328  10.446  21.724  0.00  0.00    +0.000 A 
ATOM     20  C   UNL     1       0.620   9.456  21.397  0.00  0.00    +0.000 A 
ENDBRANCH   8  11
ENDBRANCH   4   7
BRANCH   6  21
ATOM     21  S   UNL     1       3.301   3.266  17.627  0.00  0.00    +0.000 S 
ATOM     22  O   UNL     1       2.263   2.802  16.704  0.00  0.00    +0.000 OA
ATOM     23  O   UNL     1       4.552   2.565  17.702  0.00  0.00    +0.000 OA
BRANCH  21  24
ATOM     24  N   UNL     1       2.644   3.289  19.214  0.00  0.00    +0.000 NA
ATOM     25  C   UNL     1       1.167   3.178  19.291  0.00  0.00    +0.000 C 
ATOM     26  C   UNL     1       0.644   3.326  20.717  0.00  0.00    +0.000 C 
ATOM     27  C   UNL     1       1.346   2.366  21.651  0.00  0.00    +0.000 C 
ATOM     28  C   UNL     1       2.837   2.662  21.639  0.00  0.00    +0.000 C 
ATOM     29  C   UNL     1       3.427   2.544  20.236  0.00  0.00    +0.000 C 
ENDBRANCH  21  24
ENDBRANCH   6  21
BRANCH   1  31
ATOM     30  C   UNL     1       6.993   4.459  16.021  0.00  0.00    +0.000 C 
ATOM     31  O   UNL     1       5.576   4.363  15.869  0.00  0.00    +0.000 OA
ENDBRANCH   1  31
TORSDOF 5
ENDMDL
MODEL 4
REMARK VINA RESULT:      -8.3      4.928      8.666
REMARK  Name = 
REMARK  6 active torsions:
REMARK  status: ('A' for Active; 'I' for Inactive)
REMARK    1  A    between atoms: C_1  and  O_2
REMARK    2  A    between atoms: O_2  and  C_3
REMARK    3  A    between atoms: C_6  and  N_7
REMARK    4  A    between atoms: C_8  and  C_10
REMARK    5  A    between atoms: C_21  and  S_22
REMARK    6  A    between atoms: S_22  and  N_25
REMARK                            x       y       z     vdW  Elec       q    Type
REMARK                         _______ _______ _______ _____ _____    ______ ____
ROOT
ATOM      1  C   UNL     1      -0.809  11.299  22.706  0.00  0.00    +0.000 A 
ATOM      2  C   UNL     1      -0.814   9.934  23.009  0.00  0.00    +0.000 A 
ATOM      3  C   UNL     1      -0.041   9.029  22.279  0.00  0.00    +0.000 A 
ATOM      4  C   UNL     1       0.755   9.449  21.220  0.00  0.00    +0.000 A 
ATOM      5  C   UNL     1       0.760  10.813  20.896  0.00  0.00    +0.000 A 
ATOM      6  C   UNL     1      -0.039  11.731  21.622  0.00  0.00    +0.000 A 
ENDROOT
BRANCH   4   7
ATOM      7  N   UNL     1       1.598   8.564  20.499  0.00  0.00    +0.000 N 
ATOM      8  C   UNL     1       1.762   8.550  19.121  0.00  0.00    +0.000 C 
ATOM      9  O   UNL     1       1.297   9.341  18.309  0.00  0.00    +0.000 OA
ATOM     10  H   UNL     1       2.038   7.823  21.031  0.00  0.00    +0.000 HD
BRANCH   8  11
ATOM     11  C   UNL     1       2.532   7.411  18.573  0.00  0.00    +0.000 A 
ATOM     12  C   UNL     1       2.118   6.127  18.942  0.00  0.00    +0.000 A 
ATOM     13  C   UNL     1       2.865   5.021  18.551  0.00  0.00    +0.000 A 
ATOM     14  C   UNL     1       3.946   5.180  17.679  0.00  0.00    +0.000 A 
ATOM     15  C   UNL     1       4.704   4.075  17.290  0.00  0.00    +0.000 A 
ATOM     16  C   UNL     1       5.415   4.116  16.098  0.00  0.00    +0.000 A 
ATOM     17  C   UNL     1       5.573   5.329  15.435  0.00  0.00    +0.000 A 
ATOM     18  C   UNL     1       5.080   6.506  16.008  0.00  0.00    +0.000 A 
ATOM     19  C   UNL     1       4.220   6.446  17.119  0.00  0.00    +0.000 A 
ATOM     20  C   UNL     1       3.578   7.579  17.659  0.00  0.00    +0.000 A 
ENDBRANCH   8  11
ENDBRANCH   4   7
BRANCH   6  21
ATOM     21  S   UNL     1       0.172  13.479  21.224  0.00  0.00    +0.000 S 
ATOM     22  O   UNL     1      -1.010  13.946  20.496  0.00  0.00    +0.000 OA
ATOM     23  O   UNL     1       0.555  14.127  22.447  0.00  0.00    +0.000 OA
BRANCH  21  24
ATOM     24  N   UNL     1       1.525  13.562  20.170  0.00  0.00    +0.000 NA
ATOM     25  C   UNL     1       1.200  13.664  18.727  0.00  0.00    +0.000 C 
ATOM     26  C   UNL     1       2.442  13.611  17.842  0.00  0.00    +0.000 C 
ATOM     27  C   UNL     1       3.461  14.641  18.281  0.00  0.00    +0.000 C 
ATOM     28  C   UNL     1       3.865  14.358  19.719  0.00  0.00    +0.000 C 
ATOM     29  C   UNL     1       2.664  14.383  20.660  0.00  0.00    +0.000 C 
ENDBRANCH  21  24
ENDBRANCH   6  21
BRANCH   1  31
ATOM     30  C   UNL     1      -2.986  12.168  23.076  0.00  0.00    +0.000 C 
ATOM     31  O   UNL     1      -1.592  12.188  23.390  0.00  0.00    +0.000 OA
ENDBRANCH   1  31
TORSDOF 5
ENDMDL
MODEL 5
REMARK VINA RESULT:      -8.2      5.369      8.118
REMARK  Name = 
REMARK  6 active torsions:
REMARK  status: ('A' for Active; 'I' for Inactive)
REMARK    1  A    between atoms: C_1  and  O_2
REMARK    2  A    between atoms: O_2  and  C_3
REMARK    3  A    between atoms: C_6  and  N_7
REMARK    4  A    between atoms: C_8  and  C_10
REMARK    5  A    between atoms: C_21  and  S_22
REMARK    6  A    between atoms: S_22  and  N_25
REMARK                            x       y       z     vdW  Elec       q    Type
REMARK                         _______ _______ _______ _____ _____    ______ ____
ROOT
ATOM      1  C   UNL     1      -1.082  11.684  18.776  0.00  0.00    +0.000 A 
ATOM      2  C   UNL     1      -1.403  10.627  17.919  0.00  0.00    +0.000 A 
ATOM      3  C   UNL     1      -0.467   9.638  17.611  0.00  0.00    +0.000 A 
ATOM      4  C   UNL     1       0.819   9.671  18.137  0.00  0.00    +0.000 A 
ATOM      5  C   UNL     1       1.159  10.732  18.987  0.00  0.00    +0.000 A 
ATOM      6  C   UNL     1       0.219  11.749  19.285  0.00  0.00    +0.000 A 
ENDROOT
BRANCH   4   7
ATOM      7  N   UNL     1       1.773   8.649  17.891  0.00  0.00    +0.000 N 
ATOM      8  C   UNL     1       2.257   7.755  18.836  0.00  0.00    +0.000 C 
ATOM      9  O   UNL     1       1.887   7.627  19.997  0.00  0.00    +0.000 OA
ATOM     10  H   UNL     1       2.201   8.639  16.973  0.00  0.00    +0.000 HD
BRANCH   8  11
ATOM     11  C   UNL     1       3.393   6.910  18.403  0.00  0.00    +0.000 A 
ATOM     12  C   UNL     1       3.827   5.923  19.294  0.00  0.00    +0.000 A 
ATOM     13  C   UNL     1       4.956   5.170  18.994  0.00  0.00    +0.000 A 
ATOM     14  C   UNL     1       5.575   5.303  17.747  0.00  0.00    +0.000 A 
ATOM     15  C   UNL     1       6.714   4.556  17.444  0.00  0.00    +0.000 A 
ATOM     16  C   UNL     1       7.031   4.296  16.117  0.00  0.00    +0.000 A 
ATOM     17  C   UNL     1       6.367   4.984  15.106  0.00  0.00    +0.000 A 
ATOM     18  C   UNL     1       5.442   5.981  15.432  0.00  0.00    +0.000 A 
ATOM     19  C   UNL     1       4.998   6.129  16.759  0.00  0.00    +0.000 A 
ATOM     20  C   UNL     1       3.969   7.017  17.132  0.00  0.00    +0.000 A 
ENDBRANCH   8  11
ENDBRANCH   4   7
BRANCH   6  21
ATOM     21  S   UNL     1       0.712  12.973  20.517  0.00  0.00    +0.000 S 
ATOM     22  O   UNL     1       2.100  12.722  20.906  0.00  0.00    +0.000 OA
ATOM     23  O   UNL     1       0.345  14.254  19.981  0.00  0.00    +0.000 OA
BRANCH  21  24
ATOM     24  N   UNL     1      -0.293  12.697  21.883  0.00  0.00    +0.000 NA
ATOM     25  C   UNL     1      -1.274  13.769  22.175  0.00  0.00    +0.000 C 
ATOM     26  C   UNL     1      -2.048  13.517  23.467  0.00  0.00    +0.000 C 
ATOM     27  C   UNL     1      -2.678  12.141  23.457  0.00  0.00    +0.000 C 
ATOM     28  C   UNL     1      -1.584  11.094  23.325  0.00  0.00    +0.000 C 
ATOM     29  C   UNL     1      -0.759  11.295  22.055  0.00  0.00    +0.000 C 
ENDBRANCH  21  24
ENDBRANCH   6  21
BRANCH   1  31
ATOM     30  C   UNL     1      -3.261  12.256  19.524  0.00  0.00    +0.000 C 
ATOM     31  O   UNL     1      -1.979  12.679  19.054  0.00  0.00    +0.000 OA
ENDBRANCH   1  31
TORSDOF 5
ENDMDL
MODEL 6
REMARK VINA RESULT:      -8.2      3.582      7.541
REMARK  Name = 
REMARK  6 active torsions:
REMARK  status: ('A' for Active; 'I' for Inactive)
REMARK    1  A    between atoms: C_1  and  O_2
REMARK    2  A    between atoms: O_2  and  C_3
REMARK    3  A    between atoms: C_6  and  N_7
REMARK    4  A    between atoms: C_8  and  C_10
REMARK    5  A    between atoms: C_21  and  S_22
REMARK    6  A    between atoms: S_22  and  N_25
REMARK                            x       y       z     vdW  Elec       q    Type
REMARK                         _______ _______ _______ _____ _____    ______ ____
ROOT
ATOM      1  C   UNL     1       3.483   3.632  19.503  0.00  0.00    +0.000 A 
ATOM      2  C   UNL     1       2.707   3.546  20.663  0.00  0.00    +0.000 A 
ATOM      3  C   UNL     1       2.018   4.655  21.156  0.00  0.00    +0.000 A 
ATOM      4  C   UNL     1       2.083   5.888  20.519  0.00  0.00    +0.000 A 
ATOM      5  C   UNL     1       2.868   5.994  19.361  0.00  0.00    +0.000 A 
ATOM      6  C   UNL     1       3.585   4.875  18.870  0.00  0.00    +0.000 A 
ENDROOT
BRANCH   4   7
ATOM      7  N   UNL     1       1.346   7.018  20.960  0.00  0.00    +0.000 N 
ATOM      8  C   UNL     1       1.349   8.268  20.357  0.00  0.00    +0.000 C 
ATOM      9  O   UNL     1       1.896   8.586  19.308  0.00  0.00    +0.000 OA
ATOM     10  H   UNL     1       0.857   6.923  21.842  0.00  0.00    +0.000 HD
BRANCH   8  11
ATOM     11  C   UNL     1       0.667   9.348  21.105  0.00  0.00    +0.000 A 
ATOM     12  C   UNL     1       0.103   9.008  22.339  0.00  0.00    +0.000 A 
ATOM     13  C   UNL     1      -0.645   9.948  23.039  0.00  0.00    +0.000 A 
ATOM     14  C   UNL     1      -0.718  11.267  22.580  0.00  0.00    +0.000 A 
ATOM     15  C   UNL     1      -1.474  12.212  23.274  0.00  0.00    +0.000 A 
ATOM     16  C   UNL     1      -1.171  13.561  23.145  0.00  0.00    +0.000 A 
ATOM     17  C   UNL     1      -0.297  13.975  22.146  0.00  0.00    +0.000 A 
ATOM     18  C   UNL     1       0.212  13.044  21.235  0.00  0.00    +0.000 A 
ATOM     19  C   UNL     1       0.044  11.666  21.462  0.00  0.00    +0.000 A 
ATOM     20  C   UNL     1       0.646  10.675  20.661  0.00  0.00    +0.000 A 
ENDBRANCH   8  11
ENDBRANCH   4   7
BRANCH   6  21
ATOM     21  S   UNL     1       4.427   5.084  17.287  0.00  0.00    +0.000 S 
ATOM     22  O   UNL     1       4.536   3.780  16.632  0.00  0.00    +0.000 OA
ATOM     23  O   UNL     1       3.760   6.164  16.615  0.00  0.00    +0.000 OA
BRANCH  21  24
ATOM     24  N   UNL     1       6.010   5.633  17.666  0.00  0.00    +0.000 NA
ATOM     25  C   UNL     1       6.355   6.979  17.148  0.00  0.00    +0.000 C 
ATOM     26  C   UNL     1       7.811   7.353  17.416  0.00  0.00    +0.000 C 
ATOM     27  C   UNL     1       8.147   7.192  18.883  0.00  0.00    +0.000 C 
ATOM     28  C   UNL     1       7.927   5.743  19.287  0.00  0.00    +0.000 C 
ATOM     29  C   UNL     1       6.489   5.298  19.034  0.00  0.00    +0.000 C 
ENDBRANCH  21  24
ENDBRANCH   6  21
BRANCH   1  31
ATOM     30  C   UNL     1       3.425   1.422  18.642  0.00  0.00    +0.000 C 
ATOM     31  O   UNL     1       4.193   2.562  19.034  0.00  0.00    +0.000 OA
ENDBRANCH   1  31
TORSDOF 5
ENDMDL
MODEL 7
REMARK VINA RESULT:      -8.2      5.385      8.390
REMARK  Name = 
REMARK  6 active torsions:
REMARK  status: ('A' for Active; 'I' for Inactive)
REMARK    1  A    between atoms: C_1  and  O_2
REMARK    2  A    between atoms: O_2  and  C_3
REMARK    3  A    between atoms: C_6  and  N_7
REMARK    4  A    between atoms: C_8  and  C_10
REMARK    5  A    between atoms: C_21  and  S_22
REMARK    6  A    between atoms: S_22  and  N_25
REMARK                            x       y       z     vdW  Elec       q    Type
REMARK                         _______ _______ _______ _____ _____    ______ ____
ROOT
ATOM      1  C   UNL     1      -0.083  10.888  21.690  0.00  0.00    +0.000 A 
ATOM      2  C   UNL     1       0.649   9.853  22.279  0.00  0.00    +0.000 A 
ATOM      3  C   UNL     1       1.259   8.866  21.502  0.00  0.00    +0.000 A 
ATOM      4  C   UNL     1       1.154   8.870  20.116  0.00  0.00    +0.000 A 
ATOM      5  C   UNL     1       0.412   9.895  19.512  0.00  0.00    +0.000 A 
ATOM      6  C   UNL     1      -0.225  10.886  20.299  0.00  0.00    +0.000 A 
ENDROOT
BRANCH   4   7
ATOM      7  N   UNL     1       1.812   7.917  19.296  0.00  0.00    +0.000 N 
ATOM      8  C   UNL     1       2.102   6.608  19.655  0.00  0.00    +0.000 C 
ATOM      9  O   UNL     1       1.764   6.026  20.678  0.00  0.00    +0.000 OA
ATOM     10  H   UNL     1       2.184   8.256  18.417  0.00  0.00    +0.000 HD
BRANCH   8  11
ATOM     11  C   UNL     1       2.972   5.860  18.721  0.00  0.00    +0.000 A 
ATOM     12  C   UNL     1       2.845   4.468  18.710  0.00  0.00    +0.000 A 
ATOM     13  C   UNL     1       3.709   3.701  17.936  0.00  0.00    +0.000 A 
ATOM     14  C   UNL     1       4.610   4.324  17.067  0.00  0.00    +0.000 A 
ATOM     15  C   UNL     1       5.484   3.560  16.294  0.00  0.00    +0.000 A 
ATOM     16  C   UNL     1       6.000   4.087  15.117  0.00  0.00    +0.000 A 
ATOM     17  C   UNL     1       5.848   5.443  14.849  0.00  0.00    +0.000 A 
ATOM     18  C   UNL     1       5.244   6.278  15.796  0.00  0.00    +0.000 A 
ATOM     19  C   UNL     1       4.576   5.725  16.903  0.00  0.00    +0.000 A 
ATOM     20  C   UNL     1       3.831   6.497  17.818  0.00  0.00    +0.000 A 
ENDBRANCH   8  11
ENDBRANCH   4   7
BRANCH   6  21
ATOM     21  S   UNL     1      -1.014  12.244  19.409  0.00  0.00    +0.000 S 
ATOM     22  O   UNL     1      -1.465  13.246  20.376  0.00  0.00    +0.000 OA
ATOM     23  O   UNL     1      -0.103  12.623  18.364  0.00  0.00    +0.000 OA
BRANCH  21  24
ATOM     24  N   UNL     1      -2.395  11.567  18.646  0.00  0.00    +0.000 NA
ATOM     25  C   UNL     1      -3.699  12.107  19.100  0.00  0.00    +0.000 C 
ATOM     26  C   UNL     1      -4.885  11.379  18.472  0.00  0.00    +0.000 C 
ATOM     27  C   UNL     1      -4.762  11.350  16.964  0.00  0.00    +0.000 C 
ATOM     28  C   UNL     1      -3.480  10.627  16.583  0.00  0.00    +0.000 C 
ATOM     29  C   UNL     1      -2.251  11.299  17.190  0.00  0.00    +0.000 C 
ENDBRANCH  21  24
ENDBRANCH   6  21
BRANCH   1  31
ATOM     30  C   UNL     1      -1.773  11.370  23.284  0.00  0.00    +0.000 C 
ATOM     31  O   UNL     1      -0.716  11.838  22.444  0.00  0.00    +0.000 OA
ENDBRANCH   1  31
TORSDOF 5
ENDMDL
MODEL 8
REMARK VINA RESULT:      -8.2      4.762      7.095
REMARK  Name = 
REMARK  6 active torsions:
REMARK  status: ('A' for Active; 'I' for Inactive)
REMARK    1  A    between atoms: C_1  and  O_2
REMARK    2  A    between atoms: O_2  and  C_3
REMARK    3  A    between atoms: C_6  and  N_7
REMARK    4  A    between atoms: C_8  and  C_10
REMARK    5  A    between atoms: C_21  and  S_22
REMARK    6  A    between atoms: S_22  and  N_25
REMARK                            x       y       z     vdW  Elec       q    Type
REMARK                         _______ _______ _______ _____ _____    ______ ____
ROOT
ATOM      1  C   UNL     1       4.951   4.933  16.810  0.00  0.00    +0.000 A 
ATOM      2  C   UNL     1       5.282   6.291  16.860  0.00  0.00    +0.000 A 
ATOM      3  C   UNL     1       4.442   7.216  17.483  0.00  0.00    +0.000 A 
ATOM      4  C   UNL     1       3.244   6.825  18.068  0.00  0.00    +0.000 A 
ATOM      5  C   UNL     1       2.893   5.469  18.015  0.00  0.00    +0.000 A 
ATOM      6  C   UNL     1       3.733   4.531  17.366  0.00  0.00    +0.000 A 
ENDROOT
BRANCH   4   7
ATOM      7  N   UNL     1       2.399   7.731  18.762  0.00  0.00    +0.000 N 
ATOM      8  C   UNL     1       1.920   8.932  18.258  0.00  0.00    +0.000 C 
ATOM      9  O   UNL     1       2.055   9.369  17.122  0.00  0.00    +0.000 OA
ATOM     10  H   UNL     1       2.215   7.523  19.736  0.00  0.00    +0.000 HD
BRANCH   8  11
ATOM     11  C   UNL     1       1.225   9.808  19.229  0.00  0.00    +0.000 A 
ATOM     12  C   UNL     1       0.819  11.066  18.773  0.00  0.00    +0.000 A 
ATOM     13  C   UNL     1       0.261  11.976  19.663  0.00  0.00    +0.000 A 
ATOM     14  C   UNL     1      -0.022  11.587  20.977  0.00  0.00    +0.000 A 
ATOM     15  C   UNL     1      -0.575  12.498  21.876  0.00  0.00    +0.000 A 
ATOM     16  C   UNL     1      -1.300  12.033  22.966  0.00  0.00    +0.000 A 
ATOM     17  C   UNL     1      -1.257  10.682  23.291  0.00  0.00    +0.000 A 
ATOM     18  C   UNL     1      -0.429   9.816  22.568  0.00  0.00    +0.000 A 
ATOM     19  C   UNL     1       0.171  10.246  21.371  0.00  0.00    +0.000 A 
ATOM     20  C   UNL     1       0.901   9.388  20.524  0.00  0.00    +0.000 A 
ENDBRANCH   8  11
ENDBRANCH   4   7
BRANCH   6  21
ATOM     21  S   UNL     1       3.262   2.793  17.500  0.00  0.00    +0.000 S 
ATOM     22  O   UNL     1       2.198   2.513  16.535  0.00  0.00    +0.000 OA
ATOM     23  O   UNL     1       4.484   2.040  17.449  0.00  0.00    +0.000 OA
BRANCH  21  24
ATOM     24  N   UNL     1       2.623   2.600  19.083  0.00  0.00    +0.000 NA
ATOM     25  C   UNL     1       3.614   2.690  20.182  0.00  0.00    +0.000 C 
ATOM     26  C   UNL     1       3.001   2.390  21.548  0.00  0.00    +0.000 C 
ATOM     27  C   UNL     1       1.784   3.255  21.793  0.00  0.00    +0.000 C 
ATOM     28  C   UNL     1       0.750   2.974  20.715  0.00  0.00    +0.000 C 
ATOM     29  C   UNL     1       1.302   3.242  19.317  0.00  0.00    +0.000 C 
ENDBRANCH  21  24
ENDBRANCH   6  21
BRANCH   1  31
ATOM     30  C   UNL     1       6.790   4.567  15.356  0.00  0.00    +0.000 C 
ATOM     31  O   UNL     1       5.748   4.024  16.169  0.00  0.00    +0.000 OA
ENDBRANCH   1  31
TORSDOF 5
ENDMDL
MODEL 9
REMARK VINA RESULT:      -8.1      4.688      7.123
REMARK  Name = 
REMARK  6 active torsions:
REMARK  status: ('A' for Active; 'I' for Inactive)
REMARK    1  A    between atoms: C_1  and  O_2
REMARK    2  A    between atoms: O_2  and  C_3
REMARK    3  A    between atoms: C_6  and  N_7
REMARK    4  A    between atoms: C_8  and  C_10
REMARK    5  A    between atoms: C_21  and  S_22
REMARK    6  A    between atoms: S_22  and  N_25
REMARK                            x       y       z     vdW  Elec       q    Type
REMARK                         _______ _______ _______ _____ _____    ______ ____
ROOT
ATOM      1  C   UNL     1       5.087   4.651  16.586  0.00  0.00    +0.000 A 
ATOM      2  C   UNL     1       5.533   5.976  16.559  0.00  0.00    +0.000 A 
ATOM      3  C   UNL     1       4.801   6.998  17.165  0.00  0.00    +0.000 A 
ATOM      4  C   UNL     1       3.598   6.739  17.811  0.00  0.00    +0.000 A 
ATOM      5  C   UNL     1       3.131   5.417  17.836  0.00  0.00    +0.000 A 
ATOM      6  C   UNL     1       3.861   4.381  17.203  0.00  0.00    +0.000 A 
ENDROOT
BRANCH   4   7
ATOM      7  N   UNL     1       2.862   7.745  18.490  0.00  0.00    +0.000 N 
ATOM      8  C   UNL     1       2.167   7.571  19.679  0.00  0.00    +0.000 C 
ATOM      9  O   UNL     1       2.145   6.574  20.389  0.00  0.00    +0.000 OA
ATOM     10  H   UNL     1       2.760   8.632  18.012  0.00  0.00    +0.000 HD
BRANCH   8  11
ATOM     11  C   UNL     1       1.307   8.702  20.095  0.00  0.00    +0.000 A 
ATOM     12  C   UNL     1       0.785   9.511  19.081  0.00  0.00    +0.000 A 
ATOM     13  C   UNL     1       0.062  10.652  19.410  0.00  0.00    +0.000 A 
ATOM     14  C   UNL     1      -0.262  10.914  20.745  0.00  0.00    +0.000 A 
ATOM     15  C   UNL     1      -0.981  12.061  21.082  0.00  0.00    +0.000 A 
ATOM     16  C   UNL     1      -1.718  12.088  22.258  0.00  0.00    +0.000 A 
ATOM     17  C   UNL     1      -1.535  11.085  23.205  0.00  0.00    +0.000 A 
ATOM     18  C   UNL     1      -0.562  10.102  23.000  0.00  0.00    +0.000 A 
ATOM     19  C   UNL     1       0.063   9.974  21.746  0.00  0.00    +0.000 A 
ATOM     20  C   UNL     1       0.947   8.923  21.429  0.00  0.00    +0.000 A 
ENDBRANCH   8  11
ENDBRANCH   4   7
BRANCH   6  21
ATOM     21  S   UNL     1       3.250   2.699  17.438  0.00  0.00    +0.000 S 
ATOM     22  O   UNL     1       2.158   2.455  16.494  0.00  0.00    +0.000 OA
ATOM     23  O   UNL     1       4.405   1.846  17.424  0.00  0.00    +0.000 OA
BRANCH  21  24
ATOM     24  N   UNL     1       2.610   2.649  19.031  0.00  0.00    +0.000 NA
ATOM     25  C   UNL     1       3.612   2.745  20.120  0.00  0.00    +0.000 C 
ATOM     26  C   UNL     1       2.991   2.573  21.503  0.00  0.00    +0.000 C 
ATOM     27  C   UNL     1       1.833   3.528  21.696  0.00  0.00    +0.000 C 
ATOM     28  C   UNL     1       0.775   3.246  20.640  0.00  0.00    +0.000 C 
ATOM     29  C   UNL     1       1.335   3.388  19.227  0.00  0.00    +0.000 C 
ENDBRANCH  21  24
ENDBRANCH   6  21
BRANCH   1  31
ATOM     30  C   UNL     1       6.191   3.914  14.619  0.00  0.00    +0.000 C 
ATOM     31  O   UNL     1       5.777   3.649  15.961  0.00  0.00    +0.000 OA
ENDBRANCH   1  31
TORSDOF 5
ENDMDL
