MODEL 1
REMARK VINA RESULT:      -9.4      0.000      0.000
REMARK  Name = 
REMARK  3 active torsions:
REMARK  status: ('A' for Active; 'I' for Inactive)
REMARK    1  A    between atoms: C_1  and  N_2
REMARK    2  A    between atoms: C_10  and  N_11
REMARK    3  A    between atoms: N_14  and  C_15
REMARK                            x       y       z     vdW  Elec       q    Type
REMARK                         _______ _______ _______ _____ _____    ______ ____
ROOT
ATOM      1  N   UNL     1       2.125   7.685  20.162  0.00  0.00    +0.000 N 
ATOM      2  C   UNL     1       1.855   6.306  20.054  0.00  0.00    +0.000 C 
ATOM      3  O   UNL     1       1.032   5.672  20.671  0.00  0.00    +0.000 OA
ATOM      4  N   UNL     1       2.585   5.694  19.057  0.00  0.00    +0.000 N 
ATOM      5  H   UNL     1       2.951   8.036  19.707  0.00  0.00    +0.000 HD
ATOM      6  H   UNL     1       3.328   6.267  18.716  0.00  0.00    +0.000 HD
ENDROOT
BRANCH   4   7
ATOM      7  C   UNL     1       2.633   4.267  18.650  0.00  0.00    +0.000 C 
ATOM      8  C   UNL     1       3.606   3.566  19.582  0.00  0.00    +0.000 C 
ATOM      9  C   UNL     1       3.518   2.084  19.106  0.00  0.00    +0.000 C 
ATOM     10  C   UNL     1       2.838   2.107  17.715  0.00  0.00    +0.000 C 
ATOM     11  C   UNL     1       3.160   3.541  17.251  0.00  0.00    +0.000 C 
ATOM     12  C   UNL     1       4.753   3.325  16.766  0.00  0.00    +0.000 C 
ATOM     13  C   UNL     1       5.649   4.446  17.122  0.00  0.00    +0.000 A 
ATOM     14  C   UNL     1       6.881   4.904  16.708  0.00  0.00    +0.000 A 
ATOM     15  C   UNL     1       7.097   6.290  16.786  0.00  0.00    +0.000 A 
ATOM     16  C   UNL     1       5.998   7.076  17.104  0.00  0.00    +0.000 A 
ATOM     17  C   UNL     1       4.982   6.460  17.805  0.00  0.00    +0.000 A 
ATOM     18  C   UNL     1       5.199   5.150  18.170  0.00  0.00    +0.000 A 
ATOM     19  C   UNL     1       4.947   4.352  19.437  0.00  0.00    +0.000 C 
ENDBRANCH   4   7
BRANCH   1  29
ATOM     20  C   UNL     1      -1.219  11.728  18.980  0.00  0.00    +0.000 C 
ATOM     21  N   UNL     1      -1.201  11.459  20.397  0.00  0.00    +0.000 N 
ATOM     22  C   UNL     1      -2.000  12.285  21.204  0.00  0.00    +0.000 C 
ATOM     23  O   UNL     1      -2.857  13.043  20.776  0.00  0.00    +0.000 OA
ATOM     24  C   UNL     1      -1.628  12.294  22.680  0.00  0.00    +0.000 C 
ATOM     25  O   UNL     1      -1.039  11.146  23.248  0.00  0.00    +0.000 OA
ATOM     26  C   UNL     1      -0.272  10.424  22.373  0.00  0.00    +0.000 A 
ATOM     27  C   UNL     1       0.556   9.505  23.025  0.00  0.00    +0.000 A 
ATOM     28  C   UNL     1       1.365   8.635  22.292  0.00  0.00    +0.000 A 
ATOM     29  C   UNL     1       1.343   8.635  20.901  0.00  0.00    +0.000 A 
ATOM     30  C   UNL     1       0.479   9.564  20.249  0.00  0.00    +0.000 A 
ATOM     31  C   UNL     1      -0.326  10.492  20.986  0.00  0.00    +0.000 A 
ENDBRANCH   1  29
TORSDOF 2
ENDMDL
MODEL 2
REMARK VINA RESULT:      -9.0      2.688      9.341
REMARK  Name = 
REMARK  3 active torsions:
REMARK  status: ('A' for Active; 'I' for Inactive)
REMARK    1  A    between atoms: C_1  and  N_2
REMARK    2  A    between atoms: C_10  and  N_11
REMARK    3  A    between atoms: N_14  and  C_15
REMARK                            x       y       z     vdW  Elec       q    Type
REMARK                         _______ _______ _______ _____ _____    ______ ____
ROOT
ATOM      1  N   UNL     1       2.047   7.880  18.833  0.00  0.00    +0.000 N 
ATOM      2  C   UNL     1       1.804   9.109  18.188  0.00  0.00    +0.000 C 
ATOM      3  O   UNL     1       2.255   9.484  17.132  0.00  0.00    +0.000 OA
ATOM      4  N   UNL     1       0.871   9.883  18.847  0.00  0.00    +0.000 N 
ATOM      5  H   UNL     1       1.735   7.782  19.783  0.00  0.00    +0.000 HD
ATOM      6  H   UNL     1       0.676   9.551  19.768  0.00  0.00    +0.000 HD
ENDROOT
BRANCH   4   7
ATOM      7  C   UNL     1       0.370  11.245  18.533  0.00  0.00    +0.000 C 
ATOM      8  C   UNL     1       1.311  12.235  19.198  0.00  0.00    +0.000 C 
ATOM      9  C   UNL     1       0.729  13.607  18.745  0.00  0.00    +0.000 C 
ATOM     10  C   UNL     1      -0.698  13.328  18.212  0.00  0.00    +0.000 C 
ATOM     11  C   UNL     1      -1.039  12.020  18.951  0.00  0.00    +0.000 C 
ATOM     12  C   UNL     1      -1.436  12.648  20.457  0.00  0.00    +0.000 C 
ATOM     13  C   UNL     1      -0.947  11.840  21.595  0.00  0.00    +0.000 A 
ATOM     14  C   UNL     1      -1.249  11.725  22.934  0.00  0.00    +0.000 A 
ATOM     15  C   UNL     1      -1.062  10.460  23.516  0.00  0.00    +0.000 A 
ATOM     16  C   UNL     1      -0.762   9.415  22.654  0.00  0.00    +0.000 A 
ATOM     17  C   UNL     1      -0.170   9.756  21.454  0.00  0.00    +0.000 A 
ATOM     18  C   UNL     1       0.116  11.090  21.274  0.00  0.00    +0.000 A 
ATOM     19  C   UNL     1       1.307  11.848  20.711  0.00  0.00    +0.000 C 
ENDBRANCH   4   7
BRANCH   1  29
ATOM     20  C   UNL     1       7.059   6.848  17.176  0.00  0.00    +0.000 C 
ATOM     21  N   UNL     1       6.242   5.659  17.149  0.00  0.00    +0.000 N 
ATOM     22  C   UNL     1       6.854   4.486  16.681  0.00  0.00    +0.000 C 
ATOM     23  O   UNL     1       8.059   4.356  16.517  0.00  0.00    +0.000 OA
ATOM     24  C   UNL     1       5.892   3.393  16.233  0.00  0.00    +0.000 C 
ATOM     25  O   UNL     1       4.621   3.308  16.836  0.00  0.00    +0.000 OA
ATOM     26  C   UNL     1       4.115   4.514  17.242  0.00  0.00    +0.000 A 
ATOM     27  C   UNL     1       2.746   4.451  17.518  0.00  0.00    +0.000 A 
ATOM     28  C   UNL     1       2.070   5.571  18.006  0.00  0.00    +0.000 A 
ATOM     29  C   UNL     1       2.743   6.761  18.262  0.00  0.00    +0.000 A 
ATOM     30  C   UNL     1       4.143   6.805  17.994  0.00  0.00    +0.000 A 
ATOM     31  C   UNL     1       4.845   5.679  17.454  0.00  0.00    +0.000 A 
ENDBRANCH   1  29
TORSDOF 2
ENDMDL
MODEL 3
REMARK VINA RESULT:      -8.8      2.468      8.756
REMARK  Name = 
REMARK  3 active torsions:
REMARK  status: ('A' for Active; 'I' for Inactive)
REMARK    1  A    between atoms: C_1  and  N_2
REMARK    2  A    between atoms: C_10  and  N_11
REMARK    3  A    between atoms: N_14  and  C_15
REMARK                            x       y       z     vdW  Elec       q    Type
REMARK                         _______ _______ _______ _____ _____    ______ ____
ROOT
ATOM      1  N   UNL     1       2.958   8.634  18.279  0.00  0.00    +0.000 N 
ATOM      2  C   UNL     1       1.749   9.294  17.983  0.00  0.00    +0.000 C 
ATOM      3  O   UNL     1       0.799   8.847  17.386  0.00  0.00    +0.000 OA
ATOM      4  N   UNL     1       1.676  10.553  18.542  0.00  0.00    +0.000 N 
ATOM      5  H   UNL     1       3.718   9.189  18.633  0.00  0.00    +0.000 HD
ATOM      6  H   UNL     1       2.558  10.875  18.882  0.00  0.00    +0.000 HD
ENDROOT
BRANCH   4   7
ATOM      7  C   UNL     1       0.611  11.582  18.437  0.00  0.00    +0.000 C 
ATOM      8  C   UNL     1       1.063  12.782  19.250  0.00  0.00    +0.000 C 
ATOM      9  C   UNL     1      -0.088  13.804  19.009  0.00  0.00    +0.000 C 
ATOM     10  C   UNL     1      -1.279  13.000  18.432  0.00  0.00    +0.000 C 
ATOM     11  C   UNL     1      -0.966  11.587  18.962  0.00  0.00    +0.000 C 
ATOM     12  C   UNL     1      -1.502  11.759  20.544  0.00  0.00    +0.000 C 
ATOM     13  C   UNL     1      -0.638  11.101  21.548  0.00  0.00    +0.000 A 
ATOM     14  C   UNL     1      -0.774  10.679  22.852  0.00  0.00    +0.000 A 
ATOM     15  C   UNL     1      -0.015   9.560  23.234  0.00  0.00    +0.000 A 
ATOM     16  C   UNL     1       0.658   8.887  22.225  0.00  0.00    +0.000 A 
ATOM     17  C   UNL     1       0.963   9.618  21.094  0.00  0.00    +0.000 A 
ATOM     18  C   UNL     1       0.624  10.952  21.120  0.00  0.00    +0.000 A 
ATOM     19  C   UNL     1       1.325  12.228  20.686  0.00  0.00    +0.000 C 
ENDBRANCH   4   7
BRANCH   1  29
ATOM     20  C   UNL     1       0.977   4.004  20.167  0.00  0.00    +0.000 C 
ATOM     21  N   UNL     1       1.926   3.774  19.105  0.00  0.00    +0.000 N 
ATOM     22  C   UNL     1       2.191   2.435  18.778  0.00  0.00    +0.000 C 
ATOM     23  O   UNL     1       1.522   1.487  19.162  0.00  0.00    +0.000 OA
ATOM     24  C   UNL     1       3.486   2.206  18.010  0.00  0.00    +0.000 C 
ATOM     25  O   UNL     1       3.977   3.225  17.170  0.00  0.00    +0.000 OA
ATOM     26  C   UNL     1       3.671   4.491  17.594  0.00  0.00    +0.000 A 
ATOM     27  C   UNL     1       4.438   5.468  16.952  0.00  0.00    +0.000 A 
ATOM     28  C   UNL     1       4.221   6.822  17.210  0.00  0.00    +0.000 A 
ATOM     29  C   UNL     1       3.217   7.236  18.080  0.00  0.00    +0.000 A 
ATOM     30  C   UNL     1       2.430   6.230  18.714  0.00  0.00    +0.000 A 
ATOM     31  C   UNL     1       2.666   4.834  18.493  0.00  0.00    +0.000 A 
ENDBRANCH   1  29
TORSDOF 2
ENDMDL
MODEL 4
REMARK VINA RESULT:      -8.7      1.541      3.345
REMARK  Name = 
REMARK  3 active torsions:
REMARK  status: ('A' for Active; 'I' for Inactive)
REMARK    1  A    between atoms: C_1  and  N_2
REMARK    2  A    between atoms: C_10  and  N_11
REMARK    3  A    between atoms: N_14  and  C_15
REMARK                            x       y       z     vdW  Elec       q    Type
REMARK                         _______ _______ _______ _____ _____    ______ ____
ROOT
ATOM      1  N   UNL     1       0.850   8.022  21.007  0.00  0.00    +0.000 N 
ATOM      2  C   UNL     1       1.893   8.069  20.061  0.00  0.00    +0.000 C 
ATOM      3  O   UNL     1       2.253   9.025  19.415  0.00  0.00    +0.000 OA
ATOM      4  N   UNL     1       2.592   6.883  19.976  0.00  0.00    +0.000 N 
ATOM      5  H   UNL     1       0.560   7.118  21.337  0.00  0.00    +0.000 HD
ATOM      6  H   UNL     1       2.128   6.128  20.435  0.00  0.00    +0.000 HD
ENDROOT
BRANCH   4   7
ATOM      7  C   UNL     1       3.718   6.502  19.085  0.00  0.00    +0.000 C 
ATOM      8  C   UNL     1       3.141   6.299  17.695  0.00  0.00    +0.000 C 
ATOM      9  C   UNL     1       4.410   5.976  16.850  0.00  0.00    +0.000 C 
ATOM     10  C   UNL     1       5.532   5.620  17.856  0.00  0.00    +0.000 C 
ATOM     11  C   UNL     1       4.704   5.165  19.073  0.00  0.00    +0.000 C 
ATOM     12  C   UNL     1       4.297   3.616  18.569  0.00  0.00    +0.000 C 
ATOM     13  C   UNL     1       2.912   3.218  18.901  0.00  0.00    +0.000 A 
ATOM     14  C   UNL     1       2.217   2.034  19.008  0.00  0.00    +0.000 A 
ATOM     15  C   UNL     1       1.168   2.001  19.942  0.00  0.00    +0.000 A 
ATOM     16  C   UNL     1       1.048   3.097  20.784  0.00  0.00    +0.000 A 
ATOM     17  C   UNL     1       1.572   4.289  20.324  0.00  0.00    +0.000 A 
ATOM     18  C   UNL     1       2.097   4.272  19.052  0.00  0.00    +0.000 A 
ATOM     19  C   UNL     1       2.026   5.222  17.868  0.00  0.00    +0.000 C 
ENDBRANCH   4   7
BRANCH   1  29
ATOM     20  C   UNL     1      -1.281  12.517  18.961  0.00  0.00    +0.000 C 
ATOM     21  N   UNL     1      -1.625  12.360  20.353  0.00  0.00    +0.000 N 
ATOM     22  C   UNL     1      -2.397  13.381  20.929  0.00  0.00    +0.000 C 
ATOM     23  O   UNL     1      -2.972  14.251  20.292  0.00  0.00    +0.000 OA
ATOM     24  C   UNL     1      -2.359  13.434  22.451  0.00  0.00    +0.000 C 
ATOM     25  O   UNL     1      -2.149  12.244  23.176  0.00  0.00    +0.000 OA
ATOM     26  C   UNL     1      -1.371  11.325  22.523  0.00  0.00    +0.000 A 
ATOM     27  C   UNL     1      -0.904  10.321  23.376  0.00  0.00    +0.000 A 
ATOM     28  C   UNL     1      -0.147   9.260  22.876  0.00  0.00    +0.000 A 
ATOM     29  C   UNL     1       0.133   9.156  21.517  0.00  0.00    +0.000 A 
ATOM     30  C   UNL     1      -0.365  10.178  20.655  0.00  0.00    +0.000 A 
ATOM     31  C   UNL     1      -1.109  11.295  21.158  0.00  0.00    +0.000 A 
ENDBRANCH   1  29
TORSDOF 2
ENDMDL
MODEL 5
REMARK VINA RESULT:      -8.7      1.162      1.244
REMARK  Name = 
REMARK  3 active torsions:
REMARK  status: ('A' for Active; 'I' for Inactive)
REMARK    1  A    between atoms: C_1  and  N_2
REMARK    2  A    between atoms: C_10  and  N_11
REMARK    3  A    between atoms: N_14  and  C_15
REMARK                            x       y       z     vdW  Elec       q    Type
REMARK                         _______ _______ _______ _____ _____    ______ ____
ROOT
ATOM      1  N   UNL     1       2.150   7.478  20.937  0.00  0.00    +0.000 N 
ATOM      2  C   UNL     1       1.750   6.169  20.602  0.00  0.00    +0.000 C 
ATOM      3  O   UNL     1       0.633   5.712  20.647  0.00  0.00    +0.000 OA
ATOM      4  N   UNL     1       2.781   5.408  20.092  0.00  0.00    +0.000 N 
ATOM      5  H   UNL     1       3.136   7.659  21.010  0.00  0.00    +0.000 HD
ATOM      6  H   UNL     1       3.676   5.826  20.235  0.00  0.00    +0.000 HD
ENDROOT
BRANCH   4   7
ATOM      7  C   UNL     1       2.795   3.986  19.665  0.00  0.00    +0.000 C 
ATOM      8  C   UNL     1       4.194   3.453  19.921  0.00  0.00    +0.000 C 
ATOM      9  C   UNL     1       4.065   1.957  19.504  0.00  0.00    +0.000 C 
ATOM     10  C   UNL     1       2.761   1.840  18.677  0.00  0.00    +0.000 C 
ATOM     11  C   UNL     1       2.602   3.286  18.170  0.00  0.00    +0.000 C 
ATOM     12  C   UNL     1       3.717   3.265  16.914  0.00  0.00    +0.000 C 
ATOM     13  C   UNL     1       4.511   4.507  16.792  0.00  0.00    +0.000 A 
ATOM     14  C   UNL     1       5.270   5.108  15.813  0.00  0.00    +0.000 A 
ATOM     15  C   UNL     1       5.312   6.512  15.820  0.00  0.00    +0.000 A 
ATOM     16  C   UNL     1       4.450   7.157  16.696  0.00  0.00    +0.000 A 
ATOM     17  C   UNL     1       4.043   6.438  17.802  0.00  0.00    +0.000 A 
ATOM     18  C   UNL     1       4.588   5.182  17.947  0.00  0.00    +0.000 A 
ATOM     19  C   UNL     1       5.144   4.403  19.127  0.00  0.00    +0.000 C 
ENDBRANCH   4   7
BRANCH   1  29
ATOM     20  C   UNL     1       1.072  12.278  18.764  0.00  0.00    +0.000 C 
ATOM     21  N   UNL     1       0.157  11.970  19.836  0.00  0.00    +0.000 N 
ATOM     22  C   UNL     1      -0.801  12.948  20.146  0.00  0.00    +0.000 C 
ATOM     23  O   UNL     1      -1.051  13.914  19.440  0.00  0.00    +0.000 OA
ATOM     24  C   UNL     1      -1.431  12.816  21.526  0.00  0.00    +0.000 C 
ATOM     25  O   UNL     1      -1.544  11.539  22.111  0.00  0.00    +0.000 OA
ATOM     26  C   UNL     1      -0.548  10.670  21.749  0.00  0.00    +0.000 A 
ATOM     27  C   UNL     1      -0.489   9.551  22.583  0.00  0.00    +0.000 A 
ATOM     28  C   UNL     1       0.424   8.525  22.329  0.00  0.00    +0.000 A 
ATOM     29  C   UNL     1       1.269   8.573  21.226  0.00  0.00    +0.000 A 
ATOM     30  C   UNL     1       1.185   9.713  20.372  0.00  0.00    +0.000 A 
ATOM     31  C   UNL     1       0.283  10.794  20.641  0.00  0.00    +0.000 A 
ENDBRANCH   1  29
TORSDOF 2
ENDMDL
MODEL 6
REMARK VINA RESULT:      -8.5      2.938      3.544
REMARK  Name = 
REMARK  3 active torsions:
REMARK  status: ('A' for Active; 'I' for Inactive)
REMARK    1  A    between atoms: C_1  and  N_2
REMARK    2  A    between atoms: C_10  and  N_11
REMARK    3  A    between atoms: N_14  and  C_15
REMARK                            x       y       z     vdW  Elec       q    Type
REMARK                         _______ _______ _______ _____ _____    ______ ____
ROOT
ATOM      1  N   UNL     1       2.259   9.171  18.110  0.00  0.00    +0.000 N 
ATOM      2  C   UNL     1       1.955   8.034  18.885  0.00  0.00    +0.000 C 
ATOM      3  O   UNL     1       1.335   8.000  19.921  0.00  0.00    +0.000 OA
ATOM      4  N   UNL     1       2.362   6.857  18.292  0.00  0.00    +0.000 N 
ATOM      5  H   UNL     1       2.924   9.062  17.364  0.00  0.00    +0.000 HD
ATOM      6  H   UNL     1       2.983   7.007  17.525  0.00  0.00    +0.000 HD
ENDROOT
BRANCH   4   7
ATOM      7  C   UNL     1       2.276   5.460  18.788  0.00  0.00    +0.000 C 
ATOM      8  C   UNL     1       3.400   5.269  19.792  0.00  0.00    +0.000 C 
ATOM      9  C   UNL     1       3.165   3.810  20.286  0.00  0.00    +0.000 C 
ATOM     10  C   UNL     1       2.209   3.147  19.264  0.00  0.00    +0.000 C 
ATOM     11  C   UNL     1       2.473   4.005  18.011  0.00  0.00    +0.000 C 
ATOM     12  C   UNL     1       3.921   3.319  17.506  0.00  0.00    +0.000 C 
ATOM     13  C   UNL     1       4.908   4.298  17.003  0.00  0.00    +0.000 A 
ATOM     14  C   UNL     1       6.040   4.255  16.219  0.00  0.00    +0.000 A 
ATOM     15  C   UNL     1       6.313   5.394  15.443  0.00  0.00    +0.000 A 
ATOM     16  C   UNL     1       5.333   6.375  15.408  0.00  0.00    +0.000 A 
ATOM     17  C   UNL     1       4.466   6.420  16.482  0.00  0.00    +0.000 A 
ATOM     18  C   UNL     1       4.712   5.528  17.501  0.00  0.00    +0.000 A 
ATOM     19  C   UNL     1       4.706   5.629  19.016  0.00  0.00    +0.000 C 
ENDBRANCH   4   7
BRANCH   1  29
ATOM     20  C   UNL     1       4.215  14.180  18.163  0.00  0.00    +0.000 C 
ATOM     21  N   UNL     1       2.776  14.178  18.264  0.00  0.00    +0.000 N 
ATOM     22  C   UNL     1       2.152  15.429  18.389  0.00  0.00    +0.000 C 
ATOM     23  O   UNL     1       2.711  16.499  18.194  0.00  0.00    +0.000 OA
ATOM     24  C   UNL     1       0.735  15.387  18.943  0.00  0.00    +0.000 C 
ATOM     25  O   UNL     1      -0.061  14.247  18.711  0.00  0.00    +0.000 OA
ATOM     26  C   UNL     1       0.652  13.081  18.619  0.00  0.00    +0.000 A 
ATOM     27  C   UNL     1      -0.162  11.950  18.729  0.00  0.00    +0.000 A 
ATOM     28  C   UNL     1       0.380  10.671  18.595  0.00  0.00    +0.000 A 
ATOM     29  C   UNL     1       1.731  10.489  18.316  0.00  0.00    +0.000 A 
ATOM     30  C   UNL     1       2.546  11.652  18.188  0.00  0.00    +0.000 A 
ATOM     31  C   UNL     1       2.014  12.971  18.363  0.00  0.00    +0.000 A 
ENDBRANCH   1  29
TORSDOF 2
ENDMDL
MODEL 7
REMARK VINA RESULT:      -8.5      2.514      4.156
REMARK  Name = 
REMARK  3 active torsions:
REMARK  status: ('A' for Active; 'I' for Inactive)
REMARK    1  A    between atoms: C_1  and  N_2
REMARK    2  A    between atoms: C_10  and  N_11
REMARK    3  A    between atoms: N_14  and  C_15
REMARK                            x       y       z     vdW  Elec       q    Type
REMARK                         _______ _______ _______ _____ _____    ______ ____
ROOT
ATOM      1  N   UNL     1       1.481   8.519  19.092  0.00  0.00    +0.000 N 
ATOM      2  C   UNL     1       2.550   8.067  18.292  0.00  0.00    +0.000 C 
ATOM      3  O   UNL     1       3.023   8.615  17.325  0.00  0.00    +0.000 OA
ATOM      4  N   UNL     1       3.128   6.911  18.775  0.00  0.00    +0.000 N 
ATOM      5  H   UNL     1       1.091   7.874  19.757  0.00  0.00    +0.000 HD
ATOM      6  H   UNL     1       2.576   6.469  19.479  0.00  0.00    +0.000 HD
ENDROOT
BRANCH   4   7
ATOM      7  C   UNL     1       4.233   6.093  18.215  0.00  0.00    +0.000 C 
ATOM      8  C   UNL     1       3.658   5.287  17.062  0.00  0.00    +0.000 C 
ATOM      9  C   UNL     1       4.910   4.534  16.522  0.00  0.00    +0.000 C 
ATOM     10  C   UNL     1       5.996   4.637  17.621  0.00  0.00    +0.000 C 
ATOM     11  C   UNL     1       5.128   4.858  18.875  0.00  0.00    +0.000 C 
ATOM     12  C   UNL     1       4.623   3.279  19.145  0.00  0.00    +0.000 C 
ATOM     13  C   UNL     1       3.211   3.162  19.569  0.00  0.00    +0.000 A 
ATOM     14  C   UNL     1       2.437   2.210  20.194  0.00  0.00    +0.000 A 
ATOM     15  C   UNL     1       1.379   2.680  20.990  0.00  0.00    +0.000 A 
ATOM     16  C   UNL     1       1.325   4.049  21.210  0.00  0.00    +0.000 A 
ATOM     17  C   UNL     1       1.932   4.850  20.264  0.00  0.00    +0.000 A 
ATOM     18  C   UNL     1       2.468   4.205  19.173  0.00  0.00    +0.000 A 
ATOM     19  C   UNL     1       2.471   4.483  17.679  0.00  0.00    +0.000 C 
ENDBRANCH   4   7
BRANCH   1  29
ATOM     20  C   UNL     1       2.735  13.515  20.638  0.00  0.00    +0.000 C 
ATOM     21  N   UNL     1       1.535  13.499  19.837  0.00  0.00    +0.000 N 
ATOM     22  C   UNL     1       0.899  14.734  19.632  0.00  0.00    +0.000 C 
ATOM     23  O   UNL     1       1.404  15.818  19.885  0.00  0.00    +0.000 OA
ATOM     24  C   UNL     1      -0.558  14.642  19.199  0.00  0.00    +0.000 C 
ATOM     25  O   UNL     1      -0.986  13.522  18.460  0.00  0.00    +0.000 OA
ATOM     26  C   UNL     1      -0.306  12.369  18.751  0.00  0.00    +0.000 A 
ATOM     27  C   UNL     1      -0.957  11.230  18.270  0.00  0.00    +0.000 A 
ATOM     28  C   UNL     1      -0.380   9.968  18.418  0.00  0.00    +0.000 A 
ATOM     29  C   UNL     1       0.868   9.814  19.013  0.00  0.00    +0.000 A 
ATOM     30  C   UNL     1       1.531  10.987  19.482  0.00  0.00    +0.000 A 
ATOM     31  C   UNL     1       0.934  12.286  19.376  0.00  0.00    +0.000 A 
ENDBRANCH   1  29
TORSDOF 2
ENDMDL
MODEL 8
REMARK VINA RESULT:      -8.4      1.517      2.228
REMARK  Name = 
REMARK  3 active torsions:
REMARK  status: ('A' for Active; 'I' for Inactive)
REMARK    1  A    between atoms: C_1  and  N_2
REMARK    2  A    between atoms: C_10  and  N_11
REMARK    3  A    between atoms: N_14  and  C_15
REMARK                            x       y       z     vdW  Elec       q    Type
REMARK                         _______ _______ _______ _____ _____    ______ ____
ROOT
ATOM      1  N   UNL     1       2.127   8.505  18.728  0.00  0.00    +0.000 N 
ATOM      2  C   UNL     1       1.955   7.273  19.390  0.00  0.00    +0.000 C 
ATOM      3  O   UNL     1       1.459   7.089  20.476  0.00  0.00    +0.000 OA
ATOM      4  N   UNL     1       2.334   6.194  18.619  0.00  0.00    +0.000 N 
ATOM      5  H   UNL     1       2.707   8.516  17.906  0.00  0.00    +0.000 HD
ATOM      6  H   UNL     1       2.858   6.462  17.812  0.00  0.00    +0.000 HD
ENDROOT
BRANCH   4   7
ATOM      7  C   UNL     1       2.356   4.747  18.950  0.00  0.00    +0.000 C 
ATOM      8  C   UNL     1       3.527   4.518  19.890  0.00  0.00    +0.000 C 
ATOM      9  C   UNL     1       3.404   2.999  20.216  0.00  0.00    +0.000 C 
ATOM     10  C   UNL     1       2.454   2.395  19.153  0.00  0.00    +0.000 C 
ATOM     11  C   UNL     1       2.616   3.407  18.002  0.00  0.00    +0.000 C 
ATOM     12  C   UNL     1       4.083   2.884  17.376  0.00  0.00    +0.000 C 
ATOM     13  C   UNL     1       4.987   3.979  16.962  0.00  0.00    +0.000 A 
ATOM     14  C   UNL     1       6.088   4.102  16.143  0.00  0.00    +0.000 A 
ATOM     15  C   UNL     1       6.259   5.338  15.499  0.00  0.00    +0.000 A 
ATOM     16  C   UNL     1       5.217   6.249  15.609  0.00  0.00    +0.000 A 
ATOM     17  C   UNL     1       4.391   6.111  16.706  0.00  0.00    +0.000 A 
ATOM     18  C   UNL     1       4.732   5.126  17.606  0.00  0.00    +0.000 A 
ATOM     19  C   UNL     1       4.777   5.051  19.122  0.00  0.00    +0.000 C 
ENDBRANCH   4   7
BRANCH   1  29
ATOM     20  C   UNL     1      -0.729  10.298  22.917  0.00  0.00    +0.000 C 
ATOM     21  N   UNL     1      -0.310  11.384  22.065  0.00  0.00    +0.000 N 
ATOM     22  C   UNL     1      -0.730  12.672  22.434  0.00  0.00    +0.000 C 
ATOM     23  O   UNL     1      -1.216  12.952  23.520  0.00  0.00    +0.000 OA
ATOM     24  C   UNL     1      -0.679  13.708  21.320  0.00  0.00    +0.000 C 
ATOM     25  O   UNL     1       0.277  13.569  20.294  0.00  0.00    +0.000 OA
ATOM     26  C   UNL     1       0.600  12.269  20.008  0.00  0.00    +0.000 A 
ATOM     27  C   UNL     1       1.274  12.144  18.789  0.00  0.00    +0.000 A 
ATOM     28  C   UNL     1       1.740  10.900  18.362  0.00  0.00    +0.000 A 
ATOM     29  C   UNL     1       1.578   9.764  19.148  0.00  0.00    +0.000 A 
ATOM     30  C   UNL     1       0.906   9.909  20.398  0.00  0.00    +0.000 A 
ATOM     31  C   UNL     1       0.385  11.171  20.833  0.00  0.00    +0.000 A 
ENDBRANCH   1  29
TORSDOF 2
ENDMDL
MODEL 9
REMARK VINA RESULT:      -8.4      1.236      2.086
REMARK  Name = 
REMARK  3 active torsions:
REMARK  status: ('A' for Active; 'I' for Inactive)
REMARK    1  A    between atoms: C_1  and  N_2
REMARK    2  A    between atoms: C_10  and  N_11
REMARK    3  A    between atoms: N_14  and  C_15
REMARK                            x       y       z     vdW  Elec       q    Type
REMARK                         _______ _______ _______ _____ _____    ______ ____
ROOT
ATOM      1  N   UNL     1       2.370   7.779  19.236  0.00  0.00    +0.000 N 
ATOM      2  C   UNL     1       2.105   6.428  19.534  0.00  0.00    +0.000 C 
ATOM      3  O   UNL     1       1.162   5.985  20.147  0.00  0.00    +0.000 OA
ATOM      4  N   UNL     1       3.014   5.564  18.960  0.00  0.00    +0.000 N 
ATOM      5  H   UNL     1       3.277   8.005  18.867  0.00  0.00    +0.000 HD
ATOM      6  H   UNL     1       3.821   6.033  18.606  0.00  0.00    +0.000 HD
ENDROOT
BRANCH   4   7
ATOM      7  C   UNL     1       3.120   4.086  19.061  0.00  0.00    +0.000 C 
ATOM      8  C   UNL     1       4.465   3.775  19.695  0.00  0.00    +0.000 C 
ATOM      9  C   UNL     1       4.429   2.221  19.810  0.00  0.00    +0.000 C 
ATOM     10  C   UNL     1       3.284   1.736  18.888  0.00  0.00    +0.000 C 
ATOM     11  C   UNL     1       3.190   2.908  17.892  0.00  0.00    +0.000 C 
ATOM     12  C   UNL     1       4.499   2.541  16.907  0.00  0.00    +0.000 C 
ATOM     13  C   UNL     1       5.283   3.720  16.482  0.00  0.00    +0.000 A 
ATOM     14  C   UNL     1       6.186   4.005  15.482  0.00  0.00    +0.000 A 
ATOM     15  C   UNL     1       6.205   5.327  15.007  0.00  0.00    +0.000 A 
ATOM     16  C   UNL     1       5.200   6.168  15.462  0.00  0.00    +0.000 A 
ATOM     17  C   UNL     1       4.624   5.840  16.674  0.00  0.00    +0.000 A 
ATOM     18  C   UNL     1       5.157   4.752  17.327  0.00  0.00    +0.000 A 
ATOM     19  C   UNL     1       5.520   4.464  18.774  0.00  0.00    +0.000 C 
ENDBRANCH   4   7
BRANCH   1  29
ATOM     20  C   UNL     1      -0.391   9.787  23.392  0.00  0.00    +0.000 C 
ATOM     21  N   UNL     1      -0.493  10.640  22.233  0.00  0.00    +0.000 N 
ATOM     22  C   UNL     1      -1.291  11.787  22.364  0.00  0.00    +0.000 C 
ATOM     23  O   UNL     1      -1.706  12.218  23.430  0.00  0.00    +0.000 OA
ATOM     24  C   UNL     1      -1.751  12.405  21.050  0.00  0.00    +0.000 C 
ATOM     25  O   UNL     1      -0.943  12.261  19.904  0.00  0.00    +0.000 OA
ATOM     26  C   UNL     1      -0.219  11.099  19.875  0.00  0.00    +0.000 A 
ATOM     27  C   UNL     1       0.298  10.826  18.606  0.00  0.00    +0.000 A 
ATOM     28  C   UNL     1       1.117   9.714  18.398  0.00  0.00    +0.000 A 
ATOM     29  C   UNL     1       1.468   8.875  19.450  0.00  0.00    +0.000 A 
ATOM     30  C   UNL     1       0.949   9.177  20.744  0.00  0.00    +0.000 A 
ATOM     31  C   UNL     1       0.074  10.289  20.967  0.00  0.00    +0.000 A 
ENDBRANCH   1  29
TORSDOF 2
ENDMDL
