MODEL 1
REMARK VINA RESULT:      -8.8      0.000      0.000
REMARK  Name = 
REMARK  7 active torsions:
REMARK  status: ('A' for Active; 'I' for Inactive)
REMARK    1  A    between atoms: C_2  and  C_11
REMARK    2  A    between atoms: N_3  and  C_4
REMARK    3  A    between atoms: C_4  and  C_5
REMARK    4  A    between atoms: C_15  and  O_16
REMARK    5  A    between atoms: O_16  and  C_17
REMARK    6  A    between atoms: C_17  and  C_18
REMARK    7  A    between atoms: C_21  and  C_22
REMARK                            x       y       z     vdW  Elec       q    Type
REMARK                         _______ _______ _______ _____ _____    ______ ____
ROOT
ATOM      1  C   UNL     1       3.134   5.344  19.316  0.00  0.00    +0.000 A 
ATOM      2  C   UNL     1       2.705   4.720  18.138  0.00  0.00    +0.000 A 
ATOM      3  C   UNL     1       3.626   4.097  17.302  0.00  0.00    +0.000 A 
ATOM      4  C   UNL     1       4.982   4.100  17.634  0.00  0.00    +0.000 A 
ATOM      5  C   UNL     1       5.425   4.746  18.795  0.00  0.00    +0.000 A 
ATOM      6  C   UNL     1       4.494   5.342  19.654  0.00  0.00    +0.000 A 
ENDROOT
BRANCH   1   8
ATOM      7  O   UNL     1       1.190   5.235  20.623  0.00  0.00    +0.000 OA
ATOM      8  C   UNL     1       2.091   5.949  20.183  0.00  0.00    +0.000 C 
ATOM      9  N   UNL     1       2.166   7.301  20.425  0.00  0.00    +0.000 N 
ATOM     10  H   UNL     1       2.761   7.884  19.851  0.00  0.00    +0.000 HD
BRANCH   9  11
ATOM     11  C   UNL     1       1.094   7.943  21.158  0.00  0.00    +0.000 C 
BRANCH  11  12
ATOM     12  C   UNL     1       0.682   9.261  20.557  0.00  0.00    +0.000 A 
ATOM     13  C   UNL     1       0.040  10.233  21.332  0.00  0.00    +0.000 A 
ATOM     14  C   UNL     1      -0.247  11.492  20.798  0.00  0.00    +0.000 A 
ATOM     15  C   UNL     1       0.108  11.790  19.485  0.00  0.00    +0.000 A 
ATOM     16  C   UNL     1       0.740  10.825  18.699  0.00  0.00    +0.000 A 
ATOM     17  C   UNL     1       1.023   9.568  19.230  0.00  0.00    +0.000 A 
ENDBRANCH  11  12
ENDBRANCH   9  11
ENDBRANCH   1   8
BRANCH   5  18
ATOM     18  O   UNL     1       6.741   4.841  19.182  0.00  0.00    +0.000 OA
BRANCH  18  19
ATOM     19  C   UNL     1       7.656   5.170  18.126  0.00  0.00    +0.000 C 
BRANCH  19  20
ATOM     20  C   UNL     1       7.575   6.627  17.846  0.00  0.00    +0.000 A 
ATOM     21  N   UNL     1       6.835   7.238  16.945  0.00  0.00    +0.000 NA
ATOM     22  N   UNL     1       7.152   8.576  17.017  0.00  0.00    +0.000 NA
ATOM     23  C   UNL     1       8.064   8.698  17.959  0.00  0.00    +0.000 A 
ATOM     24  O   UNL     1       8.403   7.487  18.522  0.00  0.00    +0.000 OA
BRANCH  23  25
ATOM     25  C   UNL     1       8.689   9.902  18.494  0.00  0.00    +0.000 A 
ATOM     26  C   UNL     1       8.624  11.110  17.776  0.00  0.00    +0.000 A 
ATOM     27  C   UNL     1       9.146  12.294  18.311  0.00  0.00    +0.000 A 
ATOM     28  C   UNL     1       9.744  12.276  19.569  0.00  0.00    +0.000 A 
ATOM     29 CL   UNL     1      10.351  13.733  20.254  0.00  0.00    +0.000 Cl
ATOM     30  C   UNL     1       9.845  11.084  20.283  0.00  0.00    +0.000 A 
ATOM     31  C   UNL     1       9.323   9.903  19.747  0.00  0.00    +0.000 A 
ENDBRANCH  23  25
ENDBRANCH  19  20
ENDBRANCH  18  19
ENDBRANCH   5  18
TORSDOF 7
ENDMDL
MODEL 2
REMARK VINA RESULT:      -8.6      1.305      1.763
REMARK  Name = 
REMARK  7 active torsions:
REMARK  status: ('A' for Active; 'I' for Inactive)
REMARK    1  A    between atoms: C_2  and  C_11
REMARK    2  A    between atoms: N_3  and  C_4
REMARK    3  A    between atoms: C_4  and  C_5
REMARK    4  A    between atoms: C_15  and  O_16
REMARK    5  A    between atoms: O_16  and  C_17
REMARK    6  A    between atoms: C_17  and  C_18
REMARK    7  A    between atoms: C_21  and  C_22
REMARK                            x       y       z     vdW  Elec       q    Type
REMARK                         _______ _______ _______ _____ _____    ______ ____
ROOT
ATOM      1  C   UNL     1       3.244   6.501  18.436  0.00  0.00    +0.000 A 
ATOM      2  C   UNL     1       2.651   5.323  17.966  0.00  0.00    +0.000 A 
ATOM      3  C   UNL     1       3.321   4.109  18.080  0.00  0.00    +0.000 A 
ATOM      4  C   UNL     1       4.592   4.066  18.657  0.00  0.00    +0.000 A 
ATOM      5  C   UNL     1       5.206   5.243  19.104  0.00  0.00    +0.000 A 
ATOM      6  C   UNL     1       4.516   6.458  19.022  0.00  0.00    +0.000 A 
ENDROOT
BRANCH   1   8
ATOM      7  O   UNL     1       2.424   8.347  17.247  0.00  0.00    +0.000 OA
ATOM      8  C   UNL     1       2.452   7.752  18.323  0.00  0.00    +0.000 C 
ATOM      9  N   UNL     1       1.809   8.207  19.452  0.00  0.00    +0.000 N 
ATOM     10  H   UNL     1       2.059   7.835  20.358  0.00  0.00    +0.000 HD
BRANCH   9  11
ATOM     11  C   UNL     1       1.137   9.488  19.408  0.00  0.00    +0.000 C 
BRANCH  11  12
ATOM     12  C   UNL     1       0.508   9.865  20.723  0.00  0.00    +0.000 A 
ATOM     13  C   UNL     1      -0.190  11.069  20.867  0.00  0.00    +0.000 A 
ATOM     14  C   UNL     1      -0.859  11.365  22.056  0.00  0.00    +0.000 A 
ATOM     15  C   UNL     1      -0.837  10.459  23.113  0.00  0.00    +0.000 A 
ATOM     16  C   UNL     1      -0.136   9.259  22.986  0.00  0.00    +0.000 A 
ATOM     17  C   UNL     1       0.535   8.964  21.800  0.00  0.00    +0.000 A 
ENDBRANCH  11  12
ENDBRANCH   9  11
ENDBRANCH   1   8
BRANCH   5  18
ATOM     18  O   UNL     1       6.468   5.308  19.644  0.00  0.00    +0.000 OA
BRANCH  18  19
ATOM     19  C   UNL     1       7.532   5.345  18.682  0.00  0.00    +0.000 C 
BRANCH  19  20
ATOM     20  C   UNL     1       7.666   6.728  18.155  0.00  0.00    +0.000 A 
ATOM     21  N   UNL     1       7.260   7.194  16.992  0.00  0.00    +0.000 NA
ATOM     22  N   UNL     1       7.667   8.508  16.931  0.00  0.00    +0.000 NA
ATOM     23  C   UNL     1       8.293   8.763  18.062  0.00  0.00    +0.000 A 
ATOM     24  O   UNL     1       8.352   7.663  18.889  0.00  0.00    +0.000 OA
BRANCH  23  25
ATOM     25  C   UNL     1       8.855  10.017  18.548  0.00  0.00    +0.000 A 
ATOM     26  C   UNL     1       8.707  11.196  17.794  0.00  0.00    +0.000 A 
ATOM     27  C   UNL     1       9.167  12.425  18.284  0.00  0.00    +0.000 A 
ATOM     28  C   UNL     1       9.787  12.482  19.530  0.00  0.00    +0.000 A 
ATOM     29 CL   UNL     1      10.318  13.993  20.158  0.00  0.00    +0.000 Cl
ATOM     30  C   UNL     1       9.970  11.321  20.277  0.00  0.00    +0.000 A 
ATOM     31  C   UNL     1       9.509  10.095  19.788  0.00  0.00    +0.000 A 
ENDBRANCH  23  25
ENDBRANCH  19  20
ENDBRANCH  18  19
ENDBRANCH   5  18
TORSDOF 7
ENDMDL
MODEL 3
REMARK VINA RESULT:      -8.5      3.918      8.381
REMARK  Name = 
REMARK  7 active torsions:
REMARK  status: ('A' for Active; 'I' for Inactive)
REMARK    1  A    between atoms: C_2  and  C_11
REMARK    2  A    between atoms: N_3  and  C_4
REMARK    3  A    between atoms: C_4  and  C_5
REMARK    4  A    between atoms: C_15  and  O_16
REMARK    5  A    between atoms: O_16  and  C_17
REMARK    6  A    between atoms: C_17  and  C_18
REMARK    7  A    between atoms: C_21  and  C_22
REMARK                            x       y       z     vdW  Elec       q    Type
REMARK                         _______ _______ _______ _____ _____    ______ ____
ROOT
ATOM      1  C   UNL     1       6.518   5.502  16.551  0.00  0.00    +0.000 A 
ATOM      2  C   UNL     1       7.371   6.371  17.243  0.00  0.00    +0.000 A 
ATOM      3  C   UNL     1       7.514   6.260  18.622  0.00  0.00    +0.000 A 
ATOM      4  C   UNL     1       6.800   5.284  19.320  0.00  0.00    +0.000 A 
ATOM      5  C   UNL     1       5.923   4.428  18.642  0.00  0.00    +0.000 A 
ATOM      6  C   UNL     1       5.806   4.517  17.250  0.00  0.00    +0.000 A 
ENDROOT
BRANCH   1   8
ATOM      7  O   UNL     1       5.486   6.229  14.576  0.00  0.00    +0.000 OA
ATOM      8  C   UNL     1       6.450   5.649  15.075  0.00  0.00    +0.000 C 
ATOM      9  N   UNL     1       7.462   5.090  14.329  0.00  0.00    +0.000 N 
ATOM     10  H   UNL     1       8.087   4.417  14.751  0.00  0.00    +0.000 HD
BRANCH   9  11
ATOM     11  C   UNL     1       7.357   5.104  12.885  0.00  0.00    +0.000 C 
BRANCH  11  12
ATOM     12  C   UNL     1       6.801   3.821  12.326  0.00  0.00    +0.000 A 
ATOM     13  C   UNL     1       5.426   3.561  12.356  0.00  0.00    +0.000 A 
ATOM     14  C   UNL     1       4.906   2.418  11.745  0.00  0.00    +0.000 A 
ATOM     15  C   UNL     1       5.755   1.525  11.098  0.00  0.00    +0.000 A 
ATOM     16  C   UNL     1       7.129   1.767  11.071  0.00  0.00    +0.000 A 
ATOM     17  C   UNL     1       7.650   2.906  11.683  0.00  0.00    +0.000 A 
ENDBRANCH  11  12
ENDBRANCH   9  11
ENDBRANCH   1   8
BRANCH   5  18
ATOM     18  O   UNL     1       5.147   3.468  19.246  0.00  0.00    +0.000 OA
BRANCH  18  19
ATOM     19  C   UNL     1       3.770   3.465  18.840  0.00  0.00    +0.000 C 
BRANCH  19  20
ATOM     20  C   UNL     1       3.044   4.539  19.566  0.00  0.00    +0.000 A 
ATOM     21  N   UNL     1       2.468   4.470  20.749  0.00  0.00    +0.000 NA
ATOM     22  N   UNL     1       1.869   5.691  20.966  0.00  0.00    +0.000 NA
ATOM     23  C   UNL     1       2.119   6.429  19.905  0.00  0.00    +0.000 A 
ATOM     24  O   UNL     1       2.849   5.751  18.953  0.00  0.00    +0.000 OA
BRANCH  23  25
ATOM     25  C   UNL     1       1.785   7.825  19.646  0.00  0.00    +0.000 A 
ATOM     26  C   UNL     1       2.058   8.394  18.389  0.00  0.00    +0.000 A 
ATOM     27  C   UNL     1       1.669   9.707  18.095  0.00  0.00    +0.000 A 
ATOM     28  C   UNL     1       1.010  10.464  19.062  0.00  0.00    +0.000 A 
ATOM     29 CL   UNL     1       0.492  12.063  18.696  0.00  0.00    +0.000 Cl
ATOM     30  C   UNL     1       0.757   9.927  20.322  0.00  0.00    +0.000 A 
ATOM     31  C   UNL     1       1.145   8.616  20.613  0.00  0.00    +0.000 A 
ENDBRANCH  23  25
ENDBRANCH  19  20
ENDBRANCH  18  19
ENDBRANCH   5  18
TORSDOF 7
ENDMDL
MODEL 4
REMARK VINA RESULT:      -8.3      1.290      1.750
REMARK  Name = 
REMARK  7 active torsions:
REMARK  status: ('A' for Active; 'I' for Inactive)
REMARK    1  A    between atoms: C_2  and  C_11
REMARK    2  A    between atoms: N_3  and  C_4
REMARK    3  A    between atoms: C_4  and  C_5
REMARK    4  A    between atoms: C_15  and  O_16
REMARK    5  A    between atoms: O_16  and  C_17
REMARK    6  A    between atoms: C_17  and  C_18
REMARK    7  A    between atoms: C_21  and  C_22
REMARK                            x       y       z     vdW  Elec       q    Type
REMARK                         _______ _______ _______ _____ _____    ______ ____
ROOT
ATOM      1  C   UNL     1       4.371   4.687  17.516  0.00  0.00    +0.000 A 
ATOM      2  C   UNL     1       4.194   4.133  16.242  0.00  0.00    +0.000 A 
ATOM      3  C   UNL     1       5.299   3.812  15.460  0.00  0.00    +0.000 A 
ATOM      4  C   UNL     1       6.588   4.051  15.943  0.00  0.00    +0.000 A 
ATOM      5  C   UNL     1       6.775   4.632  17.203  0.00  0.00    +0.000 A 
ATOM      6  C   UNL     1       5.663   4.922  18.004  0.00  0.00    +0.000 A 
ENDROOT
BRANCH   1   8
ATOM      7  O   UNL     1       2.085   4.442  17.975  0.00  0.00    +0.000 OA
ATOM      8  C   UNL     1       3.148   4.962  18.312  0.00  0.00    +0.000 C 
ATOM      9  N   UNL     1       3.260   5.823  19.380  0.00  0.00    +0.000 N 
ATOM     10  H   UNL     1       4.076   6.414  19.467  0.00  0.00    +0.000 HD
BRANCH   9  11
ATOM     11  C   UNL     1       2.063   6.212  20.096  0.00  0.00    +0.000 C 
BRANCH  11  12
ATOM     12  C   UNL     1       1.660   7.639  19.831  0.00  0.00    +0.000 A 
ATOM     13  C   UNL     1       1.107   8.428  20.846  0.00  0.00    +0.000 A 
ATOM     14  C   UNL     1       0.832   9.779  20.624  0.00  0.00    +0.000 A 
ATOM     15  C   UNL     1       1.109  10.353  19.386  0.00  0.00    +0.000 A 
ATOM     16  C   UNL     1       1.650   9.574  18.363  0.00  0.00    +0.000 A 
ATOM     17  C   UNL     1       1.922   8.225  18.583  0.00  0.00    +0.000 A 
ENDBRANCH  11  12
ENDBRANCH   9  11
ENDBRANCH   1   8
BRANCH   5  18
ATOM     18  O   UNL     1       7.998   4.946  17.744  0.00  0.00    +0.000 OA
BRANCH  18  19
ATOM     19  C   UNL     1       7.949   5.840  18.865  0.00  0.00    +0.000 C 
BRANCH  19  20
ATOM     20  C   UNL     1       8.055   7.240  18.378  0.00  0.00    +0.000 A 
ATOM     21  N   UNL     1       7.619   7.736  17.239  0.00  0.00    +0.000 NA
ATOM     22  N   UNL     1       8.010   9.056  17.209  0.00  0.00    +0.000 NA
ATOM     23  C   UNL     1       8.658   9.284  18.333  0.00  0.00    +0.000 A 
ATOM     24  O   UNL     1       8.748   8.160  19.125  0.00  0.00    +0.000 OA
BRANCH  23  25
ATOM     25  C   UNL     1       9.217  10.530  18.845  0.00  0.00    +0.000 A 
ATOM     26  C   UNL     1       9.408  11.625  17.982  0.00  0.00    +0.000 A 
ATOM     27  C   UNL     1       9.865  12.854  18.472  0.00  0.00    +0.000 A 
ATOM     28  C   UNL     1      10.142  12.995  19.830  0.00  0.00    +0.000 A 
ATOM     29 CL   UNL     1      10.665  14.513  20.448  0.00  0.00    +0.000 Cl
ATOM     30  C   UNL     1       9.988  11.914  20.694  0.00  0.00    +0.000 A 
ATOM     31  C   UNL     1       9.530  10.688  20.204  0.00  0.00    +0.000 A 
ENDBRANCH  23  25
ENDBRANCH  19  20
ENDBRANCH  18  19
ENDBRANCH   5  18
TORSDOF 7
ENDMDL
MODEL 5
REMARK VINA RESULT:      -8.2      3.243      4.193
REMARK  Name = 
REMARK  7 active torsions:
REMARK  status: ('A' for Active; 'I' for Inactive)
REMARK    1  A    between atoms: C_2  and  C_11
REMARK    2  A    between atoms: N_3  and  C_4
REMARK    3  A    between atoms: C_4  and  C_5
REMARK    4  A    between atoms: C_15  and  O_16
REMARK    5  A    between atoms: O_16  and  C_17
REMARK    6  A    between atoms: C_17  and  C_18
REMARK    7  A    between atoms: C_21  and  C_22
REMARK                            x       y       z     vdW  Elec       q    Type
REMARK                         _______ _______ _______ _____ _____    ______ ____
ROOT
ATOM      1  C   UNL     1       4.859   4.172  16.422  0.00  0.00    +0.000 A 
ATOM      2  C   UNL     1       4.946   4.114  15.026  0.00  0.00    +0.000 A 
ATOM      3  C   UNL     1       6.162   4.341  14.390  0.00  0.00    +0.000 A 
ATOM      4  C   UNL     1       7.299   4.635  15.146  0.00  0.00    +0.000 A 
ATOM      5  C   UNL     1       7.217   4.724  16.541  0.00  0.00    +0.000 A 
ATOM      6  C   UNL     1       6.001   4.461  17.182  0.00  0.00    +0.000 A 
ENDROOT
BRANCH   1   8
ATOM      7  O   UNL     1       3.141   2.711  17.061  0.00  0.00    +0.000 OA
ATOM      8  C   UNL     1       3.539   3.875  17.034  0.00  0.00    +0.000 C 
ATOM      9  N   UNL     1       2.804   4.934  17.514  0.00  0.00    +0.000 N 
ATOM     10  H   UNL     1       3.048   5.879  17.249  0.00  0.00    +0.000 HD
BRANCH   9  11
ATOM     11  C   UNL     1       1.461   4.692  17.998  0.00  0.00    +0.000 C 
BRANCH  11  12
ATOM     12  C   UNL     1       1.436   4.078  19.373  0.00  0.00    +0.000 A 
ATOM     13  C   UNL     1       0.765   2.873  19.609  0.00  0.00    +0.000 A 
ATOM     14  C   UNL     1       0.832   2.255  20.859  0.00  0.00    +0.000 A 
ATOM     15  C   UNL     1       1.571   2.836  21.886  0.00  0.00    +0.000 A 
ATOM     16  C   UNL     1       2.236   4.043  21.666  0.00  0.00    +0.000 A 
ATOM     17  C   UNL     1       2.167   4.662  20.420  0.00  0.00    +0.000 A 
ENDBRANCH  11  12
ENDBRANCH   9  11
ENDBRANCH   1   8
BRANCH   5  18
ATOM     18  O   UNL     1       8.268   5.050  17.365  0.00  0.00    +0.000 OA
BRANCH  18  19
ATOM     19  C   UNL     1       7.901   5.776  18.548  0.00  0.00    +0.000 C 
BRANCH  19  20
ATOM     20  C   UNL     1       7.865   7.229  18.238  0.00  0.00    +0.000 A 
ATOM     21  N   UNL     1       7.073   7.857  17.394  0.00  0.00    +0.000 NA
ATOM     22  N   UNL     1       7.459   9.178  17.401  0.00  0.00    +0.000 NA
ATOM     23  C   UNL     1       8.461   9.275  18.251  0.00  0.00    +0.000 A 
ATOM     24  O   UNL     1       8.793   8.061  18.812  0.00  0.00    +0.000 OA
BRANCH  23  25
ATOM     25  C   UNL     1       9.190  10.457  18.694  0.00  0.00    +0.000 A 
ATOM     26  C   UNL     1       9.168  10.832  20.050  0.00  0.00    +0.000 A 
ATOM     27  C   UNL     1       9.928  11.915  20.509  0.00  0.00    +0.000 A 
ATOM     28  C   UNL     1      10.711  12.637  19.611  0.00  0.00    +0.000 A 
ATOM     29 CL   UNL     1      11.680  13.943  20.172  0.00  0.00    +0.000 Cl
ATOM     30  C   UNL     1      10.722  12.300  18.260  0.00  0.00    +0.000 A 
ATOM     31  C   UNL     1       9.963  11.218  17.804  0.00  0.00    +0.000 A 
ENDBRANCH  23  25
ENDBRANCH  19  20
ENDBRANCH  18  19
ENDBRANCH   5  18
TORSDOF 7
ENDMDL
MODEL 6
REMARK VINA RESULT:      -8.1      2.342      2.750
REMARK  Name = 
REMARK  7 active torsions:
REMARK  status: ('A' for Active; 'I' for Inactive)
REMARK    1  A    between atoms: C_2  and  C_11
REMARK    2  A    between atoms: N_3  and  C_4
REMARK    3  A    between atoms: C_4  and  C_5
REMARK    4  A    between atoms: C_15  and  O_16
REMARK    5  A    between atoms: O_16  and  C_17
REMARK    6  A    between atoms: C_17  and  C_18
REMARK    7  A    between atoms: C_21  and  C_22
REMARK                            x       y       z     vdW  Elec       q    Type
REMARK                         _______ _______ _______ _____ _____    ______ ____
ROOT
ATOM      1  C   UNL     1       2.715   7.827  17.858  0.00  0.00    +0.000 A 
ATOM      2  C   UNL     1       2.212   6.648  18.421  0.00  0.00    +0.000 A 
ATOM      3  C   UNL     1       2.850   5.434  18.187  0.00  0.00    +0.000 A 
ATOM      4  C   UNL     1       3.991   5.390  17.382  0.00  0.00    +0.000 A 
ATOM      5  C   UNL     1       4.485   6.559  16.790  0.00  0.00    +0.000 A 
ATOM      6  C   UNL     1       3.863   7.785  17.056  0.00  0.00    +0.000 A 
ENDROOT
BRANCH   1   8
ATOM      7  O   UNL     1       2.322  10.123  17.594  0.00  0.00    +0.000 OA
ATOM      8  C   UNL     1       2.010   9.092  18.188  0.00  0.00    +0.000 C 
ATOM      9  N   UNL     1       1.055   9.052  19.178  0.00  0.00    +0.000 N 
ATOM     10  H   UNL     1       1.010   8.259  19.803  0.00  0.00    +0.000 HD
BRANCH   9  11
ATOM     11  C   UNL     1       0.443  10.291  19.611  0.00  0.00    +0.000 C 
BRANCH  11  12
ATOM     12  C   UNL     1      -0.830  10.605  18.870  0.00  0.00    +0.000 A 
ATOM     13  C   UNL     1      -1.197   9.876  17.733  0.00  0.00    +0.000 A 
ATOM     14  C   UNL     1      -2.426  10.103  17.111  0.00  0.00    +0.000 A 
ATOM     15  C   UNL     1      -3.300  11.058  17.621  0.00  0.00    +0.000 A 
ATOM     16  C   UNL     1      -2.942  11.799  18.747  0.00  0.00    +0.000 A 
ATOM     17  C   UNL     1      -1.714  11.576  19.367  0.00  0.00    +0.000 A 
ENDBRANCH  11  12
ENDBRANCH   9  11
ENDBRANCH   1   8
BRANCH   5  18
ATOM     18  O   UNL     1       5.571   6.610  15.950  0.00  0.00    +0.000 OA
BRANCH  18  19
ATOM     19  C   UNL     1       6.723   5.889  16.412  0.00  0.00    +0.000 C 
BRANCH  19  20
ATOM     20  C   UNL     1       7.457   6.722  17.399  0.00  0.00    +0.000 A 
ATOM     21  N   UNL     1       7.928   6.358  18.574  0.00  0.00    +0.000 NA
ATOM     22  N   UNL     1       8.467   7.488  19.149  0.00  0.00    +0.000 NA
ATOM     23  C   UNL     1       8.294   8.469  18.288  0.00  0.00    +0.000 A 
ATOM     24  O   UNL     1       7.633   8.060  17.150  0.00  0.00    +0.000 OA
BRANCH  23  25
ATOM     25  C   UNL     1       8.743   9.855  18.359  0.00  0.00    +0.000 A 
ATOM     26  C   UNL     1       8.141  10.834  17.546  0.00  0.00    +0.000 A 
ATOM     27  C   UNL     1       8.501  12.182  17.660  0.00  0.00    +0.000 A 
ATOM     28  C   UNL     1       9.473  12.561  18.583  0.00  0.00    +0.000 A 
ATOM     29 CL   UNL     1       9.892  14.220  18.759  0.00  0.00    +0.000 Cl
ATOM     30  C   UNL     1      10.101  11.603  19.374  0.00  0.00    +0.000 A 
ATOM     31  C   UNL     1       9.740  10.257  19.261  0.00  0.00    +0.000 A 
ENDBRANCH  23  25
ENDBRANCH  19  20
ENDBRANCH  18  19
ENDBRANCH   5  18
TORSDOF 7
ENDMDL
MODEL 7
REMARK VINA RESULT:      -8.1      4.634      8.636
REMARK  Name = 
REMARK  7 active torsions:
REMARK  status: ('A' for Active; 'I' for Inactive)
REMARK    1  A    between atoms: C_2  and  C_11
REMARK    2  A    between atoms: N_3  and  C_4
REMARK    3  A    between atoms: C_4  and  C_5
REMARK    4  A    between atoms: C_15  and  O_16
REMARK    5  A    between atoms: O_16  and  C_17
REMARK    6  A    between atoms: C_17  and  C_18
REMARK    7  A    between atoms: C_21  and  C_22
REMARK                            x       y       z     vdW  Elec       q    Type
REMARK                         _______ _______ _______ _____ _____    ______ ____
ROOT
ATOM      1  C   UNL     1       3.696   4.482  17.648  0.00  0.00    +0.000 A 
ATOM      2  C   UNL     1       3.368   3.180  17.250  0.00  0.00    +0.000 A 
ATOM      3  C   UNL     1       2.274   2.530  17.812  0.00  0.00    +0.000 A 
ATOM      4  C   UNL     1       1.504   3.176  18.783  0.00  0.00    +0.000 A 
ATOM      5  C   UNL     1       1.840   4.467  19.209  0.00  0.00    +0.000 A 
ATOM      6  C   UNL     1       2.920   5.133  18.617  0.00  0.00    +0.000 A 
ENDROOT
BRANCH   1   8
ATOM      7  O   UNL     1       4.794   6.331  16.716  0.00  0.00    +0.000 OA
ATOM      8  C   UNL     1       4.848   5.129  16.972  0.00  0.00    +0.000 C 
ATOM      9  N   UNL     1       5.919   4.335  16.631  0.00  0.00    +0.000 N 
ATOM     10  H   UNL     1       5.819   3.328  16.630  0.00  0.00    +0.000 HD
BRANCH   9  11
ATOM     11  C   UNL     1       7.000   4.909  15.858  0.00  0.00    +0.000 C 
BRANCH  11  12
ATOM     12  C   UNL     1       6.874   4.634  14.382  0.00  0.00    +0.000 A 
ATOM     13  C   UNL     1       7.736   5.241  13.463  0.00  0.00    +0.000 A 
ATOM     14  C   UNL     1       7.682   4.904  12.108  0.00  0.00    +0.000 A 
ATOM     15  C   UNL     1       6.765   3.957  11.662  0.00  0.00    +0.000 A 
ATOM     16  C   UNL     1       5.892   3.352  12.567  0.00  0.00    +0.000 A 
ATOM     17  C   UNL     1       5.944   3.690  13.918  0.00  0.00    +0.000 A 
ENDBRANCH  11  12
ENDBRANCH   9  11
ENDBRANCH   1   8
BRANCH   5  18
ATOM     18  O   UNL     1       1.172   5.164  20.186  0.00  0.00    +0.000 OA
BRANCH  18  19
ATOM     19  C   UNL     1       1.968   6.133  20.884  0.00  0.00    +0.000 C 
BRANCH  19  20
ATOM     20  C   UNL     1       1.506   7.498  20.521  0.00  0.00    +0.000 A 
ATOM     21  N   UNL     1       1.830   8.207  19.460  0.00  0.00    +0.000 NA
ATOM     22  N   UNL     1       1.208   9.428  19.598  0.00  0.00    +0.000 NA
ATOM     23  C   UNL     1       0.542   9.387  20.733  0.00  0.00    +0.000 A 
ATOM     24  O   UNL     1       0.702   8.189  21.394  0.00  0.00    +0.000 OA
BRANCH  23  25
ATOM     25  C   UNL     1      -0.347  10.381  21.323  0.00  0.00    +0.000 A 
ATOM     26  C   UNL     1      -0.958  11.352  20.509  0.00  0.00    +0.000 A 
ATOM     27  C   UNL     1      -1.879  12.262  21.044  0.00  0.00    +0.000 A 
ATOM     28  C   UNL     1      -2.187  12.213  22.401  0.00  0.00    +0.000 A 
ATOM     29 CL   UNL     1      -3.347  13.300  23.059  0.00  0.00    +0.000 Cl
ATOM     30  C   UNL     1      -1.570  11.278  23.229  0.00  0.00    +0.000 A 
ATOM     31  C   UNL     1      -0.652  10.370  22.693  0.00  0.00    +0.000 A 
ENDBRANCH  23  25
ENDBRANCH  19  20
ENDBRANCH  18  19
ENDBRANCH   5  18
TORSDOF 7
ENDMDL
MODEL 8
REMARK VINA RESULT:      -8.1      2.039      2.561
REMARK  Name = 
REMARK  7 active torsions:
REMARK  status: ('A' for Active; 'I' for Inactive)
REMARK    1  A    between atoms: C_2  and  C_11
REMARK    2  A    between atoms: N_3  and  C_4
REMARK    3  A    between atoms: C_4  and  C_5
REMARK    4  A    between atoms: C_15  and  O_16
REMARK    5  A    between atoms: O_16  and  C_17
REMARK    6  A    between atoms: C_17  and  C_18
REMARK    7  A    between atoms: C_21  and  C_22
REMARK                            x       y       z     vdW  Elec       q    Type
REMARK                         _______ _______ _______ _____ _____    ______ ____
ROOT
ATOM      1  C   UNL     1       2.617   7.332  18.676  0.00  0.00    +0.000 A 
ATOM      2  C   UNL     1       2.472   6.110  19.346  0.00  0.00    +0.000 A 
ATOM      3  C   UNL     1       3.212   5.002  18.947  0.00  0.00    +0.000 A 
ATOM      4  C   UNL     1       4.097   5.105  17.871  0.00  0.00    +0.000 A 
ATOM      5  C   UNL     1       4.228   6.314  17.177  0.00  0.00    +0.000 A 
ATOM      6  C   UNL     1       3.509   7.438  17.601  0.00  0.00    +0.000 A 
ENDROOT
BRANCH   1   8
ATOM      7  O   UNL     1       1.462   8.484  20.359  0.00  0.00    +0.000 OA
ATOM      8  C   UNL     1       1.830   8.483  19.185  0.00  0.00    +0.000 C 
ATOM      9  N   UNL     1       1.517   9.486  18.297  0.00  0.00    +0.000 N 
ATOM     10  H   UNL     1       1.616   9.329  17.303  0.00  0.00    +0.000 HD
BRANCH   9  11
ATOM     11  C   UNL     1       0.642  10.557  18.729  0.00  0.00    +0.000 C 
BRANCH  11  12
ATOM     12  C   UNL     1       1.388  11.821  19.068  0.00  0.00    +0.000 A 
ATOM     13  C   UNL     1       1.273  12.403  20.335  0.00  0.00    +0.000 A 
ATOM     14  C   UNL     1       2.045  13.515  20.678  0.00  0.00    +0.000 A 
ATOM     15  C   UNL     1       2.940  14.054  19.757  0.00  0.00    +0.000 A 
ATOM     16  C   UNL     1       3.056  13.488  18.487  0.00  0.00    +0.000 A 
ATOM     17  C   UNL     1       2.284  12.380  18.143  0.00  0.00    +0.000 A 
ENDBRANCH  11  12
ENDBRANCH   9  11
ENDBRANCH   1   8
BRANCH   5  18
ATOM     18  O   UNL     1       5.037   6.501  16.082  0.00  0.00    +0.000 OA
BRANCH  18  19
ATOM     19  C   UNL     1       6.323   5.870  16.169  0.00  0.00    +0.000 C 
BRANCH  19  20
ATOM     20  C   UNL     1       7.154   6.589  17.169  0.00  0.00    +0.000 A 
ATOM     21  N   UNL     1       7.731   6.098  18.246  0.00  0.00    +0.000 NA
ATOM     22  N   UNL     1       8.331   7.158  18.889  0.00  0.00    +0.000 NA
ATOM     23  C   UNL     1       8.084   8.229  18.163  0.00  0.00    +0.000 A 
ATOM     24  O   UNL     1       7.316   7.947  17.054  0.00  0.00    +0.000 OA
BRANCH  23  25
ATOM     25  C   UNL     1       8.548   9.599  18.345  0.00  0.00    +0.000 A 
ATOM     26  C   UNL     1       9.522   9.892  19.317  0.00  0.00    +0.000 A 
ATOM     27  C   UNL     1      10.039  11.186  19.450  0.00  0.00    +0.000 A 
ATOM     28  C   UNL     1       9.579  12.201  18.615  0.00  0.00    +0.000 A 
ATOM     29 CL   UNL     1      10.238  13.785  18.743  0.00  0.00    +0.000 Cl
ATOM     30  C   UNL     1       8.594  11.938  17.667  0.00  0.00    +0.000 A 
ATOM     31  C   UNL     1       8.079  10.645  17.534  0.00  0.00    +0.000 A 
ENDBRANCH  23  25
ENDBRANCH  19  20
ENDBRANCH  18  19
ENDBRANCH   5  18
TORSDOF 7
ENDMDL
MODEL 9
REMARK VINA RESULT:      -8.0      1.699      1.999
REMARK  Name = 
REMARK  7 active torsions:
REMARK  status: ('A' for Active; 'I' for Inactive)
REMARK    1  A    between atoms: C_2  and  C_11
REMARK    2  A    between atoms: N_3  and  C_4
REMARK    3  A    between atoms: C_4  and  C_5
REMARK    4  A    between atoms: C_15  and  O_16
REMARK    5  A    between atoms: O_16  and  C_17
REMARK    6  A    between atoms: C_17  and  C_18
REMARK    7  A    between atoms: C_21  and  C_22
REMARK                            x       y       z     vdW  Elec       q    Type
REMARK                         _______ _______ _______ _____ _____    ______ ____
ROOT
ATOM      1  C   UNL     1       2.669   6.389  18.463  0.00  0.00    +0.000 A 
ATOM      2  C   UNL     1       1.845   5.273  18.274  0.00  0.00    +0.000 A 
ATOM      3  C   UNL     1       2.317   4.164  17.579  0.00  0.00    +0.000 A 
ATOM      4  C   UNL     1       3.615   4.167  17.062  0.00  0.00    +0.000 A 
ATOM      5  C   UNL     1       4.437   5.290  17.220  0.00  0.00    +0.000 A 
ATOM      6  C   UNL     1       3.973   6.391  17.950  0.00  0.00    +0.000 A 
ENDROOT
BRANCH   1   8
ATOM      7  O   UNL     1       1.955   7.378  20.465  0.00  0.00    +0.000 OA
ATOM      8  C   UNL     1       2.114   7.518  19.253  0.00  0.00    +0.000 C 
ATOM      9  N   UNL     1       1.769   8.664  18.575  0.00  0.00    +0.000 N 
ATOM     10  H   UNL     1       1.679   8.647  17.568  0.00  0.00    +0.000 HD
BRANCH   9  11
ATOM     11  C   UNL     1       1.106   9.732  19.295  0.00  0.00    +0.000 C 
BRANCH  11  12
ATOM     12  C   UNL     1      -0.117  10.246  18.583  0.00  0.00    +0.000 A 
ATOM     13  C   UNL     1      -0.529  11.575  18.733  0.00  0.00    +0.000 A 
ATOM     14  C   UNL     1      -1.602  12.074  17.992  0.00  0.00    +0.000 A 
ATOM     15  C   UNL     1      -2.272  11.249  17.092  0.00  0.00    +0.000 A 
ATOM     16  C   UNL     1      -1.877   9.919  16.941  0.00  0.00    +0.000 A 
ATOM     17  C   UNL     1      -0.809   9.420  17.683  0.00  0.00    +0.000 A 
ENDBRANCH  11  12
ENDBRANCH   9  11
ENDBRANCH   1   8
BRANCH   5  18
ATOM     18  O   UNL     1       5.708   5.404  16.711  0.00  0.00    +0.000 OA
BRANCH  18  19
ATOM     19  C   UNL     1       6.087   6.735  16.332  0.00  0.00    +0.000 C 
BRANCH  19  20
ATOM     20  C   UNL     1       7.096   7.249  17.295  0.00  0.00    +0.000 A 
ATOM     21  N   UNL     1       7.757   6.574  18.213  0.00  0.00    +0.000 NA
ATOM     22  N   UNL     1       8.522   7.489  18.899  0.00  0.00    +0.000 NA
ATOM     23  C   UNL     1       8.283   8.665  18.357  0.00  0.00    +0.000 A 
ATOM     24  O   UNL     1       7.361   8.595  17.335  0.00  0.00    +0.000 OA
BRANCH  23  25
ATOM     25  C   UNL     1       8.884   9.961  18.649  0.00  0.00    +0.000 A 
ATOM     26  C   UNL     1       8.926  10.959  17.658  0.00  0.00    +0.000 A 
ATOM     27  C   UNL     1       9.424  12.236  17.945  0.00  0.00    +0.000 A 
ATOM     28  C   UNL     1       9.892  12.522  19.225  0.00  0.00    +0.000 A 
ATOM     29 CL   UNL     1      10.468  14.100  19.598  0.00  0.00    +0.000 Cl
ATOM     30  C   UNL     1       9.887  11.538  20.211  0.00  0.00    +0.000 A 
ATOM     31  C   UNL     1       9.388  10.264  19.923  0.00  0.00    +0.000 A 
ENDBRANCH  23  25
ENDBRANCH  19  20
ENDBRANCH  18  19
ENDBRANCH   5  18
TORSDOF 7
ENDMDL
