MODEL 1
REMARK VINA RESULT:      -8.6      0.000      0.000
REMARK  Name = 
REMARK  4 active torsions:
REMARK  status: ('A' for Active; 'I' for Inactive)
REMARK    1  A    between atoms: C_2  and  C_3
REMARK    2  A    between atoms: C_3  and  C_4
REMARK    3  A    between atoms: N_11  and  C_12
REMARK    4  A    between atoms: C_15  and  C_16
REMARK                            x       y       z     vdW  Elec       q    Type
REMARK                         _______ _______ _______ _____ _____    ______ ____
ROOT
ATOM      1  C   UNL     1       1.106   9.731  19.247  0.00  0.00    +0.000 A 
ATOM      2  C   UNL     1       1.639   9.604  17.964  0.00  0.00    +0.000 A 
ATOM      3  C   UNL     1       2.344   8.449  17.595  0.00  0.00    +0.000 A 
ATOM      4  C   UNL     1       2.536   7.399  18.504  0.00  0.00    +0.000 A 
ATOM      5  C   UNL     1       2.077   7.577  19.813  0.00  0.00    +0.000 A 
ATOM      6  C   UNL     1       1.356   8.722  20.178  0.00  0.00    +0.000 A 
ENDROOT
BRANCH   4   7
ATOM      7  C   UNL     1       3.210   6.173  18.061  0.00  0.00    +0.000 A 
ATOM      8  N   UNL     1       4.251   6.131  17.250  0.00  0.00    +0.000 NA
ATOM      9  N   UNL     1       4.622   4.825  17.076  0.00  0.00    +0.000 NA
ATOM     10  C   UNL     1       3.794   4.064  17.759  0.00  0.00    +0.000 A 
ATOM     11  N   UNL     1       2.849   4.870  18.352  0.00  0.00    +0.000 N 
ATOM     12  C   UNL     1       1.683   4.438  19.097  0.00  0.00    +0.000 C 
ATOM     13  C   UNL     1       1.029   3.161  18.586  0.00  0.00    +0.000 C 
ATOM     14  C   UNL     1       1.737   1.885  19.034  0.00  0.00    +0.000 C 
ATOM     15  C   UNL     1       3.262   1.963  19.083  0.00  0.00    +0.000 C 
ATOM     16  C   UNL     1       3.877   2.576  17.831  0.00  0.00    +0.000 C 
ENDBRANCH   4   7
BRANCH   1  19
ATOM     17  O   UNL     1      -1.726  10.371  18.692  0.00  0.00    +0.000 OA
ATOM     18  C   UNL     1      -0.979  11.105  19.334  0.00  0.00    +0.000 C 
ATOM     19  N   UNL     1       0.336  10.836  19.673  0.00  0.00    +0.000 N 
ATOM     20  H   UNL     1       0.754  11.428  20.381  0.00  0.00    +0.000 HD
BRANCH  18  21
ATOM     21  C   UNL     1      -1.466  12.450  19.850  0.00  0.00    +0.000 C 
BRANCH  21  22
ATOM     22  C   UNL     1      -2.216  12.376  21.159  0.00  0.00    +0.000 A 
ATOM     23  C   UNL     1      -1.588  11.869  22.308  0.00  0.00    +0.000 A 
ATOM     24  C   UNL     1      -2.259  11.853  23.534  0.00  0.00    +0.000 A 
ATOM     25  C   UNL     1      -3.554  12.348  23.615  0.00  0.00    +0.000 A 
ATOM     26  F   UNL     1      -4.190  12.341  24.794  0.00  0.00    +0.000 F 
ATOM     27  C   UNL     1      -4.194  12.858  22.493  0.00  0.00    +0.000 A 
ATOM     28  C   UNL     1      -3.527  12.875  21.267  0.00  0.00    +0.000 A 
ENDBRANCH  21  22
ENDBRANCH  18  21
ENDBRANCH   1  19
TORSDOF 4
ENDMDL
MODEL 2
REMARK VINA RESULT:      -8.5      6.245      8.287
REMARK  Name = 
REMARK  4 active torsions:
REMARK  status: ('A' for Active; 'I' for Inactive)
REMARK    1  A    between atoms: C_2  and  C_3
REMARK    2  A    between atoms: C_3  and  C_4
REMARK    3  A    between atoms: N_11  and  C_12
REMARK    4  A    between atoms: C_15  and  C_16
REMARK                            x       y       z     vdW  Elec       q    Type
REMARK                         _______ _______ _______ _____ _____    ______ ____
ROOT
ATOM      1  C   UNL     1       7.816   7.416  18.349  0.00  0.00    +0.000 A 
ATOM      2  C   UNL     1       6.879   7.575  17.327  0.00  0.00    +0.000 A 
ATOM      3  C   UNL     1       5.875   6.617  17.122  0.00  0.00    +0.000 A 
ATOM      4  C   UNL     1       5.792   5.476  17.932  0.00  0.00    +0.000 A 
ATOM      5  C   UNL     1       6.790   5.281  18.891  0.00  0.00    +0.000 A 
ATOM      6  C   UNL     1       7.782   6.246  19.110  0.00  0.00    +0.000 A 
ENDROOT
BRANCH   4   7
ATOM      7  C   UNL     1       4.683   4.534  17.740  0.00  0.00    +0.000 A 
ATOM      8  N   UNL     1       4.485   3.805  16.658  0.00  0.00    +0.000 NA
ATOM      9  N   UNL     1       3.370   3.032  16.843  0.00  0.00    +0.000 NA
ATOM     10  C   UNL     1       2.870   3.304  18.028  0.00  0.00    +0.000 A 
ATOM     11  N   UNL     1       3.634   4.290  18.610  0.00  0.00    +0.000 N 
ATOM     12  C   UNL     1       3.369   4.970  19.862  0.00  0.00    +0.000 C 
ATOM     13  C   UNL     1       1.896   5.208  20.167  0.00  0.00    +0.000 C 
ATOM     14  C   UNL     1       1.178   3.983  20.728  0.00  0.00    +0.000 C 
ATOM     15  C   UNL     1       1.599   2.643  20.125  0.00  0.00    +0.000 C 
ATOM     16  C   UNL     1       1.655   2.655  18.603  0.00  0.00    +0.000 C 
ENDBRANCH   4   7
BRANCH   1  19
ATOM     17  O   UNL     1       7.811  10.344  17.949  0.00  0.00    +0.000 OA
ATOM     18  C   UNL     1       8.773   9.722  18.392  0.00  0.00    +0.000 C 
ATOM     19  N   UNL     1       8.818   8.364  18.652  0.00  0.00    +0.000 N 
ATOM     20  H   UNL     1       9.595   8.032  19.211  0.00  0.00    +0.000 HD
BRANCH  18  21
ATOM     21  C   UNL     1      10.076  10.436  18.718  0.00  0.00    +0.000 C 
BRANCH  21  22
ATOM     22  C   UNL     1       9.935  11.548  19.733  0.00  0.00    +0.000 A 
ATOM     23  C   UNL     1       9.308  11.305  20.966  0.00  0.00    +0.000 A 
ATOM     24  C   UNL     1       9.229  12.314  21.930  0.00  0.00    +0.000 A 
ATOM     25  C   UNL     1       9.778  13.561  21.666  0.00  0.00    +0.000 A 
ATOM     26  F   UNL     1       9.709  14.523  22.598  0.00  0.00    +0.000 F 
ATOM     27  C   UNL     1      10.405  13.823  20.456  0.00  0.00    +0.000 A 
ATOM     28  C   UNL     1      10.487  12.818  19.490  0.00  0.00    +0.000 A 
ENDBRANCH  21  22
ENDBRANCH  18  21
ENDBRANCH   1  19
TORSDOF 4
ENDMDL
MODEL 3
REMARK VINA RESULT:      -8.5      4.282      9.996
REMARK  Name = 
REMARK  4 active torsions:
REMARK  status: ('A' for Active; 'I' for Inactive)
REMARK    1  A    between atoms: C_2  and  C_3
REMARK    2  A    between atoms: C_3  and  C_4
REMARK    3  A    between atoms: N_11  and  C_12
REMARK    4  A    between atoms: C_15  and  C_16
REMARK                            x       y       z     vdW  Elec       q    Type
REMARK                         _______ _______ _______ _____ _____    ______ ____
ROOT
ATOM      1  C   UNL     1       2.389   7.503  18.995  0.00  0.00    +0.000 A 
ATOM      2  C   UNL     1       2.089   8.251  17.855  0.00  0.00    +0.000 A 
ATOM      3  C   UNL     1       1.288   9.398  17.944  0.00  0.00    +0.000 A 
ATOM      4  C   UNL     1       0.764   9.818  19.174  0.00  0.00    +0.000 A 
ATOM      5  C   UNL     1       0.993   9.011  20.292  0.00  0.00    +0.000 A 
ATOM      6  C   UNL     1       1.810   7.875  20.209  0.00  0.00    +0.000 A 
ENDROOT
BRANCH   4   7
ATOM      7  C   UNL     1      -0.006  11.066  19.243  0.00  0.00    +0.000 A 
ATOM      8  N   UNL     1      -1.323  11.148  19.209  0.00  0.00    +0.000 NA
ATOM      9  N   UNL     1      -1.687  12.463  19.316  0.00  0.00    +0.000 NA
ATOM     10  C   UNL     1      -0.594  13.191  19.391  0.00  0.00    +0.000 A 
ATOM     11  N   UNL     1       0.495  12.355  19.291  0.00  0.00    +0.000 N 
ATOM     12  C   UNL     1       1.887  12.748  19.208  0.00  0.00    +0.000 C 
ATOM     13  C   UNL     1       2.149  14.035  18.435  0.00  0.00    +0.000 C 
ATOM     14  C   UNL     1       1.882  15.302  19.243  0.00  0.00    +0.000 C 
ATOM     15  C   UNL     1       0.680  15.239  20.185  0.00  0.00    +0.000 C 
ATOM     16  C   UNL     1      -0.574  14.677  19.528  0.00  0.00    +0.000 C 
ENDBRANCH   4   7
BRANCH   1  19
ATOM     17  O   UNL     1       1.694   4.641  19.247  0.00  0.00    +0.000 OA
ATOM     18  C   UNL     1       2.848   5.054  19.168  0.00  0.00    +0.000 C 
ATOM     19  N   UNL     1       3.234   6.372  18.994  0.00  0.00    +0.000 N 
ATOM     20  H   UNL     1       4.199   6.533  18.732  0.00  0.00    +0.000 HD
BRANCH  18  21
ATOM     21  C   UNL     1       4.025   4.093  19.253  0.00  0.00    +0.000 C 
BRANCH  21  22
ATOM     22  C   UNL     1       4.990   4.192  18.095  0.00  0.00    +0.000 A 
ATOM     23  C   UNL     1       4.559   3.912  16.788  0.00  0.00    +0.000 A 
ATOM     24  C   UNL     1       5.432   4.060  15.707  0.00  0.00    +0.000 A 
ATOM     25  C   UNL     1       6.733   4.491  15.929  0.00  0.00    +0.000 A 
ATOM     26  F   UNL     1       7.564   4.642  14.889  0.00  0.00    +0.000 F 
ATOM     27  C   UNL     1       7.181   4.777  17.212  0.00  0.00    +0.000 A 
ATOM     28  C   UNL     1       6.311   4.631  18.294  0.00  0.00    +0.000 A 
ENDBRANCH  21  22
ENDBRANCH  18  21
ENDBRANCH   1  19
TORSDOF 4
ENDMDL
MODEL 4
REMARK VINA RESULT:      -8.5      6.479      8.780
REMARK  Name = 
REMARK  4 active torsions:
REMARK  status: ('A' for Active; 'I' for Inactive)
REMARK    1  A    between atoms: C_2  and  C_3
REMARK    2  A    between atoms: C_3  and  C_4
REMARK    3  A    between atoms: N_11  and  C_12
REMARK    4  A    between atoms: C_15  and  C_16
REMARK                            x       y       z     vdW  Elec       q    Type
REMARK                         _______ _______ _______ _____ _____    ______ ____
ROOT
ATOM      1  C   UNL     1       7.796   7.420  18.402  0.00  0.00    +0.000 A 
ATOM      2  C   UNL     1       6.840   7.634  17.408  0.00  0.00    +0.000 A 
ATOM      3  C   UNL     1       5.837   6.685  17.164  0.00  0.00    +0.000 A 
ATOM      4  C   UNL     1       5.774   5.497  17.906  0.00  0.00    +0.000 A 
ATOM      5  C   UNL     1       6.790   5.251  18.835  0.00  0.00    +0.000 A 
ATOM      6  C   UNL     1       7.780   6.208  19.093  0.00  0.00    +0.000 A 
ENDROOT
BRANCH   4   7
ATOM      7  C   UNL     1       4.666   4.561  17.677  0.00  0.00    +0.000 A 
ATOM      8  N   UNL     1       4.472   3.871  16.568  0.00  0.00    +0.000 NA
ATOM      9  N   UNL     1       3.358   3.091  16.723  0.00  0.00    +0.000 NA
ATOM     10  C   UNL     1       2.854   3.320  17.916  0.00  0.00    +0.000 A 
ATOM     11  N   UNL     1       3.616   4.285  18.535  0.00  0.00    +0.000 N 
ATOM     12  C   UNL     1       3.347   4.920  19.809  0.00  0.00    +0.000 C 
ATOM     13  C   UNL     1       1.872   5.145  20.119  0.00  0.00    +0.000 C 
ATOM     14  C   UNL     1       1.154   3.900  20.633  0.00  0.00    +0.000 C 
ATOM     15  C   UNL     1       1.578   2.583  19.985  0.00  0.00    +0.000 C 
ATOM     16  C   UNL     1       1.639   2.650  18.464  0.00  0.00    +0.000 C 
ENDBRANCH   4   7
BRANCH   1  19
ATOM     17  O   UNL     1       7.877  10.338  17.939  0.00  0.00    +0.000 OA
ATOM     18  C   UNL     1       8.798   9.708  18.451  0.00  0.00    +0.000 C 
ATOM     19  N   UNL     1       8.798   8.354  18.744  0.00  0.00    +0.000 N 
ATOM     20  H   UNL     1       9.533   8.021  19.356  0.00  0.00    +0.000 HD
BRANCH  18  21
ATOM     21  C   UNL     1      10.095  10.402  18.840  0.00  0.00    +0.000 C 
BRANCH  21  22
ATOM     22  C   UNL     1      10.127  11.878  18.517  0.00  0.00    +0.000 A 
ATOM     23  C   UNL     1       9.508  12.804  19.373  0.00  0.00    +0.000 A 
ATOM     24  C   UNL     1       9.586  14.174  19.110  0.00  0.00    +0.000 A 
ATOM     25  C   UNL     1      10.284  14.621  17.996  0.00  0.00    +0.000 A 
ATOM     26  F   UNL     1      10.365  15.936  17.752  0.00  0.00    +0.000 F 
ATOM     27  C   UNL     1      10.905  13.725  17.137  0.00  0.00    +0.000 A 
ATOM     28  C   UNL     1      10.830  12.355  17.397  0.00  0.00    +0.000 A 
ENDBRANCH  21  22
ENDBRANCH  18  21
ENDBRANCH   1  19
TORSDOF 4
ENDMDL
MODEL 5
REMARK VINA RESULT:      -8.4      3.904      9.817
REMARK  Name = 
REMARK  4 active torsions:
REMARK  status: ('A' for Active; 'I' for Inactive)
REMARK    1  A    between atoms: C_2  and  C_3
REMARK    2  A    between atoms: C_3  and  C_4
REMARK    3  A    between atoms: N_11  and  C_12
REMARK    4  A    between atoms: C_15  and  C_16
REMARK                            x       y       z     vdW  Elec       q    Type
REMARK                         _______ _______ _______ _____ _____    ______ ____
ROOT
ATOM      1  C   UNL     1       2.376   7.521  19.020  0.00  0.00    +0.000 A 
ATOM      2  C   UNL     1       2.052   8.301  17.909  0.00  0.00    +0.000 A 
ATOM      3  C   UNL     1       1.244   9.440  18.046  0.00  0.00    +0.000 A 
ATOM      4  C   UNL     1       0.737   9.818  19.297  0.00  0.00    +0.000 A 
ATOM      5  C   UNL     1       0.992   8.978  20.386  0.00  0.00    +0.000 A 
ATOM      6  C   UNL     1       1.815   7.852  20.255  0.00  0.00    +0.000 A 
ENDROOT
BRANCH   4   7
ATOM      7  C   UNL     1      -0.040  11.057  19.418  0.00  0.00    +0.000 A 
ATOM      8  N   UNL     1      -0.053  12.033  18.529  0.00  0.00    +0.000 NA
ATOM      9  N   UNL     1      -0.903  13.015  18.964  0.00  0.00    +0.000 NA
ATOM     10  C   UNL     1      -1.391  12.653  20.130  0.00  0.00    +0.000 A 
ATOM     11  N   UNL     1      -0.830  11.447  20.484  0.00  0.00    +0.000 N 
ATOM     12  C   UNL     1      -0.997  10.747  21.742  0.00  0.00    +0.000 C 
ATOM     13  C   UNL     1      -1.117  11.643  22.968  0.00  0.00    +0.000 C 
ATOM     14  C   UNL     1      -2.509  12.238  23.161  0.00  0.00    +0.000 C 
ATOM     15  C   UNL     1      -3.234  12.644  21.878  0.00  0.00    +0.000 C 
ATOM     16  C   UNL     1      -2.367  13.456  20.925  0.00  0.00    +0.000 C 
ENDBRANCH   4   7
BRANCH   1  19
ATOM     17  O   UNL     1       1.690   4.647  18.950  0.00  0.00    +0.000 OA
ATOM     18  C   UNL     1       2.843   5.068  18.991  0.00  0.00    +0.000 C 
ATOM     19  N   UNL     1       3.229   6.397  18.971  0.00  0.00    +0.000 N 
ATOM     20  H   UNL     1       4.208   6.585  18.793  0.00  0.00    +0.000 HD
BRANCH  18  21
ATOM     21  C   UNL     1       4.020   4.106  19.066  0.00  0.00    +0.000 C 
BRANCH  21  22
ATOM     22  C   UNL     1       4.990   4.223  17.913  0.00  0.00    +0.000 A 
ATOM     23  C   UNL     1       4.552   4.015  16.595  0.00  0.00    +0.000 A 
ATOM     24  C   UNL     1       5.431   4.180  15.522  0.00  0.00    +0.000 A 
ATOM     25  C   UNL     1       6.745   4.558  15.763  0.00  0.00    +0.000 A 
ATOM     26  F   UNL     1       7.583   4.726  14.731  0.00  0.00    +0.000 F 
ATOM     27  C   UNL     1       7.200   4.772  17.057  0.00  0.00    +0.000 A 
ATOM     28  C   UNL     1       6.324   4.609  18.132  0.00  0.00    +0.000 A 
ENDBRANCH  21  22
ENDBRANCH  18  21
ENDBRANCH   1  19
TORSDOF 4
ENDMDL
MODEL 6
REMARK VINA RESULT:      -8.4      1.446      1.722
REMARK  Name = 
REMARK  4 active torsions:
REMARK  status: ('A' for Active; 'I' for Inactive)
REMARK    1  A    between atoms: C_2  and  C_3
REMARK    2  A    between atoms: C_3  and  C_4
REMARK    3  A    between atoms: N_11  and  C_12
REMARK    4  A    between atoms: C_15  and  C_16
REMARK                            x       y       z     vdW  Elec       q    Type
REMARK                         _______ _______ _______ _____ _____    ______ ____
ROOT
ATOM      1  C   UNL     1       0.691   9.975  19.213  0.00  0.00    +0.000 A 
ATOM      2  C   UNL     1       1.281   9.534  18.027  0.00  0.00    +0.000 A 
ATOM      3  C   UNL     1       2.038   8.354  18.001  0.00  0.00    +0.000 A 
ATOM      4  C   UNL     1       2.227   7.593  19.164  0.00  0.00    +0.000 A 
ATOM      5  C   UNL     1       1.710   8.093  20.363  0.00  0.00    +0.000 A 
ATOM      6  C   UNL     1       0.937   9.261  20.387  0.00  0.00    +0.000 A 
ENDROOT
BRANCH   4   7
ATOM      7  C   UNL     1       2.960   6.324  19.085  0.00  0.00    +0.000 A 
ATOM      8  N   UNL     1       4.024   6.107  18.334  0.00  0.00    +0.000 NA
ATOM      9  N   UNL     1       4.450   4.821  18.531  0.00  0.00    +0.000 NA
ATOM     10  C   UNL     1       3.632   4.240  19.382  0.00  0.00    +0.000 A 
ATOM     11  N   UNL     1       2.641   5.135  19.717  0.00  0.00    +0.000 N 
ATOM     12  C   UNL     1       1.472   4.872  20.531  0.00  0.00    +0.000 C 
ATOM     13  C   UNL     1       0.881   3.476  20.379  0.00  0.00    +0.000 C 
ATOM     14  C   UNL     1       1.624   2.403  21.172  0.00  0.00    +0.000 C 
ATOM     15  C   UNL     1       3.144   2.559  21.223  0.00  0.00    +0.000 C 
ATOM     16  C   UNL     1       3.769   2.833  19.861  0.00  0.00    +0.000 C 
ENDBRANCH   4   7
BRANCH   1  19
ATOM     17  O   UNL     1       1.406  12.828  18.924  0.00  0.00    +0.000 OA
ATOM     18  C   UNL     1       0.277  12.438  19.209  0.00  0.00    +0.000 C 
ATOM     19  N   UNL     1      -0.132  11.119  19.305  0.00  0.00    +0.000 N 
ATOM     20  H   UNL     1      -1.130  10.952  19.334  0.00  0.00    +0.000 HD
BRANCH  18  21
ATOM     21  C   UNL     1      -0.840  13.431  19.492  0.00  0.00    +0.000 C 
BRANCH  21  22
ATOM     22  C   UNL     1      -1.587  13.172  20.780  0.00  0.00    +0.000 A 
ATOM     23  C   UNL     1      -2.970  12.934  20.761  0.00  0.00    +0.000 A 
ATOM     24  C   UNL     1      -3.655  12.636  21.942  0.00  0.00    +0.000 A 
ATOM     25  C   UNL     1      -2.958  12.571  23.142  0.00  0.00    +0.000 A 
ATOM     26  F   UNL     1      -3.616  12.275  24.271  0.00  0.00    +0.000 F 
ATOM     27  C   UNL     1      -1.590  12.801  23.185  0.00  0.00    +0.000 A 
ATOM     28  C   UNL     1      -0.903  13.098  22.006  0.00  0.00    +0.000 A 
ENDBRANCH  21  22
ENDBRANCH  18  21
ENDBRANCH   1  19
TORSDOF 4
ENDMDL
MODEL 7
REMARK VINA RESULT:      -8.4      1.437      2.471
REMARK  Name = 
REMARK  4 active torsions:
REMARK  status: ('A' for Active; 'I' for Inactive)
REMARK    1  A    between atoms: C_2  and  C_3
REMARK    2  A    between atoms: C_3  and  C_4
REMARK    3  A    between atoms: N_11  and  C_12
REMARK    4  A    between atoms: C_15  and  C_16
REMARK                            x       y       z     vdW  Elec       q    Type
REMARK                         _______ _______ _______ _____ _____    ______ ____
ROOT
ATOM      1  C   UNL     1       1.092   9.723  19.462  0.00  0.00    +0.000 A 
ATOM      2  C   UNL     1       1.468   9.559  18.128  0.00  0.00    +0.000 A 
ATOM      3  C   UNL     1       2.053   8.361  17.691  0.00  0.00    +0.000 A 
ATOM      4  C   UNL     1       2.279   7.303  18.583  0.00  0.00    +0.000 A 
ATOM      5  C   UNL     1       1.984   7.512  19.933  0.00  0.00    +0.000 A 
ATOM      6  C   UNL     1       1.382   8.701  20.367  0.00  0.00    +0.000 A 
ENDROOT
BRANCH   4   7
ATOM      7  C   UNL     1       2.821   6.036  18.077  0.00  0.00    +0.000 A 
ATOM      8  N   UNL     1       2.234   4.860  18.193  0.00  0.00    +0.000 NA
ATOM      9  N   UNL     1       3.016   3.913  17.589  0.00  0.00    +0.000 NA
ATOM     10  C   UNL     1       4.095   4.504  17.124  0.00  0.00    +0.000 A 
ATOM     11  N   UNL     1       4.043   5.838  17.459  0.00  0.00    +0.000 N 
ATOM     12  C   UNL     1       5.080   6.828  17.248  0.00  0.00    +0.000 C 
ATOM     13  C   UNL     1       6.505   6.312  17.398  0.00  0.00    +0.000 C 
ATOM     14  C   UNL     1       7.022   5.568  16.168  0.00  0.00    +0.000 C 
ATOM     15  C   UNL     1       5.994   4.697  15.448  0.00  0.00    +0.000 C 
ATOM     16  C   UNL     1       5.191   3.807  16.387  0.00  0.00    +0.000 C 
ENDBRANCH   4   7
BRANCH   1  19
ATOM     17  O   UNL     1      -1.654  10.697  18.968  0.00  0.00    +0.000 OA
ATOM     18  C   UNL     1      -0.832  11.304  19.650  0.00  0.00    +0.000 C 
ATOM     19  N   UNL     1       0.447  10.875  19.962  0.00  0.00    +0.000 N 
ATOM     20  H   UNL     1       0.927  11.372  20.702  0.00  0.00    +0.000 HD
BRANCH  18  21
ATOM     21  C   UNL     1      -1.170  12.659  20.253  0.00  0.00    +0.000 C 
BRANCH  21  22
ATOM     22  C   UNL     1      -2.280  12.621  21.278  0.00  0.00    +0.000 A 
ATOM     23  C   UNL     1      -2.021  12.178  22.585  0.00  0.00    +0.000 A 
ATOM     24  C   UNL     1      -3.030  12.196  23.552  0.00  0.00    +0.000 A 
ATOM     25  C   UNL     1      -4.294  12.660  23.216  0.00  0.00    +0.000 A 
ATOM     26  F   UNL     1      -5.256  12.686  24.149  0.00  0.00    +0.000 F 
ATOM     27  C   UNL     1      -4.573  13.106  21.931  0.00  0.00    +0.000 A 
ATOM     28  C   UNL     1      -3.567  13.089  20.963  0.00  0.00    +0.000 A 
ENDBRANCH  21  22
ENDBRANCH  18  21
ENDBRANCH   1  19
TORSDOF 4
ENDMDL
MODEL 8
REMARK VINA RESULT:      -8.3      4.154     10.000
REMARK  Name = 
REMARK  4 active torsions:
REMARK  status: ('A' for Active; 'I' for Inactive)
REMARK    1  A    between atoms: C_2  and  C_3
REMARK    2  A    between atoms: C_3  and  C_4
REMARK    3  A    between atoms: N_11  and  C_12
REMARK    4  A    between atoms: C_15  and  C_16
REMARK                            x       y       z     vdW  Elec       q    Type
REMARK                         _______ _______ _______ _____ _____    ______ ____
ROOT
ATOM      1  C   UNL     1       2.433   7.397  19.121  0.00  0.00    +0.000 A 
ATOM      2  C   UNL     1       1.856   7.786  20.331  0.00  0.00    +0.000 A 
ATOM      3  C   UNL     1       1.032   8.919  20.399  0.00  0.00    +0.000 A 
ATOM      4  C   UNL     1       0.773   9.691  19.258  0.00  0.00    +0.000 A 
ATOM      5  C   UNL     1       1.430   9.346  18.073  0.00  0.00    +0.000 A 
ATOM      6  C   UNL     1       2.238   8.204  17.999  0.00  0.00    +0.000 A 
ENDROOT
BRANCH   4   7
ATOM      7  C   UNL     1      -0.155  10.824  19.348  0.00  0.00    +0.000 A 
ATOM      8  N   UNL     1      -1.443  10.775  19.060  0.00  0.00    +0.000 NA
ATOM      9  N   UNL     1      -1.992  12.010  19.279  0.00  0.00    +0.000 NA
ATOM     10  C   UNL     1      -1.038  12.823  19.677  0.00  0.00    +0.000 A 
ATOM     11  N   UNL     1       0.153  12.132  19.681  0.00  0.00    +0.000 N 
ATOM     12  C   UNL     1       1.471  12.674  19.939  0.00  0.00    +0.000 C 
ATOM     13  C   UNL     1       1.697  14.091  19.428  0.00  0.00    +0.000 C 
ATOM     14  C   UNL     1       1.120  15.172  20.339  0.00  0.00    +0.000 C 
ATOM     15  C   UNL     1      -0.215  14.830  20.999  0.00  0.00    +0.000 C 
ATOM     16  C   UNL     1      -1.241  14.259  20.028  0.00  0.00    +0.000 C 
ENDBRANCH   4   7
BRANCH   1  19
ATOM     17  O   UNL     1       1.645   4.553  19.275  0.00  0.00    +0.000 OA
ATOM     18  C   UNL     1       2.802   4.927  19.099  0.00  0.00    +0.000 C 
ATOM     19  N   UNL     1       3.224   6.238  18.963  0.00  0.00    +0.000 N 
ATOM     20  H   UNL     1       4.163   6.381  18.610  0.00  0.00    +0.000 HD
BRANCH  18  21
ATOM     21  C   UNL     1       3.938   3.920  19.001  0.00  0.00    +0.000 C 
BRANCH  21  22
ATOM     22  C   UNL     1       4.909   4.190  17.874  0.00  0.00    +0.000 A 
ATOM     23  C   UNL     1       6.238   4.546  18.154  0.00  0.00    +0.000 A 
ATOM     24  C   UNL     1       7.153   4.738  17.116  0.00  0.00    +0.000 A 
ATOM     25  C   UNL     1       6.744   4.571  15.799  0.00  0.00    +0.000 A 
ATOM     26  F   UNL     1       7.627   4.747  14.807  0.00  0.00    +0.000 F 
ATOM     27  C   UNL     1       5.436   4.217  15.499  0.00  0.00    +0.000 A 
ATOM     28  C   UNL     1       4.518   4.024  16.533  0.00  0.00    +0.000 A 
ENDBRANCH  21  22
ENDBRANCH  18  21
ENDBRANCH   1  19
TORSDOF 4
ENDMDL
MODEL 9
REMARK VINA RESULT:      -8.3      0.475      1.388
REMARK  Name = 
REMARK  4 active torsions:
REMARK  status: ('A' for Active; 'I' for Inactive)
REMARK    1  A    between atoms: C_2  and  C_3
REMARK    2  A    between atoms: C_3  and  C_4
REMARK    3  A    between atoms: N_11  and  C_12
REMARK    4  A    between atoms: C_15  and  C_16
REMARK                            x       y       z     vdW  Elec       q    Type
REMARK                         _______ _______ _______ _____ _____    ______ ____
ROOT
ATOM      1  C   UNL     1       0.897   9.842  19.512  0.00  0.00    +0.000 A 
ATOM      2  C   UNL     1       1.228   8.796  20.374  0.00  0.00    +0.000 A 
ATOM      3  C   UNL     1       1.953   7.689  19.910  0.00  0.00    +0.000 A 
ATOM      4  C   UNL     1       2.357   7.602  18.571  0.00  0.00    +0.000 A 
ATOM      5  C   UNL     1       1.940   8.610  17.696  0.00  0.00    +0.000 A 
ATOM      6  C   UNL     1       1.233   9.726  18.162  0.00  0.00    +0.000 A 
ENDROOT
BRANCH   4   7
ATOM      7  C   UNL     1       3.180   6.467  18.137  0.00  0.00    +0.000 A 
ATOM      8  N   UNL     1       4.277   6.561  17.408  0.00  0.00    +0.000 NA
ATOM      9  N   UNL     1       4.788   5.306  17.215  0.00  0.00    +0.000 NA
ATOM     10  C   UNL     1       3.992   4.440  17.805  0.00  0.00    +0.000 A 
ATOM     11  N   UNL     1       2.931   5.123  18.352  0.00  0.00    +0.000 N 
ATOM     12  C   UNL     1       1.763   4.549  18.988  0.00  0.00    +0.000 C 
ATOM     13  C   UNL     1       1.277   3.238  18.383  0.00  0.00    +0.000 C 
ATOM     14  C   UNL     1       2.075   2.018  18.838  0.00  0.00    +0.000 C 
ATOM     15  C   UNL     1       3.577   2.241  19.007  0.00  0.00    +0.000 C 
ATOM     16  C   UNL     1       4.217   2.964  17.829  0.00  0.00    +0.000 C 
ENDBRANCH   4   7
BRANCH   1  19
ATOM     17  O   UNL     1      -1.872  10.704  18.941  0.00  0.00    +0.000 OA
ATOM     18  C   UNL     1      -1.067  11.384  19.572  0.00  0.00    +0.000 C 
ATOM     19  N   UNL     1       0.221  11.014  19.918  0.00  0.00    +0.000 N 
ATOM     20  H   UNL     1       0.686  11.580  20.617  0.00  0.00    +0.000 HD
BRANCH  18  21
ATOM     21  C   UNL     1      -1.442  12.774  20.066  0.00  0.00    +0.000 C 
BRANCH  21  22
ATOM     22  C   UNL     1      -2.387  12.778  21.245  0.00  0.00    +0.000 A 
ATOM     23  C   UNL     1      -3.668  13.339  21.124  0.00  0.00    +0.000 A 
ATOM     24  C   UNL     1      -4.566  13.292  22.193  0.00  0.00    +0.000 A 
ATOM     25  C   UNL     1      -4.187  12.683  23.382  0.00  0.00    +0.000 A 
ATOM     26  F   UNL     1      -5.054  12.631  24.403  0.00  0.00    +0.000 F 
ATOM     27  C   UNL     1      -2.926  12.119  23.524  0.00  0.00    +0.000 A 
ATOM     28  C   UNL     1      -2.027  12.163  22.457  0.00  0.00    +0.000 A 
ENDBRANCH  21  22
ENDBRANCH  18  21
ENDBRANCH   1  19
TORSDOF 4
ENDMDL
