MODEL 1
REMARK VINA RESULT:      -8.4      0.000      0.000
REMARK  Name = 
REMARK  3 active torsions:
REMARK  status: ('A' for Active; 'I' for Inactive)
REMARK    1  A    between atoms: C_4  and  C_5
REMARK    2  A    between atoms: C_7  and  C_8
REMARK    3  A    between atoms: C_18  and  C_19
REMARK                            x       y       z     vdW  Elec       q    Type
REMARK                         _______ _______ _______ _____ _____    ______ ____
ROOT
ATOM      1  O   UNL     1       3.054   2.201  19.715  0.00  0.00    +0.000 OA
ATOM      2  C   UNL     1       3.337   3.288  19.225  0.00  0.00    +0.000 A 
ATOM      3  N   UNL     1       4.233   3.420  18.193  0.00  0.00    +0.000 N 
ATOM      4  C   UNL     1       4.572   4.620  17.609  0.00  0.00    +0.000 A 
ATOM      5  N   UNL     1       4.066   5.742  18.015  0.00  0.00    +0.000 NA
ATOM      6  C   UNL     1       3.142   5.720  19.074  0.00  0.00    +0.000 A 
ATOM      7  C   UNL     1       2.601   6.931  19.507  0.00  0.00    +0.000 A 
ATOM      8  C   UNL     1       1.661   6.979  20.551  0.00  0.00    +0.000 A 
ATOM      9  C   UNL     1       1.263   5.779  21.163  0.00  0.00    +0.000 A 
ATOM     10  C   UNL     1       1.798   4.559  20.743  0.00  0.00    +0.000 A 
ATOM     11  C   UNL     1       2.736   4.543  19.704  0.00  0.00    +0.000 A 
ATOM     12  H   UNL     1       4.647   2.561  17.860  0.00  0.00    +0.000 HD
ENDROOT
BRANCH   8  13
ATOM     13  C   UNL     1       1.090   8.301  21.002  0.00  0.00    +0.000 C 
ATOM     14  F   UNL     1       1.046   9.238  20.015  0.00  0.00    +0.000 F 
ATOM     15  F   UNL     1      -0.185   8.187  21.463  0.00  0.00    +0.000 F 
ATOM     16  F   UNL     1       1.808   8.860  22.014  0.00  0.00    +0.000 F 
ENDBRANCH   8  13
BRANCH   4  17
ATOM     17  C   UNL     1       5.554   4.527  16.471  0.00  0.00    +0.000 C 
ATOM     18 CL   UNL     1       7.237   4.410  16.866  0.00  0.00    +0.000 Cl
ATOM     19  C   UNL     1       5.112   4.528  15.199  0.00  0.00    +0.000 C 
BRANCH  19  20
ATOM     20  C   UNL     1       5.972   4.429  14.012  0.00  0.00    +0.000 A 
ATOM     21  C   UNL     1       5.699   3.480  13.015  0.00  0.00    +0.000 A 
ATOM     22  C   UNL     1       6.548   3.350  11.909  0.00  0.00    +0.000 A 
ATOM     23  C   UNL     1       7.666   4.171  11.790  0.00  0.00    +0.000 A 
ATOM     24  C   UNL     1       7.921   5.123  12.771  0.00  0.00    +0.000 A 
ATOM     25  F   UNL     1       8.992   5.920  12.651  0.00  0.00    +0.000 F 
ATOM     26  C   UNL     1       7.088   5.260  13.878  0.00  0.00    +0.000 A 
ENDBRANCH  19  20
ENDBRANCH   4  17
TORSDOF 3
ENDMDL
MODEL 2
REMARK VINA RESULT:      -8.4      3.605      8.487
REMARK  Name = 
REMARK  3 active torsions:
REMARK  status: ('A' for Active; 'I' for Inactive)
REMARK    1  A    between atoms: C_4  and  C_5
REMARK    2  A    between atoms: C_7  and  C_8
REMARK    3  A    between atoms: C_18  and  C_19
REMARK                            x       y       z     vdW  Elec       q    Type
REMARK                         _______ _______ _______ _____ _____    ______ ____
ROOT
ATOM      1  O   UNL     1       2.421   4.326  21.171  0.00  0.00    +0.000 OA
ATOM      2  C   UNL     1       2.582   5.195  20.321  0.00  0.00    +0.000 A 
ATOM      3  N   UNL     1       1.985   6.428  20.409  0.00  0.00    +0.000 N 
ATOM      4  C   UNL     1       2.146   7.435  19.482  0.00  0.00    +0.000 A 
ATOM      5  N   UNL     1       2.880   7.276  18.426  0.00  0.00    +0.000 NA
ATOM      6  C   UNL     1       3.530   6.045  18.235  0.00  0.00    +0.000 A 
ATOM      7  C   UNL     1       4.318   5.880  17.096  0.00  0.00    +0.000 A 
ATOM      8  C   UNL     1       5.008   4.680  16.852  0.00  0.00    +0.000 A 
ATOM      9  C   UNL     1       4.897   3.631  17.781  0.00  0.00    +0.000 A 
ATOM     10  C   UNL     1       4.109   3.780  18.924  0.00  0.00    +0.000 A 
ATOM     11  C   UNL     1       3.430   4.985  19.138  0.00  0.00    +0.000 A 
ATOM     12  H   UNL     1       1.403   6.578  21.221  0.00  0.00    +0.000 HD
ENDROOT
BRANCH   8  13
ATOM     13  C   UNL     1       5.854   4.525  15.612  0.00  0.00    +0.000 C 
ATOM     14  F   UNL     1       6.111   3.227  15.289  0.00  0.00    +0.000 F 
ATOM     15  F   UNL     1       5.270   5.074  14.512  0.00  0.00    +0.000 F 
ATOM     16  F   UNL     1       7.070   5.126  15.733  0.00  0.00    +0.000 F 
ENDBRANCH   8  13
BRANCH   4  17
ATOM     17  C   UNL     1       1.422   8.718  19.793  0.00  0.00    +0.000 C 
ATOM     18 CL   UNL     1       1.096   9.077  21.457  0.00  0.00    +0.000 Cl
ATOM     19  C   UNL     1       1.060   9.546  18.794  0.00  0.00    +0.000 C 
BRANCH  19  20
ATOM     20  C   UNL     1       0.365  10.826  18.977  0.00  0.00    +0.000 A 
ATOM     21  C   UNL     1       1.094  12.017  19.118  0.00  0.00    +0.000 A 
ATOM     22  C   UNL     1       0.434  13.230  19.344  0.00  0.00    +0.000 A 
ATOM     23  C   UNL     1      -0.956  13.262  19.421  0.00  0.00    +0.000 A 
ATOM     24  C   UNL     1      -1.675  12.084  19.262  0.00  0.00    +0.000 A 
ATOM     25  F   UNL     1      -3.013  12.116  19.327  0.00  0.00    +0.000 F 
ATOM     26  C   UNL     1      -1.031  10.869  19.041  0.00  0.00    +0.000 A 
ENDBRANCH  19  20
ENDBRANCH   4  17
TORSDOF 3
ENDMDL
MODEL 3
REMARK VINA RESULT:      -8.3      2.575      8.616
REMARK  Name = 
REMARK  3 active torsions:
REMARK  status: ('A' for Active; 'I' for Inactive)
REMARK    1  A    between atoms: C_4  and  C_5
REMARK    2  A    between atoms: C_7  and  C_8
REMARK    3  A    between atoms: C_18  and  C_19
REMARK                            x       y       z     vdW  Elec       q    Type
REMARK                         _______ _______ _______ _____ _____    ______ ____
ROOT
ATOM      1  O   UNL     1       7.026   5.110  19.907  0.00  0.00    +0.000 OA
ATOM      2  C   UNL     1       6.057   5.287  19.176  0.00  0.00    +0.000 A 
ATOM      3  N   UNL     1       4.874   5.811  19.636  0.00  0.00    +0.000 N 
ATOM      4  C   UNL     1       3.767   6.033  18.848  0.00  0.00    +0.000 A 
ATOM      5  N   UNL     1       3.760   5.739  17.586  0.00  0.00    +0.000 NA
ATOM      6  C   UNL     1       4.920   5.189  17.015  0.00  0.00    +0.000 A 
ATOM      7  C   UNL     1       4.906   4.874  15.656  0.00  0.00    +0.000 A 
ATOM      8  C   UNL     1       6.037   4.335  15.019  0.00  0.00    +0.000 A 
ATOM      9  C   UNL     1       7.201   4.113  15.775  0.00  0.00    +0.000 A 
ATOM     10  C   UNL     1       7.229   4.419  17.137  0.00  0.00    +0.000 A 
ATOM     11  C   UNL     1       6.086   4.952  17.745  0.00  0.00    +0.000 A 
ATOM     12  H   UNL     1       4.850   6.044  20.619  0.00  0.00    +0.000 HD
ENDROOT
BRANCH   8  13
ATOM     13  C   UNL     1       5.997   4.003  13.548  0.00  0.00    +0.000 C 
ATOM     14  F   UNL     1       4.763   4.150  12.991  0.00  0.00    +0.000 F 
ATOM     15  F   UNL     1       6.832   4.788  12.814  0.00  0.00    +0.000 F 
ATOM     16  F   UNL     1       6.369   2.718  13.294  0.00  0.00    +0.000 F 
ENDBRANCH   8  13
BRANCH   4  17
ATOM     17  C   UNL     1       2.586   6.645  19.555  0.00  0.00    +0.000 C 
ATOM     18 CL   UNL     1       1.549   5.587  20.455  0.00  0.00    +0.000 Cl
ATOM     19  C   UNL     1       2.371   7.972  19.482  0.00  0.00    +0.000 C 
BRANCH  19  20
ATOM     20  C   UNL     1       1.264   8.680  20.139  0.00  0.00    +0.000 A 
ATOM     21  C   UNL     1       0.407   9.504  19.394  0.00  0.00    +0.000 A 
ATOM     22  C   UNL     1      -0.616  10.219  20.028  0.00  0.00    +0.000 A 
ATOM     23  C   UNL     1      -0.793  10.107  21.405  0.00  0.00    +0.000 A 
ATOM     24  C   UNL     1       0.046   9.274  22.135  0.00  0.00    +0.000 A 
ATOM     25  F   UNL     1      -0.131   9.159  23.458  0.00  0.00    +0.000 F 
ATOM     26  C   UNL     1       1.070   8.561  21.518  0.00  0.00    +0.000 A 
ENDBRANCH  19  20
ENDBRANCH   4  17
TORSDOF 3
ENDMDL
MODEL 4
REMARK VINA RESULT:      -8.3      3.419      8.996
REMARK  Name = 
REMARK  3 active torsions:
REMARK  status: ('A' for Active; 'I' for Inactive)
REMARK    1  A    between atoms: C_4  and  C_5
REMARK    2  A    between atoms: C_7  and  C_8
REMARK    3  A    between atoms: C_18  and  C_19
REMARK                            x       y       z     vdW  Elec       q    Type
REMARK                         _______ _______ _______ _____ _____    ______ ____
ROOT
ATOM      1  O   UNL     1       2.339   4.382  21.347  0.00  0.00    +0.000 OA
ATOM      2  C   UNL     1       2.482   5.287  20.531  0.00  0.00    +0.000 A 
ATOM      3  N   UNL     1       1.836   6.493  20.649  0.00  0.00    +0.000 N 
ATOM      4  C   UNL     1       1.975   7.537  19.763  0.00  0.00    +0.000 A 
ATOM      5  N   UNL     1       2.735   7.445  18.716  0.00  0.00    +0.000 NA
ATOM      6  C   UNL     1       3.436   6.247  18.497  0.00  0.00    +0.000 A 
ATOM      7  C   UNL     1       4.251   6.154  17.368  0.00  0.00    +0.000 A 
ATOM      8  C   UNL     1       4.992   4.990  17.097  0.00  0.00    +0.000 A 
ATOM      9  C   UNL     1       4.904   3.905  17.986  0.00  0.00    +0.000 A 
ATOM     10  C   UNL     1       4.089   3.983  19.117  0.00  0.00    +0.000 A 
ATOM     11  C   UNL     1       3.360   5.153  19.359  0.00  0.00    +0.000 A 
ATOM     12  H   UNL     1       1.233   6.590  21.454  0.00  0.00    +0.000 HD
ENDROOT
BRANCH   8  13
ATOM     13  C   UNL     1       5.867   4.913  15.871  0.00  0.00    +0.000 C 
ATOM     14  F   UNL     1       7.094   5.479  16.042  0.00  0.00    +0.000 F 
ATOM     15  F   UNL     1       6.102   3.631  15.478  0.00  0.00    +0.000 F 
ATOM     16  F   UNL     1       5.315   5.541  14.796  0.00  0.00    +0.000 F 
ENDBRANCH   8  13
BRANCH   4  17
ATOM     17  C   UNL     1       1.196   8.780  20.103  0.00  0.00    +0.000 C 
ATOM     18 CL   UNL     1       0.532   9.700  18.793  0.00  0.00    +0.000 Cl
ATOM     19  C   UNL     1       1.027   9.137  21.391  0.00  0.00    +0.000 C 
BRANCH  19  20
ATOM     20  C   UNL     1       0.277  10.316  21.843  0.00  0.00    +0.000 A 
ATOM     21  C   UNL     1      -0.739  10.187  22.801  0.00  0.00    +0.000 A 
ATOM     22  C   UNL     1      -1.489  11.302  23.194  0.00  0.00    +0.000 A 
ATOM     23  C   UNL     1      -1.221  12.551  22.639  0.00  0.00    +0.000 A 
ATOM     24  C   UNL     1      -0.200  12.677  21.705  0.00  0.00    +0.000 A 
ATOM     25  F   UNL     1       0.064  13.881  21.179  0.00  0.00    +0.000 F 
ATOM     26  C   UNL     1       0.550  11.576  21.302  0.00  0.00    +0.000 A 
ENDBRANCH  19  20
ENDBRANCH   4  17
TORSDOF 3
ENDMDL
MODEL 5
REMARK VINA RESULT:      -8.3      3.747      8.175
REMARK  Name = 
REMARK  3 active torsions:
REMARK  status: ('A' for Active; 'I' for Inactive)
REMARK    1  A    between atoms: C_4  and  C_5
REMARK    2  A    between atoms: C_7  and  C_8
REMARK    3  A    between atoms: C_18  and  C_19
REMARK                            x       y       z     vdW  Elec       q    Type
REMARK                         _______ _______ _______ _____ _____    ______ ____
ROOT
ATOM      1  O   UNL     1       2.278   4.457  21.316  0.00  0.00    +0.000 OA
ATOM      2  C   UNL     1       2.524   5.277  20.438  0.00  0.00    +0.000 A 
ATOM      3  N   UNL     1       1.951   6.525  20.415  0.00  0.00    +0.000 N 
ATOM      4  C   UNL     1       2.206   7.477  19.453  0.00  0.00    +0.000 A 
ATOM      5  N   UNL     1       3.014   7.248  18.466  0.00  0.00    +0.000 NA
ATOM      6  C   UNL     1       3.648   5.996  18.390  0.00  0.00    +0.000 A 
ATOM      7  C   UNL     1       4.516   5.756  17.325  0.00  0.00    +0.000 A 
ATOM      8  C   UNL     1       5.194   4.531  17.198  0.00  0.00    +0.000 A 
ATOM      9  C   UNL     1       4.988   3.536  18.168  0.00  0.00    +0.000 A 
ATOM     10  C   UNL     1       4.119   3.760  19.238  0.00  0.00    +0.000 A 
ATOM     11  C   UNL     1       3.455   4.988  19.336  0.00  0.00    +0.000 A 
ATOM     12  H   UNL     1       1.312   6.728  21.171  0.00  0.00    +0.000 HD
ENDROOT
BRANCH   8  13
ATOM     13  C   UNL     1       6.129   4.295  16.037  0.00  0.00    +0.000 C 
ATOM     14  F   UNL     1       5.992   5.208  15.035  0.00  0.00    +0.000 F 
ATOM     15  F   UNL     1       7.438   4.340  16.405  0.00  0.00    +0.000 F 
ATOM     16  F   UNL     1       5.942   3.076  15.458  0.00  0.00    +0.000 F 
ENDBRANCH   8  13
BRANCH   4  17
ATOM     17  C   UNL     1       1.491   8.789  19.641  0.00  0.00    +0.000 C 
ATOM     18 CL   UNL     1       0.942   9.187  21.236  0.00  0.00    +0.000 Cl
ATOM     19  C   UNL     1       1.305   9.611  18.590  0.00  0.00    +0.000 C 
BRANCH  19  20
ATOM     20  C   UNL     1       0.637  10.917  18.656  0.00  0.00    +0.000 A 
ATOM     21  C   UNL     1      -0.759  11.006  18.548  0.00  0.00    +0.000 A 
ATOM     22  C   UNL     1      -1.393  12.254  18.558  0.00  0.00    +0.000 A 
ATOM     23  C   UNL     1      -0.637  13.417  18.685  0.00  0.00    +0.000 A 
ATOM     24  C   UNL     1       0.744  13.322  18.811  0.00  0.00    +0.000 A 
ATOM     25  F   UNL     1       1.470  14.441  18.944  0.00  0.00    +0.000 F 
ATOM     26  C   UNL     1       1.387  12.088  18.799  0.00  0.00    +0.000 A 
ENDBRANCH  19  20
ENDBRANCH   4  17
TORSDOF 3
ENDMDL
MODEL 6
REMARK VINA RESULT:      -8.2      3.578      9.275
REMARK  Name = 
REMARK  3 active torsions:
REMARK  status: ('A' for Active; 'I' for Inactive)
REMARK    1  A    between atoms: C_4  and  C_5
REMARK    2  A    between atoms: C_7  and  C_8
REMARK    3  A    between atoms: C_18  and  C_19
REMARK                            x       y       z     vdW  Elec       q    Type
REMARK                         _______ _______ _______ _____ _____    ______ ____
ROOT
ATOM      1  O   UNL     1       2.265   4.778  21.363  0.00  0.00    +0.000 OA
ATOM      2  C   UNL     1       2.371   5.661  20.518  0.00  0.00    +0.000 A 
ATOM      3  N   UNL     1       1.707   6.858  20.617  0.00  0.00    +0.000 N 
ATOM      4  C   UNL     1       1.805   7.878  19.696  0.00  0.00    +0.000 A 
ATOM      5  N   UNL     1       2.540   7.767  18.634  0.00  0.00    +0.000 NA
ATOM      6  C   UNL     1       3.257   6.575  18.432  0.00  0.00    +0.000 A 
ATOM      7  C   UNL     1       4.045   6.462  17.286  0.00  0.00    +0.000 A 
ATOM      8  C   UNL     1       4.799   5.304  17.030  0.00  0.00    +0.000 A 
ATOM      9  C   UNL     1       4.753   4.245  17.953  0.00  0.00    +0.000 A 
ATOM     10  C   UNL     1       3.965   4.342  19.102  0.00  0.00    +0.000 A 
ATOM     11  C   UNL     1       3.222   5.506  19.328  0.00  0.00    +0.000 A 
ATOM     12  H   UNL     1       1.123   6.969  21.434  0.00  0.00    +0.000 HD
ENDROOT
BRANCH   8  13
ATOM     13  C   UNL     1       5.644   5.204  15.785  0.00  0.00    +0.000 C 
ATOM     14  F   UNL     1       5.615   3.971  15.206  0.00  0.00    +0.000 F 
ATOM     15  F   UNL     1       5.252   6.078  14.818  0.00  0.00    +0.000 F 
ATOM     16  F   UNL     1       6.958   5.472  16.024  0.00  0.00    +0.000 F 
ENDBRANCH   8  13
BRANCH   4  17
ATOM     17  C   UNL     1       1.013   9.117  20.020  0.00  0.00    +0.000 C 
ATOM     18 CL   UNL     1       0.211   9.925  18.714  0.00  0.00    +0.000 Cl
ATOM     19  C   UNL     1       0.938   9.555  21.292  0.00  0.00    +0.000 C 
BRANCH  19  20
ATOM     20  C   UNL     1       0.186  10.739  21.728  0.00  0.00    +0.000 A 
ATOM     21  C   UNL     1       0.598  12.023  21.341  0.00  0.00    +0.000 A 
ATOM     22  C   UNL     1      -0.088  13.155  21.799  0.00  0.00    +0.000 A 
ATOM     23  C   UNL     1      -1.192  13.008  22.635  0.00  0.00    +0.000 A 
ATOM     24  C   UNL     1      -1.608  11.733  22.998  0.00  0.00    +0.000 A 
ATOM     25  F   UNL     1      -2.677  11.593  23.794  0.00  0.00    +0.000 F 
ATOM     26  C   UNL     1      -0.933  10.599  22.554  0.00  0.00    +0.000 A 
ENDBRANCH  19  20
ENDBRANCH   4  17
TORSDOF 3
ENDMDL
MODEL 7
REMARK VINA RESULT:      -8.2      0.976      1.370
REMARK  Name = 
REMARK  3 active torsions:
REMARK  status: ('A' for Active; 'I' for Inactive)
REMARK    1  A    between atoms: C_4  and  C_5
REMARK    2  A    between atoms: C_7  and  C_8
REMARK    3  A    between atoms: C_18  and  C_19
REMARK                            x       y       z     vdW  Elec       q    Type
REMARK                         _______ _______ _______ _____ _____    ______ ____
ROOT
ATOM      1  O   UNL     1       2.725   2.233  19.579  0.00  0.00    +0.000 OA
ATOM      2  C   UNL     1       3.098   3.313  19.132  0.00  0.00    +0.000 A 
ATOM      3  N   UNL     1       4.032   3.412  18.131  0.00  0.00    +0.000 N 
ATOM      4  C   UNL     1       4.471   4.602  17.596  0.00  0.00    +0.000 A 
ATOM      5  N   UNL     1       4.030   5.744  18.023  0.00  0.00    +0.000 NA
ATOM      6  C   UNL     1       3.075   5.755  19.053  0.00  0.00    +0.000 A 
ATOM      7  C   UNL     1       2.606   6.987  19.510  0.00  0.00    +0.000 A 
ATOM      8  C   UNL     1       1.639   7.070  20.527  0.00  0.00    +0.000 A 
ATOM      9  C   UNL     1       1.141   5.882  21.089  0.00  0.00    +0.000 A 
ATOM     10  C   UNL     1       1.604   4.641  20.645  0.00  0.00    +0.000 A 
ATOM     11  C   UNL     1       2.570   4.591  19.633  0.00  0.00    +0.000 A 
ATOM     12  H   UNL     1       4.396   2.537  17.783  0.00  0.00    +0.000 HD
ENDROOT
BRANCH   8  13
ATOM     13  C   UNL     1       1.147   8.414  21.003  0.00  0.00    +0.000 C 
ATOM     14  F   UNL     1       1.226   9.388  20.055  0.00  0.00    +0.000 F 
ATOM     15  F   UNL     1      -0.155   8.382  21.396  0.00  0.00    +0.000 F 
ATOM     16  F   UNL     1       1.852   8.877  22.072  0.00  0.00    +0.000 F 
ENDBRANCH   8  13
BRANCH   4  17
ATOM     17  C   UNL     1       5.478   4.476  16.484  0.00  0.00    +0.000 C 
ATOM     18 CL   UNL     1       7.153   4.379  16.921  0.00  0.00    +0.000 Cl
ATOM     19  C   UNL     1       5.065   4.432  15.203  0.00  0.00    +0.000 C 
BRANCH  19  20
ATOM     20  C   UNL     1       5.953   4.296  14.040  0.00  0.00    +0.000 A 
ATOM     21  C   UNL     1       6.997   5.210  13.834  0.00  0.00    +0.000 A 
ATOM     22  C   UNL     1       7.811   5.112  12.699  0.00  0.00    +0.000 A 
ATOM     23  C   UNL     1       7.591   4.097  11.771  0.00  0.00    +0.000 A 
ATOM     24  C   UNL     1       6.568   3.182  11.990  0.00  0.00    +0.000 A 
ATOM     25  F   UNL     1       6.363   2.200  11.102  0.00  0.00    +0.000 F 
ATOM     26  C   UNL     1       5.749   3.271  13.112  0.00  0.00    +0.000 A 
ENDBRANCH  19  20
ENDBRANCH   4  17
TORSDOF 3
ENDMDL
MODEL 8
REMARK VINA RESULT:      -8.2      1.382      1.864
REMARK  Name = 
REMARK  3 active torsions:
REMARK  status: ('A' for Active; 'I' for Inactive)
REMARK    1  A    between atoms: C_4  and  C_5
REMARK    2  A    between atoms: C_7  and  C_8
REMARK    3  A    between atoms: C_18  and  C_19
REMARK                            x       y       z     vdW  Elec       q    Type
REMARK                         _______ _______ _______ _____ _____    ______ ____
ROOT
ATOM      1  O   UNL     1       3.100   3.479  20.440  0.00  0.00    +0.000 OA
ATOM      2  C   UNL     1       3.321   4.390  19.650  0.00  0.00    +0.000 A 
ATOM      3  N   UNL     1       4.184   4.252  18.590  0.00  0.00    +0.000 N 
ATOM      4  C   UNL     1       4.454   5.245  17.676  0.00  0.00    +0.000 A 
ATOM      5  N   UNL     1       3.910   6.418  17.765  0.00  0.00    +0.000 NA
ATOM      6  C   UNL     1       3.015   6.668  18.820  0.00  0.00    +0.000 A 
ATOM      7  C   UNL     1       2.433   7.933  18.910  0.00  0.00    +0.000 A 
ATOM      8  C   UNL     1       1.519   8.245  19.932  0.00  0.00    +0.000 A 
ATOM      9  C   UNL     1       1.191   7.257  20.875  0.00  0.00    +0.000 A 
ATOM     10  C   UNL     1       1.768   5.987  20.800  0.00  0.00    +0.000 A 
ATOM     11  C   UNL     1       2.678   5.707  19.774  0.00  0.00    +0.000 A 
ATOM     12  H   UNL     1       4.626   3.348  18.500  0.00  0.00    +0.000 HD
ENDROOT
BRANCH   8  13
ATOM     13  C   UNL     1       0.903   9.619  20.009  0.00  0.00    +0.000 C 
ATOM     14  F   UNL     1      -0.441   9.626  19.781  0.00  0.00    +0.000 F 
ATOM     15  F   UNL     1       1.076  10.200  21.227  0.00  0.00    +0.000 F 
ATOM     16  F   UNL     1       1.438  10.482  19.100  0.00  0.00    +0.000 F 
ENDBRANCH   8  13
BRANCH   4  17
ATOM     17  C   UNL     1       5.409   4.865  16.575  0.00  0.00    +0.000 C 
ATOM     18 CL   UNL     1       7.012   4.385  17.029  0.00  0.00    +0.000 Cl
ATOM     19  C   UNL     1       5.003   4.896  15.292  0.00  0.00    +0.000 C 
BRANCH  19  20
ATOM     20  C   UNL     1       5.839   4.535  14.139  0.00  0.00    +0.000 A 
ATOM     21  C   UNL     1       7.019   5.244  13.868  0.00  0.00    +0.000 A 
ATOM     22  C   UNL     1       7.790   4.934  12.741  0.00  0.00    +0.000 A 
ATOM     23  C   UNL     1       7.390   3.910  11.886  0.00  0.00    +0.000 A 
ATOM     24  C   UNL     1       6.231   3.198  12.169  0.00  0.00    +0.000 A 
ATOM     25  F   UNL     1       5.852   2.206  11.352  0.00  0.00    +0.000 F 
ATOM     26  C   UNL     1       5.453   3.498  13.284  0.00  0.00    +0.000 A 
ENDBRANCH  19  20
ENDBRANCH   4  17
TORSDOF 3
ENDMDL
MODEL 9
REMARK VINA RESULT:      -8.1      5.453      9.963
REMARK  Name = 
REMARK  3 active torsions:
REMARK  status: ('A' for Active; 'I' for Inactive)
REMARK    1  A    between atoms: C_4  and  C_5
REMARK    2  A    between atoms: C_7  and  C_8
REMARK    3  A    between atoms: C_18  and  C_19
REMARK                            x       y       z     vdW  Elec       q    Type
REMARK                         _______ _______ _______ _____ _____    ______ ____
ROOT
ATOM      1  O   UNL     1       2.395   8.800  17.462  0.00  0.00    +0.000 OA
ATOM      2  C   UNL     1       2.066   8.365  18.560  0.00  0.00    +0.000 A 
ATOM      3  N   UNL     1       1.483   9.154  19.520  0.00  0.00    +0.000 N 
ATOM      4  C   UNL     1       1.091   8.704  20.761  0.00  0.00    +0.000 A 
ATOM      5  N   UNL     1       1.264   7.472  21.124  0.00  0.00    +0.000 NA
ATOM      6  C   UNL     1       1.860   6.580  20.216  0.00  0.00    +0.000 A 
ATOM      7  C   UNL     1       2.045   5.255  20.613  0.00  0.00    +0.000 A 
ATOM      8  C   UNL     1       2.622   4.307  19.750  0.00  0.00    +0.000 A 
ATOM      9  C   UNL     1       3.016   4.712  18.463  0.00  0.00    +0.000 A 
ATOM     10  C   UNL     1       2.841   6.035  18.053  0.00  0.00    +0.000 A 
ATOM     11  C   UNL     1       2.268   6.957  18.936  0.00  0.00    +0.000 A 
ATOM     12  H   UNL     1       1.341  10.122  19.265  0.00  0.00    +0.000 HD
ENDROOT
BRANCH   8  13
ATOM     13  C   UNL     1       2.811   2.880  20.201  0.00  0.00    +0.000 C 
ATOM     14  F   UNL     1       1.821   2.043  19.783  0.00  0.00    +0.000 F 
ATOM     15  F   UNL     1       3.973   2.339  19.745  0.00  0.00    +0.000 F 
ATOM     16  F   UNL     1       2.848   2.764  21.557  0.00  0.00    +0.000 F 
ENDBRANCH   8  13
BRANCH   4  17
ATOM     17  C   UNL     1       0.444   9.737  21.646  0.00  0.00    +0.000 C 
ATOM     18 CL   UNL     1       0.345   9.396  23.343  0.00  0.00    +0.000 Cl
ATOM     19  C   UNL     1      -0.024  10.882  21.114  0.00  0.00    +0.000 C 
BRANCH  19  20
ATOM     20  C   UNL     1      -0.659  11.964  21.878  0.00  0.00    +0.000 A 
ATOM     21  C   UNL     1      -0.079  13.241  21.916  0.00  0.00    +0.000 A 
ATOM     22  C   UNL     1      -0.655  14.258  22.686  0.00  0.00    +0.000 A 
ATOM     23  C   UNL     1      -1.817  14.008  23.412  0.00  0.00    +0.000 A 
ATOM     24  C   UNL     1      -2.398  12.747  23.355  0.00  0.00    +0.000 A 
ATOM     25  F   UNL     1      -3.522  12.509  24.046  0.00  0.00    +0.000 F 
ATOM     26  C   UNL     1      -1.834  11.725  22.597  0.00  0.00    +0.000 A 
ENDBRANCH  19  20
ENDBRANCH   4  17
TORSDOF 3
ENDMDL
