MODEL 1
REMARK VINA RESULT:      -8.7      0.000      0.000
REMARK  Name = 
REMARK  3 active torsions:
REMARK  status: ('A' for Active; 'I' for Inactive)
REMARK    1  A    between atoms: C_7  and  S_8
REMARK    2  A    between atoms: S_8  and  N_11
REMARK    3  A    between atoms: N_11  and  C_12
REMARK                            x       y       z     vdW  Elec       q    Type
REMARK                         _______ _______ _______ _____ _____    ______ ____
ROOT
ATOM      1  S   UNL     1       2.500   4.158  20.009  0.00  0.00    +0.000 S 
ATOM      2  O   UNL     1       1.092   4.025  19.692  0.00  0.00    +0.000 OA
ATOM      3  O   UNL     1       3.154   3.199  20.871  0.00  0.00    +0.000 OA
ENDROOT
BRANCH   1  10
ATOM      4  O   UNL     1       7.919   4.841  14.807  0.00  0.00    +0.000 OA
ATOM      5  C   UNL     1       6.927   4.675  15.513  0.00  0.00    +0.000 C 
ATOM      6  N   UNL     1       5.716   4.130  15.072  0.00  0.00    +0.000 N 
ATOM      7  C   UNL     1       4.775   4.064  16.083  0.00  0.00    +0.000 A 
ATOM      8  C   UNL     1       3.475   3.601  16.077  0.00  0.00    +0.000 A 
ATOM      9  C   UNL     1       2.797   3.678  17.312  0.00  0.00    +0.000 A 
ATOM     10  C   UNL     1       3.420   4.195  18.482  0.00  0.00    +0.000 A 
ATOM     11  C   UNL     1       4.762   4.664  18.448  0.00  0.00    +0.000 A 
ATOM     12  C   UNL     1       5.590   5.211  19.461  0.00  0.00    +0.000 A 
ATOM     13  C   UNL     1       6.910   5.622  19.179  0.00  0.00    +0.000 A 
ATOM     14  C   UNL     1       7.471   5.500  17.897  0.00  0.00    +0.000 A 
ATOM     15  C   UNL     1       6.657   4.950  16.912  0.00  0.00    +0.000 A 
ATOM     16  C   UNL     1       5.361   4.569  17.223  0.00  0.00    +0.000 A 
ATOM     17  H   UNL     1       5.586   3.825  14.117  0.00  0.00    +0.000 HD
ENDBRANCH   1  10
BRANCH   1  18
ATOM     18  N   UNL     1       2.752   5.673  20.716  0.00  0.00    +0.000 N 
ATOM     19  H   UNL     1       2.724   5.633  21.733  0.00  0.00    +0.000 HD
BRANCH  18  20
ATOM     20  C   UNL     1       2.227   6.824  20.075  0.00  0.00    +0.000 A 
ATOM     21  C   UNL     1       2.505   7.097  18.732  0.00  0.00    +0.000 A 
ATOM     22  C   UNL     1       2.086   8.310  18.170  0.00  0.00    +0.000 A 
ATOM     23  C   UNL     1       1.396   9.234  18.955  0.00  0.00    +0.000 A 
ATOM     24  C   UNL     1       1.033   8.892  20.256  0.00  0.00    +0.000 A 
ATOM     25  C   UNL     1       1.463   7.703  20.829  0.00  0.00    +0.000 A 
ATOM     26  O   UNL     1       0.260   9.711  21.031  0.00  0.00    +0.000 OA
ATOM     27  C   UNL     1       0.707  11.044  20.824  0.00  0.00    +0.000 C 
ATOM     28  C   UNL     1       0.672  11.442  19.350  0.00  0.00    +0.000 C 
ATOM     29  O   UNL     1       1.141  10.460  18.414  0.00  0.00    +0.000 OA
ENDBRANCH  18  20
ENDBRANCH   1  18
TORSDOF 3
ENDMDL
MODEL 2
REMARK VINA RESULT:      -8.4      2.981      4.814
REMARK  Name = 
REMARK  3 active torsions:
REMARK  status: ('A' for Active; 'I' for Inactive)
REMARK    1  A    between atoms: C_7  and  S_8
REMARK    2  A    between atoms: S_8  and  N_11
REMARK    3  A    between atoms: N_11  and  C_12
REMARK                            x       y       z     vdW  Elec       q    Type
REMARK                         _______ _______ _______ _____ _____    ______ ____
ROOT
ATOM      1  S   UNL     1       0.924   8.797  20.948  0.00  0.00    +0.000 S 
ATOM      2  O   UNL     1      -0.440   8.307  20.946  0.00  0.00    +0.000 OA
ATOM      3  O   UNL     1       1.677   8.873  22.180  0.00  0.00    +0.000 OA
ENDROOT
BRANCH   1  10
ATOM      4  O   UNL     1       4.230   3.087  17.294  0.00  0.00    +0.000 OA
ATOM      5  C   UNL     1       3.769   4.127  17.759  0.00  0.00    +0.000 C 
ATOM      6  N   UNL     1       3.880   5.387  17.161  0.00  0.00    +0.000 N 
ATOM      7  C   UNL     1       3.267   6.375  17.909  0.00  0.00    +0.000 A 
ATOM      8  C   UNL     1       3.144   7.731  17.685  0.00  0.00    +0.000 A 
ATOM      9  C   UNL     1       2.435   8.448  18.671  0.00  0.00    +0.000 A 
ATOM     10  C   UNL     1       1.881   7.809  19.815  0.00  0.00    +0.000 A 
ATOM     11  C   UNL     1       2.031   6.408  20.011  0.00  0.00    +0.000 A 
ATOM     12  C   UNL     1       1.577   5.554  21.049  0.00  0.00    +0.000 A 
ATOM     13  C   UNL     1       1.863   4.172  21.030  0.00  0.00    +0.000 A 
ATOM     14  C   UNL     1       2.591   3.575  19.988  0.00  0.00    +0.000 A 
ATOM     15  C   UNL     1       3.021   4.418  18.968  0.00  0.00    +0.000 A 
ATOM     16  C   UNL     1       2.732   5.772  19.027  0.00  0.00    +0.000 A 
ATOM     17  H   UNL     1       4.356   5.517  16.279  0.00  0.00    +0.000 HD
ENDBRANCH   1  10
BRANCH   1  18
ATOM     18  N   UNL     1       0.936  10.358  20.296  0.00  0.00    +0.000 N 
ATOM     19  H   UNL     1       1.494  11.003  20.851  0.00  0.00    +0.000 HD
BRANCH  18  20
ATOM     20  C   UNL     1      -0.243  10.849  19.678  0.00  0.00    +0.000 A 
ATOM     21  C   UNL     1      -1.115  11.706  20.355  0.00  0.00    +0.000 A 
ATOM     22  C   UNL     1      -2.335  12.061  19.766  0.00  0.00    +0.000 A 
ATOM     23  C   UNL     1      -2.670  11.555  18.511  0.00  0.00    +0.000 A 
ATOM     24  C   UNL     1      -1.738  10.794  17.808  0.00  0.00    +0.000 A 
ATOM     25  C   UNL     1      -0.536  10.419  18.391  0.00  0.00    +0.000 A 
ATOM     26  O   UNL     1      -1.967  10.369  16.529  0.00  0.00    +0.000 OA
ATOM     27  C   UNL     1      -3.322   9.944  16.456  0.00  0.00    +0.000 C 
ATOM     28  C   UNL     1      -4.295  11.040  16.882  0.00  0.00    +0.000 C 
ATOM     29  O   UNL     1      -3.928  11.801  18.043  0.00  0.00    +0.000 OA
ENDBRANCH  18  20
ENDBRANCH   1  18
TORSDOF 3
ENDMDL
MODEL 3
REMARK VINA RESULT:      -8.0      4.063      9.098
REMARK  Name = 
REMARK  3 active torsions:
REMARK  status: ('A' for Active; 'I' for Inactive)
REMARK    1  A    between atoms: C_7  and  S_8
REMARK    2  A    between atoms: S_8  and  N_11
REMARK    3  A    between atoms: N_11  and  C_12
REMARK                            x       y       z     vdW  Elec       q    Type
REMARK                         _______ _______ _______ _____ _____    ______ ____
ROOT
ATOM      1  S   UNL     1       0.720  11.003  20.147  0.00  0.00    +0.000 S 
ATOM      2  O   UNL     1       1.549  11.346  19.009  0.00  0.00    +0.000 OA
ATOM      3  O   UNL     1       1.080  11.439  21.478  0.00  0.00    +0.000 OA
ENDROOT
BRANCH   1  10
ATOM      4  O   UNL     1      -6.227  12.039  17.398  0.00  0.00    +0.000 OA
ATOM      5  C   UNL     1      -5.140  12.003  17.970  0.00  0.00    +0.000 C 
ATOM      6  N   UNL     1      -4.829  12.707  19.138  0.00  0.00    +0.000 N 
ATOM      7  C   UNL     1      -3.532  12.477  19.557  0.00  0.00    +0.000 A 
ATOM      8  C   UNL     1      -2.834  12.963  20.643  0.00  0.00    +0.000 A 
ATOM      9  C   UNL     1      -1.507  12.502  20.769  0.00  0.00    +0.000 A 
ATOM     10  C   UNL     1      -0.934  11.592  19.837  0.00  0.00    +0.000 A 
ATOM     11  C   UNL     1      -1.686  11.113  18.729  0.00  0.00    +0.000 A 
ATOM     12  C   UNL     1      -1.347  10.217  17.684  0.00  0.00    +0.000 A 
ATOM     13  C   UNL     1      -2.275   9.895  16.671  0.00  0.00    +0.000 A 
ATOM     14  C   UNL     1      -3.573  10.432  16.653  0.00  0.00    +0.000 A 
ATOM     15  C   UNL     1      -3.902  11.300  17.688  0.00  0.00    +0.000 A 
ATOM     16  C   UNL     1      -2.960  11.602  18.659  0.00  0.00    +0.000 A 
ATOM     17  H   UNL     1      -5.506  13.301  19.598  0.00  0.00    +0.000 HD
ENDBRANCH   1  10
BRANCH   1  18
ATOM     18  N   UNL     1       0.585   9.319  20.227  0.00  0.00    +0.000 N 
ATOM     19  H   UNL     1       0.265   9.001  21.139  0.00  0.00    +0.000 HD
BRANCH  18  20
ATOM     20  C   UNL     1       1.532   8.524  19.533  0.00  0.00    +0.000 A 
ATOM     21  C   UNL     1       1.967   8.866  18.249  0.00  0.00    +0.000 A 
ATOM     22  C   UNL     1       2.795   7.987  17.539  0.00  0.00    +0.000 A 
ATOM     23  C   UNL     1       3.177   6.778  18.119  0.00  0.00    +0.000 A 
ATOM     24  C   UNL     1       2.823   6.509  19.440  0.00  0.00    +0.000 A 
ATOM     25  C   UNL     1       1.986   7.363  20.143  0.00  0.00    +0.000 A 
ATOM     26  O   UNL     1       3.266   5.393  20.095  0.00  0.00    +0.000 OA
ATOM     27  C   UNL     1       3.195   4.306  19.183  0.00  0.00    +0.000 C 
ATOM     28  C   UNL     1       3.984   4.573  17.903  0.00  0.00    +0.000 C 
ATOM     29  O   UNL     1       3.855   5.887  17.338  0.00  0.00    +0.000 OA
ENDBRANCH  18  20
ENDBRANCH   1  18
TORSDOF 3
ENDMDL
MODEL 4
REMARK VINA RESULT:      -8.0      1.759      7.079
REMARK  Name = 
REMARK  3 active torsions:
REMARK  status: ('A' for Active; 'I' for Inactive)
REMARK    1  A    between atoms: C_7  and  S_8
REMARK    2  A    between atoms: S_8  and  N_11
REMARK    3  A    between atoms: N_11  and  C_12
REMARK                            x       y       z     vdW  Elec       q    Type
REMARK                         _______ _______ _______ _____ _____    ______ ____
ROOT
ATOM      1  S   UNL     1       2.442   5.534  19.665  0.00  0.00    +0.000 S 
ATOM      2  O   UNL     1       1.678   5.209  20.853  0.00  0.00    +0.000 OA
ATOM      3  O   UNL     1       2.324   4.728  18.471  0.00  0.00    +0.000 OA
ENDROOT
BRANCH   1  10
ATOM      4  O   UNL     1       0.415  12.799  19.673  0.00  0.00    +0.000 OA
ATOM      5  C   UNL     1       0.787  11.642  19.491  0.00  0.00    +0.000 C 
ATOM      6  N   UNL     1       1.366  11.166  18.310  0.00  0.00    +0.000 N 
ATOM      7  C   UNL     1       1.684   9.823  18.389  0.00  0.00    +0.000 A 
ATOM      8  C   UNL     1       2.262   8.976  17.466  0.00  0.00    +0.000 A 
ATOM      9  C   UNL     1       2.450   7.645  17.895  0.00  0.00    +0.000 A 
ATOM     10  C   UNL     1       2.072   7.214  19.197  0.00  0.00    +0.000 A 
ATOM     11  C   UNL     1       1.477   8.117  20.121  0.00  0.00    +0.000 A 
ATOM     12  C   UNL     1       1.025   7.933  21.452  0.00  0.00    +0.000 A 
ATOM     13  C   UNL     1       0.449   8.997  22.180  0.00  0.00    +0.000 A 
ATOM     14  C   UNL     1       0.310  10.283  21.632  0.00  0.00    +0.000 A 
ATOM     15  C   UNL     1       0.768  10.459  20.331  0.00  0.00    +0.000 A 
ATOM     16  C   UNL     1       1.316   9.387  19.644  0.00  0.00    +0.000 A 
ATOM     17  H   UNL     1       1.524  11.769  17.514  0.00  0.00    +0.000 HD
ENDBRANCH   1  10
BRANCH   1  18
ATOM     18  N   UNL     1       4.085   5.537  20.067  0.00  0.00    +0.000 N 
ATOM     19  H   UNL     1       4.317   6.268  20.736  0.00  0.00    +0.000 HD
BRANCH  18  20
ATOM     20  C   UNL     1       5.035   5.219  19.063  0.00  0.00    +0.000 A 
ATOM     21  C   UNL     1       6.402   5.438  19.261  0.00  0.00    +0.000 A 
ATOM     22  C   UNL     1       7.296   5.243  18.200  0.00  0.00    +0.000 A 
ATOM     23  C   UNL     1       6.815   4.835  16.957  0.00  0.00    +0.000 A 
ATOM     24  C   UNL     1       5.466   4.517  16.815  0.00  0.00    +0.000 A 
ATOM     25  C   UNL     1       4.570   4.727  17.852  0.00  0.00    +0.000 A 
ATOM     26  O   UNL     1       4.963   4.003  15.652  0.00  0.00    +0.000 OA
ATOM     27  C   UNL     1       5.567   4.708  14.576  0.00  0.00    +0.000 C 
ATOM     28  C   UNL     1       7.092   4.637  14.624  0.00  0.00    +0.000 C 
ATOM     29  O   UNL     1       7.696   4.806  15.915  0.00  0.00    +0.000 OA
ENDBRANCH  18  20
ENDBRANCH   1  18
TORSDOF 3
ENDMDL
MODEL 5
REMARK VINA RESULT:      -8.0      2.681      8.683
REMARK  Name = 
REMARK  3 active torsions:
REMARK  status: ('A' for Active; 'I' for Inactive)
REMARK    1  A    between atoms: C_7  and  S_8
REMARK    2  A    between atoms: S_8  and  N_11
REMARK    3  A    between atoms: N_11  and  C_12
REMARK                            x       y       z     vdW  Elec       q    Type
REMARK                         _______ _______ _______ _____ _____    ______ ____
ROOT
ATOM      1  S   UNL     1       1.698   8.818  18.555  0.00  0.00    +0.000 S 
ATOM      2  O   UNL     1       0.707   8.280  17.644  0.00  0.00    +0.000 OA
ATOM      3  O   UNL     1       2.645   9.814  18.107  0.00  0.00    +0.000 OA
ENDROOT
BRANCH   1  10
ATOM      4  O   UNL     1      -2.826  12.798  23.091  0.00  0.00    +0.000 OA
ATOM      5  C   UNL     1      -2.033  12.063  22.508  0.00  0.00    +0.000 C 
ATOM      6  N   UNL     1      -1.312  11.027  23.113  0.00  0.00    +0.000 N 
ATOM      7  C   UNL     1      -0.493  10.368  22.214  0.00  0.00    +0.000 A 
ATOM      8  C   UNL     1       0.369   9.305  22.390  0.00  0.00    +0.000 A 
ATOM      9  C   UNL     1       1.051   8.877  21.233  0.00  0.00    +0.000 A 
ATOM     10  C   UNL     1       0.854   9.501  19.969  0.00  0.00    +0.000 A 
ATOM     11  C   UNL     1      -0.042  10.596  19.827  0.00  0.00    +0.000 A 
ATOM     12  C   UNL     1      -0.405  11.370  18.696  0.00  0.00    +0.000 A 
ATOM     13  C   UNL     1      -1.327  12.433  18.806  0.00  0.00    +0.000 A 
ATOM     14  C   UNL     1      -1.936  12.767  20.027  0.00  0.00    +0.000 A 
ATOM     15  C   UNL     1      -1.584  11.995  21.130  0.00  0.00    +0.000 A 
ATOM     16  C   UNL     1      -0.666  10.967  20.985  0.00  0.00    +0.000 A 
ATOM     17  H   UNL     1      -1.412  10.812  24.095  0.00  0.00    +0.000 HD
ENDBRANCH   1  10
BRANCH   1  18
ATOM     18  N   UNL     1       2.620   7.537  19.164  0.00  0.00    +0.000 N 
ATOM     19  H   UNL     1       3.197   7.819  19.953  0.00  0.00    +0.000 HD
BRANCH  18  20
ATOM     20  C   UNL     1       3.142   6.579  18.257  0.00  0.00    +0.000 A 
ATOM     21  C   UNL     1       2.626   5.281  18.195  0.00  0.00    +0.000 A 
ATOM     22  C   UNL     1       3.255   4.323  17.389  0.00  0.00    +0.000 A 
ATOM     23  C   UNL     1       4.391   4.672  16.658  0.00  0.00    +0.000 A 
ATOM     24  C   UNL     1       4.819   5.998  16.650  0.00  0.00    +0.000 A 
ATOM     25  C   UNL     1       4.217   6.948  17.461  0.00  0.00    +0.000 A 
ATOM     26  O   UNL     1       5.855   6.418  15.863  0.00  0.00    +0.000 OA
ATOM     27  C   UNL     1       6.867   5.422  15.920  0.00  0.00    +0.000 C 
ATOM     28  C   UNL     1       6.349   4.048  15.503  0.00  0.00    +0.000 C 
ATOM     29  O   UNL     1       5.058   3.674  16.010  0.00  0.00    +0.000 OA
ENDBRANCH  18  20
ENDBRANCH   1  18
TORSDOF 3
ENDMDL
MODEL 6
REMARK VINA RESULT:      -7.9      1.690      2.059
REMARK  Name = 
REMARK  3 active torsions:
REMARK  status: ('A' for Active; 'I' for Inactive)
REMARK    1  A    between atoms: C_7  and  S_8
REMARK    2  A    between atoms: S_8  and  N_11
REMARK    3  A    between atoms: N_11  and  C_12
REMARK                            x       y       z     vdW  Elec       q    Type
REMARK                         _______ _______ _______ _____ _____    ______ ____
ROOT
ATOM      1  S   UNL     1       2.034   5.143  20.305  0.00  0.00    +0.000 S 
ATOM      2  O   UNL     1       0.643   5.152  19.894  0.00  0.00    +0.000 OA
ATOM      3  O   UNL     1       2.432   4.508  21.541  0.00  0.00    +0.000 OA
ENDROOT
BRANCH   1  10
ATOM      4  O   UNL     1       6.627   3.963  14.440  0.00  0.00    +0.000 OA
ATOM      5  C   UNL     1       5.865   3.969  15.404  0.00  0.00    +0.000 C 
ATOM      6  N   UNL     1       5.437   2.827  16.090  0.00  0.00    +0.000 N 
ATOM      7  C   UNL     1       4.582   3.135  17.132  0.00  0.00    +0.000 A 
ATOM      8  C   UNL     1       3.942   2.321  18.045  0.00  0.00    +0.000 A 
ATOM      9  C   UNL     1       3.137   2.987  18.993  0.00  0.00    +0.000 A 
ATOM     10  C   UNL     1       3.002   4.403  19.004  0.00  0.00    +0.000 A 
ATOM     11  C   UNL     1       3.676   5.208  18.045  0.00  0.00    +0.000 A 
ATOM     12  C   UNL     1       3.703   6.613  17.854  0.00  0.00    +0.000 A 
ATOM     13  C   UNL     1       4.453   7.191  16.807  0.00  0.00    +0.000 A 
ATOM     14  C   UNL     1       5.213   6.413  15.918  0.00  0.00    +0.000 A 
ATOM     15  C   UNL     1       5.191   5.037  16.120  0.00  0.00    +0.000 A 
ATOM     16  C   UNL     1       4.433   4.505  17.151  0.00  0.00    +0.000 A 
ATOM     17  H   UNL     1       5.745   1.902  15.826  0.00  0.00    +0.000 HD
ENDBRANCH   1  10
BRANCH   1  18
ATOM     18  N   UNL     1       2.574   6.743  20.406  0.00  0.00    +0.000 N 
ATOM     19  H   UNL     1       3.390   6.837  21.008  0.00  0.00    +0.000 HD
BRANCH  18  20
ATOM     20  C   UNL     1       1.616   7.790  20.405  0.00  0.00    +0.000 A 
ATOM     21  C   UNL     1       1.462   8.631  19.299  0.00  0.00    +0.000 A 
ATOM     22  C   UNL     1       0.607   9.738  19.384  0.00  0.00    +0.000 A 
ATOM     23  C   UNL     1      -0.081   9.990  20.570  0.00  0.00    +0.000 A 
ATOM     24  C   UNL     1       0.002   9.076  21.619  0.00  0.00    +0.000 A 
ATOM     25  C   UNL     1       0.863   7.991  21.553  0.00  0.00    +0.000 A 
ATOM     26  O   UNL     1      -0.739   9.214  22.759  0.00  0.00    +0.000 OA
ATOM     27  C   UNL     1      -0.730  10.591  23.112  0.00  0.00    +0.000 C 
ATOM     28  C   UNL     1      -1.242  11.480  21.981  0.00  0.00    +0.000 C 
ATOM     29  O   UNL     1      -0.782  11.158  20.660  0.00  0.00    +0.000 OA
ENDBRANCH  18  20
ENDBRANCH   1  18
TORSDOF 3
ENDMDL
MODEL 7
REMARK VINA RESULT:      -7.9      3.014      4.896
REMARK  Name = 
REMARK  3 active torsions:
REMARK  status: ('A' for Active; 'I' for Inactive)
REMARK    1  A    between atoms: C_7  and  S_8
REMARK    2  A    between atoms: S_8  and  N_11
REMARK    3  A    between atoms: N_11  and  C_12
REMARK                            x       y       z     vdW  Elec       q    Type
REMARK                         _______ _______ _______ _____ _____    ______ ____
ROOT
ATOM      1  S   UNL     1       0.969   8.802  20.877  0.00  0.00    +0.000 S 
ATOM      2  O   UNL     1      -0.392   8.303  20.903  0.00  0.00    +0.000 OA
ATOM      3  O   UNL     1       1.736   8.913  22.097  0.00  0.00    +0.000 OA
ENDROOT
BRANCH   1  10
ATOM      4  O   UNL     1       4.233   3.019  17.300  0.00  0.00    +0.000 OA
ATOM      5  C   UNL     1       3.780   4.068  17.751  0.00  0.00    +0.000 C 
ATOM      6  N   UNL     1       3.900   5.319  17.136  0.00  0.00    +0.000 N 
ATOM      7  C   UNL     1       3.295   6.322  17.871  0.00  0.00    +0.000 A 
ATOM      8  C   UNL     1       3.181   7.676  17.628  0.00  0.00    +0.000 A 
ATOM      9  C   UNL     1       2.478   8.411  18.605  0.00  0.00    +0.000 A 
ATOM     10  C   UNL     1       1.919   7.791  19.757  0.00  0.00    +0.000 A 
ATOM     11  C   UNL     1       2.058   6.392  19.973  0.00  0.00    +0.000 A 
ATOM     12  C   UNL     1       1.598   5.555  21.021  0.00  0.00    +0.000 A 
ATOM     13  C   UNL     1       1.873   4.171  21.021  0.00  0.00    +0.000 A 
ATOM     14  C   UNL     1       2.598   3.555  19.987  0.00  0.00    +0.000 A 
ATOM     15  C   UNL     1       3.034   4.381  18.956  0.00  0.00    +0.000 A 
ATOM     16  C   UNL     1       2.755   5.738  18.997  0.00  0.00    +0.000 A 
ATOM     17  H   UNL     1       4.377   5.434  16.253  0.00  0.00    +0.000 HD
ENDBRANCH   1  10
BRANCH   1  18
ATOM     18  N   UNL     1       0.963  10.345  20.186  0.00  0.00    +0.000 N 
ATOM     19  H   UNL     1       1.829  10.850  20.363  0.00  0.00    +0.000 HD
BRANCH  18  20
ATOM     20  C   UNL     1      -0.250  11.080  20.163  0.00  0.00    +0.000 A 
ATOM     21  C   UNL     1      -0.706  11.764  21.294  0.00  0.00    +0.000 A 
ATOM     22  C   UNL     1      -1.973  12.362  21.278  0.00  0.00    +0.000 A 
ATOM     23  C   UNL     1      -2.768  12.269  20.136  0.00  0.00    +0.000 A 
ATOM     24  C   UNL     1      -2.247  11.680  18.986  0.00  0.00    +0.000 A 
ATOM     25  C   UNL     1      -1.004  11.065  18.998  0.00  0.00    +0.000 A 
ATOM     26  O   UNL     1      -2.938  11.663  17.806  0.00  0.00    +0.000 OA
ATOM     27  C   UNL     1      -4.296  11.377  18.109  0.00  0.00    +0.000 C 
ATOM     28  C   UNL     1      -4.886  12.370  19.108  0.00  0.00    +0.000 C 
ATOM     29  O   UNL     1      -4.049  12.732  20.216  0.00  0.00    +0.000 OA
ENDBRANCH  18  20
ENDBRANCH   1  18
TORSDOF 3
ENDMDL
MODEL 8
REMARK VINA RESULT:      -7.9      3.335      8.639
REMARK  Name = 
REMARK  3 active torsions:
REMARK  status: ('A' for Active; 'I' for Inactive)
REMARK    1  A    between atoms: C_7  and  S_8
REMARK    2  A    between atoms: S_8  and  N_11
REMARK    3  A    between atoms: N_11  and  C_12
REMARK                            x       y       z     vdW  Elec       q    Type
REMARK                         _______ _______ _______ _____ _____    ______ ____
ROOT
ATOM      1  S   UNL     1       1.617   9.048  18.300  0.00  0.00    +0.000 S 
ATOM      2  O   UNL     1       0.595   8.389  17.512  0.00  0.00    +0.000 OA
ATOM      3  O   UNL     1       2.402  10.123  17.737  0.00  0.00    +0.000 OA
ENDROOT
BRANCH   1  10
ATOM      4  O   UNL     1      -2.790  12.652  23.247  0.00  0.00    +0.000 OA
ATOM      5  C   UNL     1      -1.990  11.990  22.591  0.00  0.00    +0.000 C 
ATOM      6  N   UNL     1      -1.097  11.056  23.129  0.00  0.00    +0.000 N 
ATOM      7  C   UNL     1      -0.315  10.462  22.155  0.00  0.00    +0.000 A 
ATOM      8  C   UNL     1       0.673   9.503  22.252  0.00  0.00    +0.000 A 
ATOM      9  C   UNL     1       1.267   9.117  21.032  0.00  0.00    +0.000 A 
ATOM     10  C   UNL     1       0.864   9.679  19.788  0.00  0.00    +0.000 A 
ATOM     11  C   UNL     1      -0.157  10.666  19.729  0.00  0.00    +0.000 A 
ATOM     12  C   UNL     1      -0.726  11.362  18.633  0.00  0.00    +0.000 A 
ATOM     13  C   UNL     1      -1.741  12.323  18.827  0.00  0.00    +0.000 A 
ATOM     14  C   UNL     1      -2.245  12.626  20.103  0.00  0.00    +0.000 A 
ATOM     15  C   UNL     1      -1.691  11.930  21.172  0.00  0.00    +0.000 A 
ATOM     16  C   UNL     1      -0.687  11.002  20.943  0.00  0.00    +0.000 A 
ATOM     17  H   UNL     1      -1.064  10.861  24.119  0.00  0.00    +0.000 HD
ENDBRANCH   1  10
BRANCH   1  18
ATOM     18  N   UNL     1       2.727   7.883  18.823  0.00  0.00    +0.000 N 
ATOM     19  H   UNL     1       3.643   8.005  18.397  0.00  0.00    +0.000 HD
BRANCH  18  20
ATOM     20  C   UNL     1       2.269   6.563  19.066  0.00  0.00    +0.000 A 
ATOM     21  C   UNL     1       1.840   6.165  20.335  0.00  0.00    +0.000 A 
ATOM     22  C   UNL     1       1.527   4.819  20.570  0.00  0.00    +0.000 A 
ATOM     23  C   UNL     1       1.647   3.890  19.538  0.00  0.00    +0.000 A 
ATOM     24  C   UNL     1       1.969   4.329  18.255  0.00  0.00    +0.000 A 
ATOM     25  C   UNL     1       2.303   5.654  18.017  0.00  0.00    +0.000 A 
ATOM     26  O   UNL     1       1.990   3.480  17.184  0.00  0.00    +0.000 OA
ATOM     27  C   UNL     1       2.592   2.266  17.611  0.00  0.00    +0.000 C 
ATOM     28  C   UNL     1       1.875   1.658  18.814  0.00  0.00    +0.000 C 
ATOM     29  O   UNL     1       1.480   2.572  19.849  0.00  0.00    +0.000 OA
ENDBRANCH  18  20
ENDBRANCH   1  18
TORSDOF 3
ENDMDL
MODEL 9
REMARK VINA RESULT:      -7.8      3.192      5.044
REMARK  Name = 
REMARK  3 active torsions:
REMARK  status: ('A' for Active; 'I' for Inactive)
REMARK    1  A    between atoms: C_7  and  S_8
REMARK    2  A    between atoms: S_8  and  N_11
REMARK    3  A    between atoms: N_11  and  C_12
REMARK                            x       y       z     vdW  Elec       q    Type
REMARK                         _______ _______ _______ _____ _____    ______ ____
ROOT
ATOM      1  S   UNL     1       0.813   8.666  21.186  0.00  0.00    +0.000 S 
ATOM      2  O   UNL     1      -0.466   7.989  21.266  0.00  0.00    +0.000 OA
ATOM      3  O   UNL     1       1.642   8.815  22.362  0.00  0.00    +0.000 OA
ENDROOT
BRANCH   1  10
ATOM      4  O   UNL     1       4.499   3.560  17.035  0.00  0.00    +0.000 OA
ATOM      5  C   UNL     1       3.957   4.516  17.584  0.00  0.00    +0.000 C 
ATOM      6  N   UNL     1       3.905   5.813  17.061  0.00  0.00    +0.000 N 
ATOM      7  C   UNL     1       3.232   6.686  17.897  0.00  0.00    +0.000 A 
ATOM      8  C   UNL     1       2.957   8.031  17.763  0.00  0.00    +0.000 A 
ATOM      9  C   UNL     1       2.230   8.611  18.824  0.00  0.00    +0.000 A 
ATOM     10  C   UNL     1       1.807   7.851  19.950  0.00  0.00    +0.000 A 
ATOM     11  C   UNL     1       2.112   6.466  20.053  0.00  0.00    +0.000 A 
ATOM     12  C   UNL     1       1.805   5.511  21.055  0.00  0.00    +0.000 A 
ATOM     13  C   UNL     1       2.232   4.170  20.937  0.00  0.00    +0.000 A 
ATOM     14  C   UNL     1       2.962   3.716  19.827  0.00  0.00    +0.000 A 
ATOM     15  C   UNL     1       3.248   4.656  18.842  0.00  0.00    +0.000 A 
ATOM     16  C   UNL     1       2.823   5.966  18.999  0.00  0.00    +0.000 A 
ATOM     17  H   UNL     1       4.317   6.043  16.168  0.00  0.00    +0.000 HD
ENDBRANCH   1  10
BRANCH   1  18
ATOM     18  N   UNL     1       0.558  10.229  20.592  0.00  0.00    +0.000 N 
ATOM     19  H   UNL     1       1.428  10.688  20.330  0.00  0.00    +0.000 HD
BRANCH  18  20
ATOM     20  C   UNL     1      -0.472  11.018  21.165  0.00  0.00    +0.000 A 
ATOM     21  C   UNL     1      -0.610  11.138  22.551  0.00  0.00    +0.000 A 
ATOM     22  C   UNL     1      -1.718  11.811  23.081  0.00  0.00    +0.000 A 
ATOM     23  C   UNL     1      -2.674  12.354  22.223  0.00  0.00    +0.000 A 
ATOM     24  C   UNL     1      -2.457  12.320  20.847  0.00  0.00    +0.000 A 
ATOM     25  C   UNL     1      -1.375  11.637  20.312  0.00  0.00    +0.000 A 
ATOM     26  O   UNL     1      -3.301  12.936  19.966  0.00  0.00    +0.000 OA
ATOM     27  C   UNL     1      -4.630  12.695  20.407  0.00  0.00    +0.000 C 
ATOM     28  C   UNL     1      -4.855  13.163  21.843  0.00  0.00    +0.000 C 
ATOM     29  O   UNL     1      -3.809  12.865  22.781  0.00  0.00    +0.000 OA
ENDBRANCH  18  20
ENDBRANCH   1  18
TORSDOF 3
ENDMDL
