MODEL 1
REMARK VINA RESULT:      -7.5      0.000      0.000
REMARK  Name = 
REMARK  8 active torsions:
REMARK  status: ('A' for Active; 'I' for Inactive)
REMARK    1  A    between atoms: C_1  and  C_2
REMARK    2  A    between atoms: C_4  and  C_5
REMARK    3  A    between atoms: C_5  and  C_6
REMARK    4  A    between atoms: C_6  and  C_7
REMARK    5  A    between atoms: N_11  and  C_12
REMARK    6  A    between atoms: C_14  and  N_15
REMARK    7  A    between atoms: C_20  and  C_21
REMARK    8  A    between atoms: C_24  and  C_25
REMARK                            x       y       z     vdW  Elec       q    Type
REMARK                         _______ _______ _______ _____ _____    ______ ____
ROOT
ATOM      1  N   UNL     1      -0.918  10.085  18.839  0.00  0.00    +0.000 N 
ATOM      2  C   UNL     1      -0.992  10.571  20.233  0.00  0.00    +0.000 C 
ATOM      3  C   UNL     1       0.120  11.576  20.295  0.00  0.00    +0.000 A 
ATOM      4  C   UNL     1       1.038  11.260  19.286  0.00  0.00    +0.000 A 
ATOM      5  C   UNL     1       2.082  12.100  18.935  0.00  0.00    +0.000 A 
ATOM      6  C   UNL     1       2.176  13.313  19.621  0.00  0.00    +0.000 A 
ATOM      7  C   UNL     1       1.293  13.611  20.687  0.00  0.00    +0.000 A 
ATOM      8  C   UNL     1       0.254  12.736  21.045  0.00  0.00    +0.000 A 
ATOM      9  C   UNL     1       0.467  10.146  18.502  0.00  0.00    +0.000 C 
ATOM     10  O   UNL     1       1.071   9.553  17.618  0.00  0.00    +0.000 OA
ENDROOT
BRANCH   1  16
ATOM     11  C   UNL     1      -3.560  10.045  14.663  0.00  0.00    +0.000 C 
ATOM     12  C   UNL     1      -3.278  10.575  16.036  0.00  0.00    +0.000 A 
ATOM     13  C   UNL     1      -4.311  11.132  16.799  0.00  0.00    +0.000 A 
ATOM     14  C   UNL     1      -4.055  11.655  18.066  0.00  0.00    +0.000 A 
ATOM     15  C   UNL     1      -2.740  11.703  18.518  0.00  0.00    +0.000 A 
ATOM     16  C   UNL     1      -1.797  10.848  17.939  0.00  0.00    +0.000 A 
ATOM     17  C   UNL     1      -2.013  10.416  16.623  0.00  0.00    +0.000 A 
BRANCH  14  18
ATOM     18  C   UNL     1      -5.121  11.978  19.097  0.00  0.00    +0.000 C 
BRANCH  18  19
ATOM     19  C   UNL     1      -6.571  11.558  18.803  0.00  0.00    +0.000 C 
BRANCH  19  20
ATOM     20  C   UNL     1      -7.043  10.407  19.640  0.00  0.00    +0.000 A 
ATOM     21  N   UNL     1      -6.963   9.131  19.320  0.00  0.00    +0.000 NA
ATOM     22  N   UNL     1      -7.508   8.388  20.337  0.00  0.00    +0.000 NA
ATOM     23  C   UNL     1      -7.916   9.223  21.260  0.00  0.00    +0.000 A 
ATOM     24  N   UNL     1      -7.635  10.499  20.874  0.00  0.00    +0.000 N 
ATOM     25  C   UNL     1      -7.916  11.675  21.650  0.00  0.00    +0.000 C 
ENDBRANCH  19  20
ENDBRANCH  18  19
ENDBRANCH  14  18
ENDBRANCH   1  16
BRANCH   8  26
ATOM     26  C   UNL     1      -0.698  13.101  22.157  0.00  0.00    +0.000 C 
ATOM     27  F   UNL     1      -0.807  12.136  23.115  0.00  0.00    +0.000 F 
ATOM     28  F   UNL     1      -0.284  14.216  22.826  0.00  0.00    +0.000 F 
ATOM     29  F   UNL     1      -1.967  13.354  21.747  0.00  0.00    +0.000 F 
ENDBRANCH   8  26
BRANCH   6  30
ATOM     30  C   UNL     1       3.173  14.301  19.168  0.00  0.00    +0.000 C 
ATOM     31  N   UNL     1       3.445  15.411  19.770  0.00  0.00    +0.000 NA
ATOM     32  H   UNL     1       2.826  15.559  20.579  0.00  0.00    +0.000 HD
ENDBRANCH   6  30
TORSDOF 6
ENDMDL
MODEL 2
REMARK VINA RESULT:      -7.4      1.463      1.858
REMARK  Name = 
REMARK  8 active torsions:
REMARK  status: ('A' for Active; 'I' for Inactive)
REMARK    1  A    between atoms: C_1  and  C_2
REMARK    2  A    between atoms: C_4  and  C_5
REMARK    3  A    between atoms: C_5  and  C_6
REMARK    4  A    between atoms: C_6  and  C_7
REMARK    5  A    between atoms: N_11  and  C_12
REMARK    6  A    between atoms: C_14  and  N_15
REMARK    7  A    between atoms: C_20  and  C_21
REMARK    8  A    between atoms: C_24  and  C_25
REMARK                            x       y       z     vdW  Elec       q    Type
REMARK                         _______ _______ _______ _____ _____    ______ ____
ROOT
ATOM      1  N   UNL     1      -0.982  10.192  18.911  0.00  0.00    +0.000 N 
ATOM      2  C   UNL     1      -0.888  10.839  20.238  0.00  0.00    +0.000 C 
ATOM      3  C   UNL     1       0.304  11.737  20.086  0.00  0.00    +0.000 A 
ATOM      4  C   UNL     1       1.097  11.225  19.051  0.00  0.00    +0.000 A 
ATOM      5  C   UNL     1       2.169  11.918  18.517  0.00  0.00    +0.000 A 
ATOM      6  C   UNL     1       2.426  13.188  19.040  0.00  0.00    +0.000 A 
ATOM      7  C   UNL     1       1.671  13.686  20.130  0.00  0.00    +0.000 A 
ATOM      8  C   UNL     1       0.601  12.959  20.675  0.00  0.00    +0.000 A 
ATOM      9  C   UNL     1       0.366  10.085  18.459  0.00  0.00    +0.000 C 
ATOM     10  O   UNL     1       0.836   9.343  17.607  0.00  0.00    +0.000 OA
ENDROOT
BRANCH   1  16
ATOM     11  C   UNL     1      -3.560  10.066  14.697  0.00  0.00    +0.000 C 
ATOM     12  C   UNL     1      -3.317  10.604  16.075  0.00  0.00    +0.000 A 
ATOM     13  C   UNL     1      -4.380  11.124  16.823  0.00  0.00    +0.000 A 
ATOM     14  C   UNL     1      -4.161  11.653  18.094  0.00  0.00    +0.000 A 
ATOM     15  C   UNL     1      -2.855  11.746  18.566  0.00  0.00    +0.000 A 
ATOM     16  C   UNL     1      -1.874  10.926  18.000  0.00  0.00    +0.000 A 
ATOM     17  C   UNL     1      -2.055  10.488  16.680  0.00  0.00    +0.000 A 
BRANCH  14  18
ATOM     18  C   UNL     1      -5.252  11.937  19.110  0.00  0.00    +0.000 C 
BRANCH  18  19
ATOM     19  C   UNL     1      -4.900  12.789  20.340  0.00  0.00    +0.000 C 
BRANCH  19  20
ATOM     20  C   UNL     1      -5.822  12.573  21.504  0.00  0.00    +0.000 A 
ATOM     21  N   UNL     1      -6.752  11.644  21.595  0.00  0.00    +0.000 NA
ATOM     22  N   UNL     1      -7.387  11.775  22.803  0.00  0.00    +0.000 NA
ATOM     23  C   UNL     1      -6.836  12.785  23.430  0.00  0.00    +0.000 A 
ATOM     24  N   UNL     1      -5.842  13.308  22.661  0.00  0.00    +0.000 N 
ATOM     25  C   UNL     1      -5.001  14.411  23.039  0.00  0.00    +0.000 C 
ENDBRANCH  19  20
ENDBRANCH  18  19
ENDBRANCH  14  18
ENDBRANCH   1  16
BRANCH   8  26
ATOM     26  C   UNL     1      -0.211  13.534  21.808  0.00  0.00    +0.000 C 
ATOM     27  F   UNL     1      -0.448  12.643  22.813  0.00  0.00    +0.000 F 
ATOM     28  F   UNL     1       0.432  14.578  22.407  0.00  0.00    +0.000 F 
ATOM     29  F   UNL     1      -1.432  14.002  21.440  0.00  0.00    +0.000 F 
ENDBRANCH   8  26
BRANCH   6  30
ATOM     30  C   UNL     1       3.454  14.022  18.390  0.00  0.00    +0.000 C 
ATOM     31  N   UNL     1       3.224  14.920  17.491  0.00  0.00    +0.000 NA
ATOM     32  H   UNL     1       2.229  14.939  17.228  0.00  0.00    +0.000 HD
ENDBRANCH   6  30
TORSDOF 6
ENDMDL
MODEL 3
REMARK VINA RESULT:      -7.3      3.201      5.053
REMARK  Name = 
REMARK  8 active torsions:
REMARK  status: ('A' for Active; 'I' for Inactive)
REMARK    1  A    between atoms: C_1  and  C_2
REMARK    2  A    between atoms: C_4  and  C_5
REMARK    3  A    between atoms: C_5  and  C_6
REMARK    4  A    between atoms: C_6  and  C_7
REMARK    5  A    between atoms: N_11  and  C_12
REMARK    6  A    between atoms: C_14  and  N_15
REMARK    7  A    between atoms: C_20  and  C_21
REMARK    8  A    between atoms: C_24  and  C_25
REMARK                            x       y       z     vdW  Elec       q    Type
REMARK                         _______ _______ _______ _____ _____    ______ ____
ROOT
ATOM      1  N   UNL     1      -2.267  13.391  20.916  0.00  0.00    +0.000 N 
ATOM      2  C   UNL     1      -2.105  12.862  19.544  0.00  0.00    +0.000 C 
ATOM      3  C   UNL     1      -1.135  11.734  19.734  0.00  0.00    +0.000 A 
ATOM      4  C   UNL     1      -0.417  11.981  20.912  0.00  0.00    +0.000 A 
ATOM      5  C   UNL     1       0.420  11.041  21.488  0.00  0.00    +0.000 A 
ATOM      6  C   UNL     1       0.509   9.800  20.855  0.00  0.00    +0.000 A 
ATOM      7  C   UNL     1      -0.160   9.564  19.629  0.00  0.00    +0.000 A 
ATOM      8  C   UNL     1      -0.988  10.538  19.046  0.00  0.00    +0.000 A 
ATOM      9  C   UNL     1      -1.001  13.184  21.540  0.00  0.00    +0.000 C 
ATOM     10  O   UNL     1      -0.529  13.737  22.525  0.00  0.00    +0.000 OA
ENDROOT
BRANCH   1  16
ATOM     11  C   UNL     1      -4.472  12.595  25.266  0.00  0.00    +0.000 C 
ATOM     12  C   UNL     1      -4.514  12.722  23.774  0.00  0.00    +0.000 A 
ATOM     13  C   UNL     1      -5.697  13.119  23.137  0.00  0.00    +0.000 A 
ATOM     14  C   UNL     1      -5.757  13.213  21.747  0.00  0.00    +0.000 A 
ATOM     15  C   UNL     1      -4.654  12.812  21.000  0.00  0.00    +0.000 A 
ATOM     16  C   UNL     1      -3.401  12.769  21.618  0.00  0.00    +0.000 A 
ATOM     17  C   UNL     1      -3.351  12.565  23.004  0.00  0.00    +0.000 A 
BRANCH  14  18
ATOM     18  C   UNL     1      -6.852  13.929  20.979  0.00  0.00    +0.000 C 
BRANCH  18  19
ATOM     19  C   UNL     1      -7.916  13.080  20.263  0.00  0.00    +0.000 C 
BRANCH  19  20
ATOM     20  C   UNL     1      -7.615  11.611  20.268  0.00  0.00    +0.000 A 
ATOM     21  N   UNL     1      -7.879  10.768  21.246  0.00  0.00    +0.000 NA
ATOM     22  N   UNL     1      -7.448   9.519  20.879  0.00  0.00    +0.000 NA
ATOM     23  C   UNL     1      -6.924   9.620  19.682  0.00  0.00    +0.000 A 
ATOM     24  N   UNL     1      -7.018  10.909  19.252  0.00  0.00    +0.000 N 
ATOM     25  C   UNL     1      -6.571  11.386  17.973  0.00  0.00    +0.000 C 
ENDBRANCH  19  20
ENDBRANCH  18  19
ENDBRANCH  14  18
ENDBRANCH   1  16
BRANCH   8  26
ATOM     26  C   UNL     1      -1.721  10.242  17.762  0.00  0.00    +0.000 C 
ATOM     27  F   UNL     1      -1.881  11.337  16.964  0.00  0.00    +0.000 F 
ATOM     28  F   UNL     1      -1.044   9.342  16.992  0.00  0.00    +0.000 F 
ATOM     29  F   UNL     1      -2.967   9.732  17.935  0.00  0.00    +0.000 F 
ENDBRANCH   8  26
BRANCH   6  30
ATOM     30  C   UNL     1       1.262   8.721  21.523  0.00  0.00    +0.000 C 
ATOM     31  N   UNL     1       1.712   7.659  20.942  0.00  0.00    +0.000 NA
ATOM     32  H   UNL     1       1.419   7.620  19.956  0.00  0.00    +0.000 HD
ENDBRANCH   6  30
TORSDOF 6
ENDMDL
MODEL 4
REMARK VINA RESULT:      -7.2      2.715      4.918
REMARK  Name = 
REMARK  8 active torsions:
REMARK  status: ('A' for Active; 'I' for Inactive)
REMARK    1  A    between atoms: C_1  and  C_2
REMARK    2  A    between atoms: C_4  and  C_5
REMARK    3  A    between atoms: C_5  and  C_6
REMARK    4  A    between atoms: C_6  and  C_7
REMARK    5  A    between atoms: N_11  and  C_12
REMARK    6  A    between atoms: C_14  and  N_15
REMARK    7  A    between atoms: C_20  and  C_21
REMARK    8  A    between atoms: C_24  and  C_25
REMARK                            x       y       z     vdW  Elec       q    Type
REMARK                         _______ _______ _______ _____ _____    ______ ____
ROOT
ATOM      1  N   UNL     1      -0.775  12.604  22.898  0.00  0.00    +0.000 N 
ATOM      2  C   UNL     1      -0.043  13.568  22.049  0.00  0.00    +0.000 C 
ATOM      3  C   UNL     1      -0.323  13.070  20.662  0.00  0.00    +0.000 A 
ATOM      4  C   UNL     1      -0.653  11.711  20.754  0.00  0.00    +0.000 A 
ATOM      5  C   UNL     1      -1.159  10.991  19.686  0.00  0.00    +0.000 A 
ATOM      6  C   UNL     1      -1.358  11.686  18.491  0.00  0.00    +0.000 A 
ATOM      7  C   UNL     1      -0.966  13.041  18.369  0.00  0.00    +0.000 A 
ATOM      8  C   UNL     1      -0.432  13.751  19.457  0.00  0.00    +0.000 A 
ATOM      9  C   UNL     1      -0.709  11.368  22.190  0.00  0.00    +0.000 C 
ATOM     10  O   UNL     1      -0.857  10.229  22.613  0.00  0.00    +0.000 OA
ENDROOT
BRANCH   1  16
ATOM     11  C   UNL     1      -3.635  16.392  24.273  0.00  0.00    +0.000 C 
ATOM     12  C   UNL     1      -3.437  15.075  23.587  0.00  0.00    +0.000 A 
ATOM     13  C   UNL     1      -4.270  14.706  22.524  0.00  0.00    +0.000 A 
ATOM     14  C   UNL     1      -4.115  13.470  21.896  0.00  0.00    +0.000 A 
ATOM     15  C   UNL     1      -3.183  12.572  22.407  0.00  0.00    +0.000 A 
ATOM     16  C   UNL     1      -2.141  13.060  23.201  0.00  0.00    +0.000 A 
ATOM     17  C   UNL     1      -2.350  14.249  23.914  0.00  0.00    +0.000 A 
BRANCH  14  18
ATOM     18  C   UNL     1      -4.723  13.102  20.556  0.00  0.00    +0.000 C 
BRANCH  18  19
ATOM     19  C   UNL     1      -6.256  13.088  20.429  0.00  0.00    +0.000 C 
BRANCH  19  20
ATOM     20  C   UNL     1      -6.872  11.760  20.754  0.00  0.00    +0.000 A 
ATOM     21  N   UNL     1      -7.324  11.382  21.933  0.00  0.00    +0.000 NA
ATOM     22  N   UNL     1      -7.804  10.101  21.830  0.00  0.00    +0.000 NA
ATOM     23  C   UNL     1      -7.634   9.716  20.589  0.00  0.00    +0.000 A 
ATOM     24  N   UNL     1      -7.066  10.726  19.874  0.00  0.00    +0.000 N 
ATOM     25  C   UNL     1      -6.758  10.671  18.472  0.00  0.00    +0.000 C 
ENDBRANCH  19  20
ENDBRANCH  18  19
ENDBRANCH  14  18
ENDBRANCH   1  16
BRANCH   8  26
ATOM     26  C   UNL     1      -0.063  15.206  19.309  0.00  0.00    +0.000 C 
ATOM     27  F   UNL     1      -0.479  15.752  18.130  0.00  0.00    +0.000 F 
ATOM     28  F   UNL     1      -0.645  15.972  20.276  0.00  0.00    +0.000 F 
ATOM     29  F   UNL     1       1.269  15.455  19.378  0.00  0.00    +0.000 F 
ENDBRANCH   8  26
BRANCH   6  30
ATOM     30  C   UNL     1      -2.044  10.996  17.382  0.00  0.00    +0.000 C 
ATOM     31  N   UNL     1      -2.279  11.509  16.220  0.00  0.00    +0.000 NA
ATOM     32  H   UNL     1      -1.988  12.496  16.181  0.00  0.00    +0.000 HD
ENDBRANCH   6  30
TORSDOF 6
ENDMDL
MODEL 5
REMARK VINA RESULT:      -7.2      1.225      1.711
REMARK  Name = 
REMARK  8 active torsions:
REMARK  status: ('A' for Active; 'I' for Inactive)
REMARK    1  A    between atoms: C_1  and  C_2
REMARK    2  A    between atoms: C_4  and  C_5
REMARK    3  A    between atoms: C_5  and  C_6
REMARK    4  A    between atoms: C_6  and  C_7
REMARK    5  A    between atoms: N_11  and  C_12
REMARK    6  A    between atoms: C_14  and  N_15
REMARK    7  A    between atoms: C_20  and  C_21
REMARK    8  A    between atoms: C_24  and  C_25
REMARK                            x       y       z     vdW  Elec       q    Type
REMARK                         _______ _______ _______ _____ _____    ______ ____
ROOT
ATOM      1  N   UNL     1      -0.503  10.513  19.444  0.00  0.00    +0.000 N 
ATOM      2  C   UNL     1      -1.084  10.515  20.804  0.00  0.00    +0.000 C 
ATOM      3  C   UNL     1      -0.574  11.802  21.382  0.00  0.00    +0.000 A 
ATOM      4  C   UNL     1       0.583  12.158  20.678  0.00  0.00    +0.000 A 
ATOM      5  C   UNL     1       1.195  13.392  20.821  0.00  0.00    +0.000 A 
ATOM      6  C   UNL     1       0.592  14.301  21.694  0.00  0.00    +0.000 A 
ATOM      7  C   UNL     1      -0.539  13.926  22.459  0.00  0.00    +0.000 A 
ATOM      8  C   UNL     1      -1.134  12.661  22.318  0.00  0.00    +0.000 A 
ATOM      9  C   UNL     1       0.749  11.184  19.580  0.00  0.00    +0.000 C 
ATOM     10  O   UNL     1       1.727  11.143  18.847  0.00  0.00    +0.000 OA
ENDROOT
BRANCH   1  16
ATOM     11  C   UNL     1      -3.072   9.822  15.280  0.00  0.00    +0.000 C 
ATOM     12  C   UNL     1      -2.843  10.526  16.583  0.00  0.00    +0.000 A 
ATOM     13  C   UNL     1      -3.919  11.106  17.266  0.00  0.00    +0.000 A 
ATOM     14  C   UNL     1      -3.715  11.789  18.465  0.00  0.00    +0.000 A 
ATOM     15  C   UNL     1      -2.412  11.968  18.919  0.00  0.00    +0.000 A 
ATOM     16  C   UNL     1      -1.411  11.110  18.454  0.00  0.00    +0.000 A 
ATOM     17  C   UNL     1      -1.580  10.514  17.196  0.00  0.00    +0.000 A 
BRANCH  14  18
ATOM     18  C   UNL     1      -4.814  12.166  19.441  0.00  0.00    +0.000 C 
BRANCH  18  19
ATOM     19  C   UNL     1      -6.273  11.901  19.034  0.00  0.00    +0.000 C 
BRANCH  19  20
ATOM     20  C   UNL     1      -6.853  10.663  19.651  0.00  0.00    +0.000 A 
ATOM     21  N   UNL     1      -6.761   9.440  19.169  0.00  0.00    +0.000 NA
ATOM     22  N   UNL     1      -7.425   8.585  20.011  0.00  0.00    +0.000 NA
ATOM     23  C   UNL     1      -7.917   9.302  20.992  0.00  0.00    +0.000 A 
ATOM     24  N   UNL     1      -7.573  10.607  20.817  0.00  0.00    +0.000 N 
ATOM     25  C   UNL     1      -7.916  11.677  21.712  0.00  0.00    +0.000 C 
ENDBRANCH  19  20
ENDBRANCH  18  19
ENDBRANCH  14  18
ENDBRANCH   1  16
BRANCH   8  26
ATOM     26  C   UNL     1      -2.363  12.306  23.116  0.00  0.00    +0.000 C 
ATOM     27  F   UNL     1      -2.670  13.225  24.076  0.00  0.00    +0.000 F 
ATOM     28  F   UNL     1      -3.473  12.240  22.325  0.00  0.00    +0.000 F 
ATOM     29  F   UNL     1      -2.287  11.114  23.762  0.00  0.00    +0.000 F 
ENDBRANCH   8  26
BRANCH   6  30
ATOM     30  C   UNL     1       1.120  15.676  21.751  0.00  0.00    +0.000 C 
ATOM     31  N   UNL     1       2.173  16.095  21.131  0.00  0.00    +0.000 NA
ATOM     32  H   UNL     1       2.647  15.325  20.638  0.00  0.00    +0.000 HD
ENDBRANCH   6  30
TORSDOF 6
ENDMDL
MODEL 6
REMARK VINA RESULT:      -6.9      3.613      9.158
REMARK  Name = 
REMARK  8 active torsions:
REMARK  status: ('A' for Active; 'I' for Inactive)
REMARK    1  A    between atoms: C_1  and  C_2
REMARK    2  A    between atoms: C_4  and  C_5
REMARK    3  A    between atoms: C_5  and  C_6
REMARK    4  A    between atoms: C_6  and  C_7
REMARK    5  A    between atoms: N_11  and  C_12
REMARK    6  A    between atoms: C_14  and  N_15
REMARK    7  A    between atoms: C_20  and  C_21
REMARK    8  A    between atoms: C_24  and  C_25
REMARK                            x       y       z     vdW  Elec       q    Type
REMARK                         _______ _______ _______ _____ _____    ______ ____
ROOT
ATOM      1  N   UNL     1      -0.099  13.429  20.190  0.00  0.00    +0.000 N 
ATOM      2  C   UNL     1       0.526  12.090  20.120  0.00  0.00    +0.000 C 
ATOM      3  C   UNL     1      -0.426  11.323  19.251  0.00  0.00    +0.000 A 
ATOM      4  C   UNL     1      -1.675  11.954  19.323  0.00  0.00    +0.000 A 
ATOM      5  C   UNL     1      -2.729  11.624  18.489  0.00  0.00    +0.000 A 
ATOM      6  C   UNL     1      -2.493  10.633  17.532  0.00  0.00    +0.000 A 
ATOM      7  C   UNL     1      -1.257   9.945  17.495  0.00  0.00    +0.000 A 
ATOM      8  C   UNL     1      -0.205  10.277  18.366  0.00  0.00    +0.000 A 
ATOM      9  C   UNL     1      -1.503  13.182  20.126  0.00  0.00    +0.000 C 
ATOM     10  O   UNL     1      -2.427  13.902  20.478  0.00  0.00    +0.000 OA
ENDROOT
BRANCH   1  16
ATOM     11  C   UNL     1       0.628  18.115  18.802  0.00  0.00    +0.000 C 
ATOM     12  C   UNL     1       0.969  16.658  18.741  0.00  0.00    +0.000 A 
ATOM     13  C   UNL     1       2.267  16.254  18.404  0.00  0.00    +0.000 A 
ATOM     14  C   UNL     1       2.589  14.901  18.315  0.00  0.00    +0.000 A 
ATOM     15  C   UNL     1       1.576  13.959  18.472  0.00  0.00    +0.000 A 
ATOM     16  C   UNL     1       0.408  14.331  19.144  0.00  0.00    +0.000 A 
ATOM     17  C   UNL     1       0.037  15.683  19.133  0.00  0.00    +0.000 A 
BRANCH  14  18
ATOM     18  C   UNL     1       4.004  14.352  18.283  0.00  0.00    +0.000 C 
BRANCH  18  19
ATOM     19  C   UNL     1       5.166  15.340  18.090  0.00  0.00    +0.000 C 
BRANCH  19  20
ATOM     20  C   UNL     1       6.512  14.748  18.383  0.00  0.00    +0.000 A 
ATOM     21  N   UNL     1       7.288  14.122  17.522  0.00  0.00    +0.000 NA
ATOM     22  N   UNL     1       8.430  13.721  18.169  0.00  0.00    +0.000 NA
ATOM     23  C   UNL     1       8.329  14.107  19.418  0.00  0.00    +0.000 A 
ATOM     24  N   UNL     1       7.152  14.766  19.596  0.00  0.00    +0.000 N 
ATOM     25  C   UNL     1       6.716  15.353  20.833  0.00  0.00    +0.000 C 
ENDBRANCH  19  20
ENDBRANCH  18  19
ENDBRANCH  14  18
ENDBRANCH   1  16
BRANCH   8  26
ATOM     26  C   UNL     1       1.115   9.555  18.274  0.00  0.00    +0.000 C 
ATOM     27  F   UNL     1       1.106   8.520  17.385  0.00  0.00    +0.000 F 
ATOM     28  F   UNL     1       2.111  10.381  17.841  0.00  0.00    +0.000 F 
ATOM     29  F   UNL     1       1.546   9.024  19.447  0.00  0.00    +0.000 F 
ENDBRANCH   8  26
BRANCH   6  30
ATOM     30  C   UNL     1      -3.535  10.367  16.524  0.00  0.00    +0.000 C 
ATOM     31  N   UNL     1      -4.583  11.097  16.327  0.00  0.00    +0.000 NA
ATOM     32  H   UNL     1      -4.640  11.862  17.014  0.00  0.00    +0.000 HD
ENDBRANCH   6  30
TORSDOF 6
ENDMDL
MODEL 7
REMARK VINA RESULT:      -6.9      3.604      9.450
REMARK  Name = 
REMARK  8 active torsions:
REMARK  status: ('A' for Active; 'I' for Inactive)
REMARK    1  A    between atoms: C_1  and  C_2
REMARK    2  A    between atoms: C_4  and  C_5
REMARK    3  A    between atoms: C_5  and  C_6
REMARK    4  A    between atoms: C_6  and  C_7
REMARK    5  A    between atoms: N_11  and  C_12
REMARK    6  A    between atoms: C_14  and  N_15
REMARK    7  A    between atoms: C_20  and  C_21
REMARK    8  A    between atoms: C_24  and  C_25
REMARK                            x       y       z     vdW  Elec       q    Type
REMARK                         _______ _______ _______ _____ _____    ______ ____
ROOT
ATOM      1  N   UNL     1      -0.048  13.405  20.222  0.00  0.00    +0.000 N 
ATOM      2  C   UNL     1       0.541  12.049  20.171  0.00  0.00    +0.000 C 
ATOM      3  C   UNL     1      -0.390  11.317  19.250  0.00  0.00    +0.000 A 
ATOM      4  C   UNL     1      -1.622  11.984  19.269  0.00  0.00    +0.000 A 
ATOM      5  C   UNL     1      -2.644  11.690  18.382  0.00  0.00    +0.000 A 
ATOM      6  C   UNL     1      -2.392  10.701  17.429  0.00  0.00    +0.000 A 
ATOM      7  C   UNL     1      -1.175   9.976  17.445  0.00  0.00    +0.000 A 
ATOM      8  C   UNL     1      -0.157  10.271  18.368  0.00  0.00    +0.000 A 
ATOM      9  C   UNL     1      -1.453  13.200  20.090  0.00  0.00    +0.000 C 
ATOM     10  O   UNL     1      -2.372  13.944  20.404  0.00  0.00    +0.000 OA
ENDROOT
BRANCH   1  16
ATOM     11  C   UNL     1       0.099  17.989  18.384  0.00  0.00    +0.000 C 
ATOM     12  C   UNL     1       0.721  16.646  18.620  0.00  0.00    +0.000 A 
ATOM     13  C   UNL     1       2.114  16.516  18.669  0.00  0.00    +0.000 A 
ATOM     14  C   UNL     1       2.705  15.268  18.859  0.00  0.00    +0.000 A 
ATOM     15  C   UNL     1       1.890  14.141  18.901  0.00  0.00    +0.000 A 
ATOM     16  C   UNL     1       0.535  14.299  19.210  0.00  0.00    +0.000 A 
ATOM     17  C   UNL     1      -0.074  15.527  18.913  0.00  0.00    +0.000 A 
BRANCH  14  18
ATOM     18  C   UNL     1       4.155  15.051  19.249  0.00  0.00    +0.000 C 
BRANCH  18  19
ATOM     19  C   UNL     1       5.231  15.184  18.158  0.00  0.00    +0.000 C 
BRANCH  19  20
ATOM     20  C   UNL     1       6.306  16.175  18.493  0.00  0.00    +0.000 A 
ATOM     21  N   UNL     1       6.130  17.458  18.737  0.00  0.00    +0.000 NA
ATOM     22  N   UNL     1       7.351  18.028  18.994  0.00  0.00    +0.000 NA
ATOM     23  C   UNL     1       8.254  17.083  18.900  0.00  0.00    +0.000 A 
ATOM     24  N   UNL     1       7.646  15.902  18.601  0.00  0.00    +0.000 N 
ATOM     25  C   UNL     1       8.321  14.644  18.447  0.00  0.00    +0.000 C 
ENDBRANCH  19  20
ENDBRANCH  18  19
ENDBRANCH  14  18
ENDBRANCH   1  16
BRANCH   8  26
ATOM     26  C   UNL     1       1.145   9.511  18.332  0.00  0.00    +0.000 C 
ATOM     27  F   UNL     1       1.488   8.967  19.536  0.00  0.00    +0.000 F 
ATOM     28  F   UNL     1       1.086   8.453  17.473  0.00  0.00    +0.000 F 
ATOM     29  F   UNL     1       2.215  10.252  17.948  0.00  0.00    +0.000 F 
ENDBRANCH   8  26
BRANCH   6  30
ATOM     30  C   UNL     1      -3.391  10.473  16.369  0.00  0.00    +0.000 C 
ATOM     31  N   UNL     1      -4.599  10.933  16.375  0.00  0.00    +0.000 NA
ATOM     32  H   UNL     1      -4.805  11.428  17.254  0.00  0.00    +0.000 HD
ENDBRANCH   6  30
TORSDOF 6
ENDMDL
MODEL 8
REMARK VINA RESULT:      -6.8      3.212      5.213
REMARK  Name = 
REMARK  8 active torsions:
REMARK  status: ('A' for Active; 'I' for Inactive)
REMARK    1  A    between atoms: C_1  and  C_2
REMARK    2  A    between atoms: C_4  and  C_5
REMARK    3  A    between atoms: C_5  and  C_6
REMARK    4  A    between atoms: C_6  and  C_7
REMARK    5  A    between atoms: N_11  and  C_12
REMARK    6  A    between atoms: C_14  and  N_15
REMARK    7  A    between atoms: C_20  and  C_21
REMARK    8  A    between atoms: C_24  and  C_25
REMARK                            x       y       z     vdW  Elec       q    Type
REMARK                         _______ _______ _______ _____ _____    ______ ____
ROOT
ATOM      1  N   UNL     1       0.830  14.230  18.930  0.00  0.00    +0.000 N 
ATOM      2  C   UNL     1      -0.094  13.395  18.132  0.00  0.00    +0.000 C 
ATOM      3  C   UNL     1      -0.144  12.115  18.913  0.00  0.00    +0.000 A 
ATOM      4  C   UNL     1       1.022  12.039  19.685  0.00  0.00    +0.000 A 
ATOM      5  C   UNL     1       1.205  11.084  20.671  0.00  0.00    +0.000 A 
ATOM      6  C   UNL     1       0.152  10.194  20.893  0.00  0.00    +0.000 A 
ATOM      7  C   UNL     1      -1.002  10.221  20.073  0.00  0.00    +0.000 A 
ATOM      8  C   UNL     1      -1.161  11.182  19.061  0.00  0.00    +0.000 A 
ATOM      9  C   UNL     1       1.756  13.308  19.503  0.00  0.00    +0.000 C 
ATOM     10  O   UNL     1       2.876  13.519  19.949  0.00  0.00    +0.000 OA
ENDROOT
BRANCH   1  16
ATOM     11  C   UNL     1      -2.875  17.409  19.698  0.00  0.00    +0.000 C 
ATOM     12  C   UNL     1      -1.912  16.368  20.184  0.00  0.00    +0.000 A 
ATOM     13  C   UNL     1      -2.240  15.569  21.286  0.00  0.00    +0.000 A 
ATOM     14  C   UNL     1      -1.341  14.618  21.766  0.00  0.00    +0.000 A 
ATOM     15  C   UNL     1      -0.075  14.544  21.194  0.00  0.00    +0.000 A 
ATOM     16  C   UNL     1       0.116  15.064  19.910  0.00  0.00    +0.000 A 
ATOM     17  C   UNL     1      -0.729  16.097  19.480  0.00  0.00    +0.000 A 
BRANCH  14  18
ATOM     18  C   UNL     1      -1.702  13.494  22.721  0.00  0.00    +0.000 C 
BRANCH  18  19
ATOM     19  C   UNL     1      -2.743  12.458  22.267  0.00  0.00    +0.000 C 
BRANCH  19  20
ATOM     20  C   UNL     1      -4.026  12.516  23.043  0.00  0.00    +0.000 A 
ATOM     21  N   UNL     1      -4.228  12.018  24.246  0.00  0.00    +0.000 NA
ATOM     22  N   UNL     1      -5.527  12.265  24.612  0.00  0.00    +0.000 NA
ATOM     23  C   UNL     1      -6.098  12.907  23.623  0.00  0.00    +0.000 A 
ATOM     24  N   UNL     1      -5.194  13.099  22.623  0.00  0.00    +0.000 N 
ATOM     25  C   UNL     1      -5.460  13.792  21.393  0.00  0.00    +0.000 C 
ENDBRANCH  19  20
ENDBRANCH  18  19
ENDBRANCH  14  18
ENDBRANCH   1  16
BRANCH   8  26
ATOM     26  C   UNL     1      -2.421  11.213  18.233  0.00  0.00    +0.000 C 
ATOM     27  F   UNL     1      -3.049  10.005  18.157  0.00  0.00    +0.000 F 
ATOM     28  F   UNL     1      -3.350  12.060  18.764  0.00  0.00    +0.000 F 
ATOM     29  F   UNL     1      -2.236  11.611  16.948  0.00  0.00    +0.000 F 
ENDBRANCH   8  26
BRANCH   6  30
ATOM     30  C   UNL     1       0.243   9.269  22.038  0.00  0.00    +0.000 C 
ATOM     31  N   UNL     1      -0.638   9.158  22.976  0.00  0.00    +0.000 NA
ATOM     32  H   UNL     1      -1.391   9.852  22.864  0.00  0.00    +0.000 HD
ENDBRANCH   6  30
TORSDOF 6
ENDMDL
MODEL 9
REMARK VINA RESULT:      -6.8      3.822      8.526
REMARK  Name = 
REMARK  8 active torsions:
REMARK  status: ('A' for Active; 'I' for Inactive)
REMARK    1  A    between atoms: C_1  and  C_2
REMARK    2  A    between atoms: C_4  and  C_5
REMARK    3  A    between atoms: C_5  and  C_6
REMARK    4  A    between atoms: C_6  and  C_7
REMARK    5  A    between atoms: N_11  and  C_12
REMARK    6  A    between atoms: C_14  and  N_15
REMARK    7  A    between atoms: C_20  and  C_21
REMARK    8  A    between atoms: C_24  and  C_25
REMARK                            x       y       z     vdW  Elec       q    Type
REMARK                         _______ _______ _______ _____ _____    ______ ____
ROOT
ATOM      1  N   UNL     1      -0.125  13.381  20.099  0.00  0.00    +0.000 N 
ATOM      2  C   UNL     1       0.533  12.057  20.078  0.00  0.00    +0.000 C 
ATOM      3  C   UNL     1      -0.374  11.248  19.198  0.00  0.00    +0.000 A 
ATOM      4  C   UNL     1      -1.639  11.850  19.219  0.00  0.00    +0.000 A 
ATOM      5  C   UNL     1      -2.659  11.476  18.362  0.00  0.00    +0.000 A 
ATOM      6  C   UNL     1      -2.371  10.471  17.435  0.00  0.00    +0.000 A 
ATOM      7  C   UNL     1      -1.117   9.812  17.450  0.00  0.00    +0.000 A 
ATOM      8  C   UNL     1      -0.101  10.189  18.343  0.00  0.00    +0.000 A 
ATOM      9  C   UNL     1      -1.520  13.099  19.999  0.00  0.00    +0.000 C 
ATOM     10  O   UNL     1      -2.471  13.803  20.308  0.00  0.00    +0.000 OA
ENDROOT
BRANCH   1  16
ATOM     11  C   UNL     1       0.323  18.041  18.516  0.00  0.00    +0.000 C 
ATOM     12  C   UNL     1       0.789  16.617  18.563  0.00  0.00    +0.000 A 
ATOM     13  C   UNL     1       2.139  16.314  18.355  0.00  0.00    +0.000 A 
ATOM     14  C   UNL     1       2.580  14.991  18.368  0.00  0.00    +0.000 A 
ATOM     15  C   UNL     1       1.640  13.973  18.494  0.00  0.00    +0.000 A 
ATOM     16  C   UNL     1       0.392  14.273  19.049  0.00  0.00    +0.000 A 
ATOM     17  C   UNL     1      -0.088  15.585  18.932  0.00  0.00    +0.000 A 
BRANCH  14  18
ATOM     18  C   UNL     1       4.033  14.567  18.480  0.00  0.00    +0.000 C 
BRANCH  18  19
ATOM     19  C   UNL     1       4.953  15.359  19.424  0.00  0.00    +0.000 C 
BRANCH  19  20
ATOM     20  C   UNL     1       4.936  14.859  20.837  0.00  0.00    +0.000 A 
ATOM     21  N   UNL     1       3.878  14.430  21.496  0.00  0.00    +0.000 NA
ATOM     22  N   UNL     1       4.266  14.067  22.761  0.00  0.00    +0.000 NA
ATOM     23  C   UNL     1       5.554  14.285  22.855  0.00  0.00    +0.000 A 
ATOM     24  N   UNL     1       6.021  14.768  21.671  0.00  0.00    +0.000 N 
ATOM     25  C   UNL     1       7.393  15.095  21.399  0.00  0.00    +0.000 C 
ENDBRANCH  19  20
ENDBRANCH  18  19
ENDBRANCH  14  18
ENDBRANCH   1  16
BRANCH   8  26
ATOM     26  C   UNL     1       1.239   9.497  18.306  0.00  0.00    +0.000 C 
ATOM     27  F   UNL     1       1.289   8.461  17.421  0.00  0.00    +0.000 F 
ATOM     28  F   UNL     1       2.232  10.345  17.911  0.00  0.00    +0.000 F 
ATOM     29  F   UNL     1       1.634   8.980  19.498  0.00  0.00    +0.000 F 
ENDBRANCH   8  26
BRANCH   6  30
ATOM     30  C   UNL     1      -3.376  10.158  16.402  0.00  0.00    +0.000 C 
ATOM     31  N   UNL     1      -3.195  10.279  15.128  0.00  0.00    +0.000 NA
ATOM     32  H   UNL     1      -2.274  10.691  14.919  0.00  0.00    +0.000 HD
ENDBRANCH   6  30
TORSDOF 6
ENDMDL
