MODEL 1
REMARK VINA RESULT:      -8.6      0.000      0.000
REMARK  Name = 
REMARK  4 active torsions:
REMARK  status: ('A' for Active; 'I' for Inactive)
REMARK    1  A    between atoms: C_1  and  C_2
REMARK    2  A    between atoms: C_5  and  C_6
REMARK    3  A    between atoms: C_10  and  N_11
REMARK    4  A    between atoms: C_19  and  C_20
REMARK                            x       y       z     vdW  Elec       q    Type
REMARK                         _______ _______ _______ _____ _____    ______ ____
ROOT
ATOM      1  N   UNL     1       3.954   4.590  19.246  0.00  0.00    +0.000 N 
ATOM      2  C   UNL     1       5.315   5.175  19.318  0.00  0.00    +0.000 C 
ATOM      3  C   UNL     1       5.791   5.026  17.903  0.00  0.00    +0.000 A 
ATOM      4  C   UNL     1       5.104   3.942  17.344  0.00  0.00    +0.000 A 
ATOM      5  C   UNL     1       5.178   3.606  16.007  0.00  0.00    +0.000 A 
ATOM      6  C   UNL     1       5.975   4.412  15.211  0.00  0.00    +0.000 A 
ATOM      7  F   UNL     1       6.023   4.189  13.891  0.00  0.00    +0.000 F 
ATOM      8  C   UNL     1       6.665   5.516  15.738  0.00  0.00    +0.000 A 
ATOM      9  C   UNL     1       6.580   5.850  17.106  0.00  0.00    +0.000 A 
ATOM     10  C   UNL     1       4.025   3.568  18.280  0.00  0.00    +0.000 C 
ATOM     11  O   UNL     1       3.247   2.653  18.061  0.00  0.00    +0.000 OA
ENDROOT
BRANCH   1  16
ATOM     12  C   UNL     1       1.861   7.444  20.162  0.00  0.00    +0.000 A 
ATOM     13  C   UNL     1       2.212   8.297  19.106  0.00  0.00    +0.000 A 
ATOM     14  C   UNL     1       2.772   7.789  17.937  0.00  0.00    +0.000 A 
ATOM     15  C   UNL     1       3.088   6.438  17.849  0.00  0.00    +0.000 A 
ATOM     16  C   UNL     1       2.968   5.629  18.987  0.00  0.00    +0.000 A 
ATOM     17  C   UNL     1       2.219   6.091  20.072  0.00  0.00    +0.000 A 
BRANCH  12  22
ATOM     18  C   UNL     1       0.961  11.676  20.737  0.00  0.00    +0.000 C 
ATOM     19  C   UNL     1       0.669  10.243  21.046  0.00  0.00    +0.000 C 
ATOM     20  N   UNL     1      -0.463   9.683  20.739  0.00  0.00    +0.000 NA
ATOM     21  C   UNL     1      -0.336   8.277  21.194  0.00  0.00    +0.000 C 
ATOM     22  C   UNL     1       1.163   8.014  21.384  0.00  0.00    +0.000 C 
ATOM     23  C   UNL     1       1.691   9.393  21.736  0.00  0.00    +0.000 C 
ENDBRANCH  12  22
ENDBRANCH   1  16
BRANCH   9  24
ATOM     24  C   UNL     1       7.235   7.113  17.591  0.00  0.00    +0.000 C 
ATOM     25  F   UNL     1       8.128   7.653  16.714  0.00  0.00    +0.000 F 
ATOM     26  F   UNL     1       6.324   8.095  17.832  0.00  0.00    +0.000 F 
ATOM     27  F   UNL     1       7.920   6.934  18.752  0.00  0.00    +0.000 F 
ENDBRANCH   9  24
TORSDOF 3
ENDMDL
MODEL 2
REMARK VINA RESULT:      -8.4      6.871      9.356
REMARK  Name = 
REMARK  4 active torsions:
REMARK  status: ('A' for Active; 'I' for Inactive)
REMARK    1  A    between atoms: C_1  and  C_2
REMARK    2  A    between atoms: C_5  and  C_6
REMARK    3  A    between atoms: C_10  and  N_11
REMARK    4  A    between atoms: C_19  and  C_20
REMARK                            x       y       z     vdW  Elec       q    Type
REMARK                         _______ _______ _______ _____ _____    ______ ____
ROOT
ATOM      1  N   UNL     1      -0.440  11.469  18.517  0.00  0.00    +0.000 N 
ATOM      2  C   UNL     1       0.339  10.640  19.469  0.00  0.00    +0.000 C 
ATOM      3  C   UNL     1      -0.081  11.211  20.791  0.00  0.00    +0.000 A 
ATOM      4  C   UNL     1      -0.463  12.539  20.569  0.00  0.00    +0.000 A 
ATOM      5  C   UNL     1      -1.050  13.330  21.536  0.00  0.00    +0.000 A 
ATOM      6  C   UNL     1      -1.263  12.740  22.771  0.00  0.00    +0.000 A 
ATOM      7  F   UNL     1      -1.903  13.428  23.725  0.00  0.00    +0.000 F 
ATOM      8  C   UNL     1      -0.905  11.405  23.020  0.00  0.00    +0.000 A 
ATOM      9  C   UNL     1      -0.308  10.607  22.024  0.00  0.00    +0.000 A 
ATOM     10  C   UNL     1      -0.542  12.742  19.108  0.00  0.00    +0.000 C 
ATOM     11  O   UNL     1      -0.859  13.808  18.604  0.00  0.00    +0.000 OA
ENDROOT
BRANCH   1  16
ATOM     12  C   UNL     1      -4.036  11.414  17.861  0.00  0.00    +0.000 A 
ATOM     13  C   UNL     1      -4.010  10.697  16.657  0.00  0.00    +0.000 A 
ATOM     14  C   UNL     1      -2.909   9.912  16.320  0.00  0.00    +0.000 A 
ATOM     15  C   UNL     1      -1.778   9.919  17.129  0.00  0.00    +0.000 A 
ATOM     16  C   UNL     1      -1.704  10.822  18.198  0.00  0.00    +0.000 A 
ATOM     17  C   UNL     1      -2.874  11.440  18.647  0.00  0.00    +0.000 A 
BRANCH  12  22
ATOM     18  C   UNL     1      -7.365   9.721  20.120  0.00  0.00    +0.000 C 
ATOM     19  C   UNL     1      -6.581  10.915  19.681  0.00  0.00    +0.000 C 
ATOM     20  N   UNL     1      -5.936  11.670  20.520  0.00  0.00    +0.000 NA
ATOM     21  C   UNL     1      -5.288  12.712  19.687  0.00  0.00    +0.000 C 
ATOM     22  C   UNL     1      -5.288  12.182  18.248  0.00  0.00    +0.000 C 
ATOM     23  C   UNL     1      -6.517  11.289  18.232  0.00  0.00    +0.000 C 
ENDBRANCH  12  22
ENDBRANCH   1  16
BRANCH   9  24
ATOM     24  C   UNL     1      -0.062   9.150  22.304  0.00  0.00    +0.000 C 
ATOM     25  F   UNL     1       1.213   8.738  22.047  0.00  0.00    +0.000 F 
ATOM     26  F   UNL     1      -0.286   8.842  23.610  0.00  0.00    +0.000 F 
ATOM     27  F   UNL     1      -0.868   8.334  21.574  0.00  0.00    +0.000 F 
ENDBRANCH   9  24
TORSDOF 3
ENDMDL
MODEL 3
REMARK VINA RESULT:      -8.3      3.472      4.772
REMARK  Name = 
REMARK  4 active torsions:
REMARK  status: ('A' for Active; 'I' for Inactive)
REMARK    1  A    between atoms: C_1  and  C_2
REMARK    2  A    between atoms: C_5  and  C_6
REMARK    3  A    between atoms: C_10  and  N_11
REMARK    4  A    between atoms: C_19  and  C_20
REMARK                            x       y       z     vdW  Elec       q    Type
REMARK                         _______ _______ _______ _____ _____    ______ ____
ROOT
ATOM      1  N   UNL     1       2.747   6.121  17.502  0.00  0.00    +0.000 N 
ATOM      2  C   UNL     1       1.751   5.051  17.756  0.00  0.00    +0.000 C 
ATOM      3  C   UNL     1       2.552   4.067  18.556  0.00  0.00    +0.000 A 
ATOM      4  C   UNL     1       3.896   4.237  18.202  0.00  0.00    +0.000 A 
ATOM      5  C   UNL     1       4.936   3.602  18.850  0.00  0.00    +0.000 A 
ATOM      6  C   UNL     1       4.592   2.771  19.904  0.00  0.00    +0.000 A 
ATOM      7  F   UNL     1       5.560   2.191  20.625  0.00  0.00    +0.000 F 
ATOM      8  C   UNL     1       3.255   2.591  20.292  0.00  0.00    +0.000 A 
ATOM      9  C   UNL     1       2.201   3.247  19.624  0.00  0.00    +0.000 A 
ATOM     10  C   UNL     1       3.992   5.472  17.397  0.00  0.00    +0.000 C 
ATOM     11  O   UNL     1       5.047   5.888  16.947  0.00  0.00    +0.000 OA
ENDROOT
BRANCH   1  16
ATOM     12  C   UNL     1       1.414   9.181  18.995  0.00  0.00    +0.000 A 
ATOM     13  C   UNL     1       1.126   8.674  20.270  0.00  0.00    +0.000 A 
ATOM     14  C   UNL     1       1.740   7.510  20.728  0.00  0.00    +0.000 A 
ATOM     15  C   UNL     1       2.566   6.781  19.879  0.00  0.00    +0.000 A 
ATOM     16  C   UNL     1       2.660   7.148  18.530  0.00  0.00    +0.000 A 
ATOM     17  C   UNL     1       2.219   8.415  18.139  0.00  0.00    +0.000 A 
BRANCH  12  22
ATOM     18  C   UNL     1      -0.284  12.129  21.730  0.00  0.00    +0.000 C 
ATOM     19  C   UNL     1       0.337  11.803  20.410  0.00  0.00    +0.000 C 
ATOM     20  N   UNL     1       1.487  12.286  20.045  0.00  0.00    +0.000 NA
ATOM     21  C   UNL     1       1.742  11.710  18.703  0.00  0.00    +0.000 C 
ATOM     22  C   UNL     1       0.806  10.503  18.561  0.00  0.00    +0.000 C 
ATOM     23  C   UNL     1      -0.364  10.896  19.446  0.00  0.00    +0.000 C 
ENDBRANCH  12  22
ENDBRANCH   1  16
BRANCH   9  24
ATOM     24  C   UNL     1       0.803   3.119  20.161  0.00  0.00    +0.000 C 
ATOM     25  F   UNL     1       0.175   4.310  20.376  0.00  0.00    +0.000 F 
ATOM     26  F   UNL     1      -0.005   2.431  19.310  0.00  0.00    +0.000 F 
ATOM     27  F   UNL     1       0.757   2.458  21.349  0.00  0.00    +0.000 F 
ENDBRANCH   9  24
TORSDOF 3
ENDMDL
MODEL 4
REMARK VINA RESULT:      -8.3      3.599      4.871
REMARK  Name = 
REMARK  4 active torsions:
REMARK  status: ('A' for Active; 'I' for Inactive)
REMARK    1  A    between atoms: C_1  and  C_2
REMARK    2  A    between atoms: C_5  and  C_6
REMARK    3  A    between atoms: C_10  and  N_11
REMARK    4  A    between atoms: C_19  and  C_20
REMARK                            x       y       z     vdW  Elec       q    Type
REMARK                         _______ _______ _______ _____ _____    ______ ____
ROOT
ATOM      1  N   UNL     1       2.637   6.203  17.584  0.00  0.00    +0.000 N 
ATOM      2  C   UNL     1       1.660   5.115  17.833  0.00  0.00    +0.000 C 
ATOM      3  C   UNL     1       2.495   4.113  18.574  0.00  0.00    +0.000 A 
ATOM      4  C   UNL     1       3.825   4.309  18.184  0.00  0.00    +0.000 A 
ATOM      5  C   UNL     1       4.892   3.663  18.777  0.00  0.00    +0.000 A 
ATOM      6  C   UNL     1       4.589   2.794  19.812  0.00  0.00    +0.000 A 
ATOM      7  F   UNL     1       5.585   2.201  20.483  0.00  0.00    +0.000 F 
ATOM      8  C   UNL     1       3.267   2.587  20.237  0.00  0.00    +0.000 A 
ATOM      9  C   UNL     1       2.186   3.254  19.624  0.00  0.00    +0.000 A 
ATOM     10  C   UNL     1       3.884   5.570  17.418  0.00  0.00    +0.000 C 
ATOM     11  O   UNL     1       4.921   6.012  16.949  0.00  0.00    +0.000 OA
ENDROOT
BRANCH   1  16
ATOM     12  C   UNL     1       1.379   9.241  19.182  0.00  0.00    +0.000 A 
ATOM     13  C   UNL     1       1.073   8.696  20.437  0.00  0.00    +0.000 A 
ATOM     14  C   UNL     1       1.655   7.501  20.855  0.00  0.00    +0.000 A 
ATOM     15  C   UNL     1       2.464   6.781  19.982  0.00  0.00    +0.000 A 
ATOM     16  C   UNL     1       2.573   7.194  18.648  0.00  0.00    +0.000 A 
ATOM     17  C   UNL     1       2.167   8.486  18.301  0.00  0.00    +0.000 A 
BRANCH  12  22
ATOM     18  C   UNL     1      -2.736   9.896  17.885  0.00  0.00    +0.000 C 
ATOM     19  C   UNL     1      -1.474  10.427  18.482  0.00  0.00    +0.000 C 
ATOM     20  N   UNL     1      -1.415  10.874  19.701  0.00  0.00    +0.000 NA
ATOM     21  C   UNL     1      -0.003  11.281  19.899  0.00  0.00    +0.000 C 
ATOM     22  C   UNL     1       0.808  10.593  18.794  0.00  0.00    +0.000 C 
ATOM     23  C   UNL     1      -0.212  10.467  17.675  0.00  0.00    +0.000 C 
ENDBRANCH  12  22
ENDBRANCH   1  16
BRANCH   9  24
ATOM     24  C   UNL     1       0.807   3.093  20.201  0.00  0.00    +0.000 C 
ATOM     25  F   UNL     1       0.774   2.442  21.399  0.00  0.00    +0.000 F 
ATOM     26  F   UNL     1       0.209   4.294  20.423  0.00  0.00    +0.000 F 
ATOM     27  F   UNL     1      -0.026   2.397  19.381  0.00  0.00    +0.000 F 
ENDBRANCH   9  24
TORSDOF 3
ENDMDL
MODEL 5
REMARK VINA RESULT:      -8.2      5.367      8.312
REMARK  Name = 
REMARK  4 active torsions:
REMARK  status: ('A' for Active; 'I' for Inactive)
REMARK    1  A    between atoms: C_1  and  C_2
REMARK    2  A    between atoms: C_5  and  C_6
REMARK    3  A    between atoms: C_10  and  N_11
REMARK    4  A    between atoms: C_19  and  C_20
REMARK                            x       y       z     vdW  Elec       q    Type
REMARK                         _______ _______ _______ _____ _____    ______ ____
ROOT
ATOM      1  N   UNL     1      -0.904  12.058  18.730  0.00  0.00    +0.000 N 
ATOM      2  C   UNL     1       0.370  11.376  18.400  0.00  0.00    +0.000 C 
ATOM      3  C   UNL     1       0.633  10.591  19.652  0.00  0.00    +0.000 A 
ATOM      4  C   UNL     1       0.004  11.263  20.705  0.00  0.00    +0.000 A 
ATOM      5  C   UNL     1      -0.092  10.748  21.983  0.00  0.00    +0.000 A 
ATOM      6  C   UNL     1       0.467   9.497  22.188  0.00  0.00    +0.000 A 
ATOM      7  F   UNL     1       0.335   8.907  23.383  0.00  0.00    +0.000 F 
ATOM      8  C   UNL     1       1.092   8.791  21.148  0.00  0.00    +0.000 A 
ATOM      9  C   UNL     1       1.182   9.327  19.847  0.00  0.00    +0.000 A 
ATOM     10  C   UNL     1      -0.863  12.304  20.116  0.00  0.00    +0.000 C 
ATOM     11  O   UNL     1      -1.549  13.054  20.791  0.00  0.00    +0.000 OA
ENDROOT
BRANCH   1  16
ATOM     12  C   UNL     1      -4.395  11.561  17.764  0.00  0.00    +0.000 A 
ATOM     13  C   UNL     1      -4.174  10.938  16.527  0.00  0.00    +0.000 A 
ATOM     14  C   UNL     1      -2.952  10.335  16.243  0.00  0.00    +0.000 A 
ATOM     15  C   UNL     1      -1.899  10.441  17.146  0.00  0.00    +0.000 A 
ATOM     16  C   UNL     1      -2.037  11.270  18.267  0.00  0.00    +0.000 A 
ATOM     17  C   UNL     1      -3.314  11.691  18.648  0.00  0.00    +0.000 A 
BRANCH  12  22
ATOM     18  C   UNL     1      -7.374   9.535  20.228  0.00  0.00    +0.000 C 
ATOM     19  C   UNL     1      -6.818  10.799  19.657  0.00  0.00    +0.000 C 
ATOM     20  N   UNL     1      -6.329  11.743  20.405  0.00  0.00    +0.000 NA
ATOM     21  C   UNL     1      -5.877  12.792  19.460  0.00  0.00    +0.000 C 
ATOM     22  C   UNL     1      -5.769  12.123  18.084  0.00  0.00    +0.000 C 
ATOM     23  C   UNL     1      -6.813  11.024  18.176  0.00  0.00    +0.000 C 
ENDBRANCH  12  22
ENDBRANCH   1  16
BRANCH   9  24
ATOM     24  C   UNL     1       1.747   8.476  18.744  0.00  0.00    +0.000 C 
ATOM     25  F   UNL     1       0.907   8.305  17.683  0.00  0.00    +0.000 F 
ATOM     26  F   UNL     1       2.884   9.012  18.223  0.00  0.00    +0.000 F 
ATOM     27  F   UNL     1       2.072   7.224  19.163  0.00  0.00    +0.000 F 
ENDBRANCH   9  24
TORSDOF 3
ENDMDL
MODEL 6
REMARK VINA RESULT:      -8.2      2.084      3.117
REMARK  Name = 
REMARK  4 active torsions:
REMARK  status: ('A' for Active; 'I' for Inactive)
REMARK    1  A    between atoms: C_1  and  C_2
REMARK    2  A    between atoms: C_5  and  C_6
REMARK    3  A    between atoms: C_10  and  N_11
REMARK    4  A    between atoms: C_19  and  C_20
REMARK                            x       y       z     vdW  Elec       q    Type
REMARK                         _______ _______ _______ _____ _____    ______ ____
ROOT
ATOM      1  N   UNL     1       3.017   6.293  20.025  0.00  0.00    +0.000 N 
ATOM      2  C   UNL     1       4.352   5.882  19.527  0.00  0.00    +0.000 C 
ATOM      3  C   UNL     1       4.037   4.592  18.828  0.00  0.00    +0.000 A 
ATOM      4  C   UNL     1       2.894   4.059  19.433  0.00  0.00    +0.000 A 
ATOM      5  C   UNL     1       2.228   2.949  18.950  0.00  0.00    +0.000 A 
ATOM      6  C   UNL     1       2.744   2.371  17.802  0.00  0.00    +0.000 A 
ATOM      7  F   UNL     1       2.097   1.344  17.236  0.00  0.00    +0.000 F 
ATOM      8  C   UNL     1       3.881   2.892  17.163  0.00  0.00    +0.000 A 
ATOM      9  C   UNL     1       4.551   4.026  17.665  0.00  0.00    +0.000 A 
ATOM     10  C   UNL     1       2.330   5.099  20.317  0.00  0.00    +0.000 C 
ATOM     11  O   UNL     1       1.319   4.929  20.979  0.00  0.00    +0.000 OA
ENDROOT
BRANCH   1  16
ATOM     12  C   UNL     1       1.228   9.317  19.015  0.00  0.00    +0.000 A 
ATOM     13  C   UNL     1       2.058   9.696  17.952  0.00  0.00    +0.000 A 
ATOM     14  C   UNL     1       2.901   8.770  17.342  0.00  0.00    +0.000 A 
ATOM     15  C   UNL     1       3.004   7.482  17.856  0.00  0.00    +0.000 A 
ATOM     16  C   UNL     1       2.366   7.172  19.065  0.00  0.00    +0.000 A 
ATOM     17  C   UNL     1       1.370   8.026  19.545  0.00  0.00    +0.000 A 
BRANCH  12  22
ATOM     18  C   UNL     1       0.055   9.472  23.216  0.00  0.00    +0.000 C 
ATOM     19  C   UNL     1       0.216  10.156  21.898  0.00  0.00    +0.000 C 
ATOM     20  N   UNL     1       1.036  11.150  21.726  0.00  0.00    +0.000 NA
ATOM     21  C   UNL     1       0.906  11.518  20.296  0.00  0.00    +0.000 C 
ATOM     22  C   UNL     1       0.249  10.323  19.595  0.00  0.00    +0.000 C 
ATOM     23  C   UNL     1      -0.582   9.712  20.711  0.00  0.00    +0.000 C 
ENDBRANCH  12  22
ENDBRANCH   1  16
BRANCH   9  24
ATOM     24  C   UNL     1       5.684   4.616  16.873  0.00  0.00    +0.000 C 
ATOM     25  F   UNL     1       5.425   5.855  16.363  0.00  0.00    +0.000 F 
ATOM     26  F   UNL     1       6.807   4.761  17.626  0.00  0.00    +0.000 F 
ATOM     27  F   UNL     1       6.035   3.846  15.808  0.00  0.00    +0.000 F 
ENDBRANCH   9  24
TORSDOF 3
ENDMDL
MODEL 7
REMARK VINA RESULT:      -8.1      4.454      8.128
REMARK  Name = 
REMARK  4 active torsions:
REMARK  status: ('A' for Active; 'I' for Inactive)
REMARK    1  A    between atoms: C_1  and  C_2
REMARK    2  A    between atoms: C_5  and  C_6
REMARK    3  A    between atoms: C_10  and  N_11
REMARK    4  A    between atoms: C_19  and  C_20
REMARK                            x       y       z     vdW  Elec       q    Type
REMARK                         _______ _______ _______ _____ _____    ______ ____
ROOT
ATOM      1  N   UNL     1       0.062   9.244  20.733  0.00  0.00    +0.000 N 
ATOM      2  C   UNL     1      -1.130   9.182  19.853  0.00  0.00    +0.000 C 
ATOM      3  C   UNL     1      -1.203  10.587  19.332  0.00  0.00    +0.000 A 
ATOM      4  C   UNL     1      -0.599  11.416  20.284  0.00  0.00    +0.000 A 
ATOM      5  C   UNL     1      -0.352  12.758  20.073  0.00  0.00    +0.000 A 
ATOM      6  C   UNL     1      -0.726  13.268  18.840  0.00  0.00    +0.000 A 
ATOM      7  F   UNL     1      -0.438  14.542  18.542  0.00  0.00    +0.000 F 
ATOM      8  C   UNL     1      -1.320  12.458  17.859  0.00  0.00    +0.000 A 
ATOM      9  C   UNL     1      -1.566  11.089  18.086  0.00  0.00    +0.000 A 
ATOM     10  C   UNL     1       0.081  10.547  21.266  0.00  0.00    +0.000 C 
ATOM     11  O   UNL     1       0.705  10.987  22.218  0.00  0.00    +0.000 OA
ENDROOT
BRANCH   1  16
ATOM     12  C   UNL     1       2.533   6.843  19.507  0.00  0.00    +0.000 A 
ATOM     13  C   UNL     1       2.493   7.190  18.150  0.00  0.00    +0.000 A 
ATOM     14  C   UNL     1       2.001   8.429  17.746  0.00  0.00    +0.000 A 
ATOM     15  C   UNL     1       1.444   9.293  18.682  0.00  0.00    +0.000 A 
ATOM     16  C   UNL     1       1.256   8.851  19.999  0.00  0.00    +0.000 A 
ATOM     17  C   UNL     1       1.934   7.709  20.434  0.00  0.00    +0.000 A 
BRANCH  12  22
ATOM     18  C   UNL     1       0.549   2.965  19.242  0.00  0.00    +0.000 C 
ATOM     19  C   UNL     1       1.808   3.766  19.300  0.00  0.00    +0.000 C 
ATOM     20  N   UNL     1       2.662   3.791  18.320  0.00  0.00    +0.000 NA
ATOM     21  C   UNL     1       3.741   4.704  18.768  0.00  0.00    +0.000 C 
ATOM     22  C   UNL     1       3.164   5.527  19.925  0.00  0.00    +0.000 C 
ATOM     23  C   UNL     1       2.135   4.578  20.516  0.00  0.00    +0.000 C 
ENDBRANCH  12  22
ENDBRANCH   1  16
BRANCH   9  24
ATOM     24  C   UNL     1      -2.086  10.242  16.958  0.00  0.00    +0.000 C 
ATOM     25  F   UNL     1      -1.235   9.251  16.564  0.00  0.00    +0.000 F 
ATOM     26  F   UNL     1      -3.246   9.614  17.289  0.00  0.00    +0.000 F 
ATOM     27  F   UNL     1      -2.350  10.968  15.838  0.00  0.00    +0.000 F 
ENDBRANCH   9  24
TORSDOF 3
ENDMDL
MODEL 8
REMARK VINA RESULT:      -8.1      5.699      8.731
REMARK  Name = 
REMARK  4 active torsions:
REMARK  status: ('A' for Active; 'I' for Inactive)
REMARK    1  A    between atoms: C_1  and  C_2
REMARK    2  A    between atoms: C_5  and  C_6
REMARK    3  A    between atoms: C_10  and  N_11
REMARK    4  A    between atoms: C_19  and  C_20
REMARK                            x       y       z     vdW  Elec       q    Type
REMARK                         _______ _______ _______ _____ _____    ______ ____
ROOT
ATOM      1  N   UNL     1      -1.524  12.418  18.998  0.00  0.00    +0.000 N 
ATOM      2  C   UNL     1      -0.161  11.966  18.627  0.00  0.00    +0.000 C 
ATOM      3  C   UNL     1       0.193  11.072  19.779  0.00  0.00    +0.000 A 
ATOM      4  C   UNL     1      -0.540  11.510  20.887  0.00  0.00    +0.000 A 
ATOM      5  C   UNL     1      -0.580  10.828  22.087  0.00  0.00    +0.000 A 
ATOM      6  C   UNL     1       0.148   9.651  22.153  0.00  0.00    +0.000 A 
ATOM      7  F   UNL     1       0.084   8.901  23.260  0.00  0.00    +0.000 F 
ATOM      8  C   UNL     1       0.881   9.177  21.053  0.00  0.00    +0.000 A 
ATOM      9  C   UNL     1       0.913   9.882  19.832  0.00  0.00    +0.000 A 
ATOM     10  C   UNL     1      -1.537  12.488  20.405  0.00  0.00    +0.000 C 
ATOM     11  O   UNL     1      -2.332  13.043  21.146  0.00  0.00    +0.000 OA
ENDROOT
BRANCH   1  16
ATOM     12  C   UNL     1      -4.772  11.684  17.489  0.00  0.00    +0.000 A 
ATOM     13  C   UNL     1      -4.316  10.999  16.354  0.00  0.00    +0.000 A 
ATOM     14  C   UNL     1      -3.039  10.443  16.324  0.00  0.00    +0.000 A 
ATOM     15  C   UNL     1      -2.164  10.658  17.383  0.00  0.00    +0.000 A 
ATOM     16  C   UNL     1      -2.526  11.545  18.405  0.00  0.00    +0.000 A 
ATOM     17  C   UNL     1      -3.866  11.923  18.533  0.00  0.00    +0.000 A 
BRANCH  12  22
ATOM     18  C   UNL     1      -7.501  11.089  20.843  0.00  0.00    +0.000 C 
ATOM     19  C   UNL     1      -7.094  11.871  19.637  0.00  0.00    +0.000 C 
ATOM     20  N   UNL     1      -6.717  13.112  19.708  0.00  0.00    +0.000 NA
ATOM     21  C   UNL     1      -6.388  13.499  18.315  0.00  0.00    +0.000 C 
ATOM     22  C   UNL     1      -6.202  12.193  17.532  0.00  0.00    +0.000 C 
ATOM     23  C   UNL     1      -7.113  11.235  18.280  0.00  0.00    +0.000 C 
ENDBRANCH  12  22
ENDBRANCH   1  16
BRANCH   9  24
ATOM     24  C   UNL     1       1.608   9.266  18.650  0.00  0.00    +0.000 C 
ATOM     25  F   UNL     1       2.538  10.074  18.064  0.00  0.00    +0.000 F 
ATOM     26  F   UNL     1       2.276   8.132  18.991  0.00  0.00    +0.000 F 
ATOM     27  F   UNL     1       0.745   8.918  17.658  0.00  0.00    +0.000 F 
ENDBRANCH   9  24
TORSDOF 3
ENDMDL
MODEL 9
REMARK VINA RESULT:      -8.1      4.000      7.875
REMARK  Name = 
REMARK  4 active torsions:
REMARK  status: ('A' for Active; 'I' for Inactive)
REMARK    1  A    between atoms: C_1  and  C_2
REMARK    2  A    between atoms: C_5  and  C_6
REMARK    3  A    between atoms: C_10  and  N_11
REMARK    4  A    between atoms: C_19  and  C_20
REMARK                            x       y       z     vdW  Elec       q    Type
REMARK                         _______ _______ _______ _____ _____    ______ ____
ROOT
ATOM      1  N   UNL     1       0.741   8.315  21.170  0.00  0.00    +0.000 N 
ATOM      2  C   UNL     1      -0.525   8.630  20.463  0.00  0.00    +0.000 C 
ATOM      3  C   UNL     1      -0.371  10.098  20.193  0.00  0.00    +0.000 A 
ATOM      4  C   UNL     1       0.482  10.616  21.174  0.00  0.00    +0.000 A 
ATOM      5  C   UNL     1       0.968  11.908  21.151  0.00  0.00    +0.000 A 
ATOM      6  C   UNL     1       0.576  12.696  20.081  0.00  0.00    +0.000 A 
ATOM      7  F   UNL     1       1.080  13.930  19.956  0.00  0.00    +0.000 F 
ATOM      8  C   UNL     1      -0.265  12.200  19.072  0.00  0.00    +0.000 A 
ATOM      9  C   UNL     1      -0.754  10.878  19.106  0.00  0.00    +0.000 A 
ATOM     10  C   UNL     1       1.073   9.473  21.899  0.00  0.00    +0.000 C 
ATOM     11  O   UNL     1       1.868   9.610  22.815  0.00  0.00    +0.000 OA
ENDROOT
BRANCH   1  16
ATOM     12  C   UNL     1       2.337   5.850  18.992  0.00  0.00    +0.000 A 
ATOM     13  C   UNL     1       2.399   6.624  17.825  0.00  0.00    +0.000 A 
ATOM     14  C   UNL     1       2.314   8.013  17.886  0.00  0.00    +0.000 A 
ATOM     15  C   UNL     1       2.057   8.640  19.101  0.00  0.00    +0.000 A 
ATOM     16  C   UNL     1       1.749   7.860  20.224  0.00  0.00    +0.000 A 
ATOM     17  C   UNL     1       2.042   6.493  20.203  0.00  0.00    +0.000 A 
BRANCH  12  22
ATOM     18  C   UNL     1       5.203   3.886  16.350  0.00  0.00    +0.000 C 
ATOM     19  C   UNL     1       4.364   3.862  17.586  0.00  0.00    +0.000 C 
ATOM     20  N   UNL     1       4.882   3.795  18.777  0.00  0.00    +0.000 NA
ATOM     21  C   UNL     1       3.726   3.814  19.705  0.00  0.00    +0.000 C 
ATOM     22  C   UNL     1       2.532   4.347  18.904  0.00  0.00    +0.000 C 
ATOM     23  C   UNL     1       2.870   3.910  17.490  0.00  0.00    +0.000 C 
ENDBRANCH  12  22
ENDBRANCH   1  16
BRANCH   9  24
ATOM     24  C   UNL     1      -1.546  10.362  17.938  0.00  0.00    +0.000 C 
ATOM     25  F   UNL     1      -2.709   9.736  18.282  0.00  0.00    +0.000 F 
ATOM     26  F   UNL     1      -1.910  11.362  17.091  0.00  0.00    +0.000 F 
ATOM     27  F   UNL     1      -0.851   9.462  17.191  0.00  0.00    +0.000 F 
ENDBRANCH   9  24
TORSDOF 3
ENDMDL
