MODEL 1
REMARK VINA RESULT:     -10.3      0.000      0.000
REMARK  Name = 
REMARK  7 active torsions:
REMARK  status: ('A' for Active; 'I' for Inactive)
REMARK    1  A    between atoms: C_1  and  C_2
REMARK    2  A    between atoms: C_4  and  C_5
REMARK    3  A    between atoms: C_7  and  C_8
REMARK    4  A    between atoms: C_8  and  C_9
REMARK    5  A    between atoms: C_11  and  C_12
REMARK    6  A    between atoms: C_16  and  C_17
REMARK    7  A    between atoms: C_17  and  C_18
REMARK                            x       y       z     vdW  Elec       q    Type
REMARK                         _______ _______ _______ _____ _____    ______ ____
ROOT
ATOM      1  C   UNL     1       1.041   9.458  19.573  0.00  0.00    +0.000 A 
ATOM      2  N   UNL     1       1.777   8.832  18.683  0.00  0.00    +0.000 NA
ATOM      3  C   UNL     1       2.102   7.668  19.327  0.00  0.00    +0.000 A 
ATOM      4  N   UNL     1       1.694   7.604  20.602  0.00  0.00    +0.000 NA
ATOM      5  O   UNL     1       0.932   8.770  20.752  0.00  0.00    +0.000 OA
ENDROOT
BRANCH   3   6
ATOM      6  C   UNL     1       2.727   6.578  18.601  0.00  0.00    +0.000 A 
ATOM      7  C   UNL     1       2.046   5.391  18.334  0.00  0.00    +0.000 A 
ATOM      8  C   UNL     1       2.684   4.384  17.616  0.00  0.00    +0.000 A 
ATOM      9  C   UNL     1       3.994   4.568  17.150  0.00  0.00    +0.000 A 
ATOM     10  C   UNL     1       4.700   5.767  17.382  0.00  0.00    +0.000 A 
ATOM     11  C   UNL     1       4.046   6.750  18.137  0.00  0.00    +0.000 A 
BRANCH  10  12
ATOM     12  C   UNL     1       6.103   6.026  16.841  0.00  0.00    +0.000 C 
ATOM     13  C   UNL     1       6.789   7.298  17.348  0.00  0.00    +0.000 C 
ATOM     14  N   UNL     1       6.120   6.020  15.389  0.00  0.00    +0.000 N 
ATOM     15  C   UNL     1       7.087   5.189  14.878  0.00  0.00    +0.000 C 
ATOM     16  O   UNL     1       7.366   5.081  13.698  0.00  0.00    +0.000 OA
ATOM     17  N   UNL     1       7.658   4.513  15.900  0.00  0.00    +0.000 N 
ATOM     18  C   UNL     1       7.092   4.865  17.092  0.00  0.00    +0.000 C 
ATOM     19  O   UNL     1       7.396   4.369  18.165  0.00  0.00    +0.000 OA
ATOM     20  H   UNL     1       5.571   6.623  14.790  0.00  0.00    +0.000 HD
ATOM     21  H   UNL     1       8.366   3.807  15.786  0.00  0.00    +0.000 HD
ENDBRANCH  10  12
ENDBRANCH   3   6
BRANCH   1  22
ATOM     22  C   UNL     1       0.462  10.854  19.322  0.00  0.00    +0.000 C 
ATOM     23  C   UNL     1       1.238  11.935  20.061  0.00  0.00    +0.000 C 
ATOM     24  C   UNL     1       1.289  11.919  18.577  0.00  0.00    +0.000 C 
BRANCH  22  31
ATOM     25  C   UNL     1      -2.753   9.700  15.675  0.00  0.00    +0.000 C 
ATOM     26  C   UNL     1      -2.539  10.333  17.019  0.00  0.00    +0.000 A 
ATOM     27  C   UNL     1      -3.541  11.063  17.652  0.00  0.00    +0.000 A 
ATOM     28  C   UNL     1      -3.293  11.688  18.881  0.00  0.00    +0.000 A 
ATOM     29  C   UNL     1      -4.379  12.499  19.535  0.00  0.00    +0.000 C 
ATOM     30  C   UNL     1      -2.021  11.592  19.481  0.00  0.00    +0.000 A 
ATOM     31  C   UNL     1      -0.985  10.887  18.861  0.00  0.00    +0.000 A 
ATOM     32  C   UNL     1      -1.291  10.237  17.640  0.00  0.00    +0.000 A 
ENDBRANCH  22  31
ENDBRANCH   1  22
TORSDOF 4
ENDMDL
MODEL 2
REMARK VINA RESULT:     -10.2      2.699      9.218
REMARK  Name = 
REMARK  7 active torsions:
REMARK  status: ('A' for Active; 'I' for Inactive)
REMARK    1  A    between atoms: C_1  and  C_2
REMARK    2  A    between atoms: C_4  and  C_5
REMARK    3  A    between atoms: C_7  and  C_8
REMARK    4  A    between atoms: C_8  and  C_9
REMARK    5  A    between atoms: C_11  and  C_12
REMARK    6  A    between atoms: C_16  and  C_17
REMARK    7  A    between atoms: C_17  and  C_18
REMARK                            x       y       z     vdW  Elec       q    Type
REMARK                         _______ _______ _______ _____ _____    ______ ____
ROOT
ATOM      1  C   UNL     1       2.696   6.338  18.604  0.00  0.00    +0.000 A 
ATOM      2  N   UNL     1       2.107   6.783  19.691  0.00  0.00    +0.000 NA
ATOM      3  C   UNL     1       1.917   8.110  19.408  0.00  0.00    +0.000 A 
ATOM      4  N   UNL     1       2.461   8.516  18.251  0.00  0.00    +0.000 NA
ATOM      5  O   UNL     1       2.927   7.323  17.682  0.00  0.00    +0.000 OA
ENDROOT
BRANCH   3   6
ATOM      6  C   UNL     1       1.082   8.930  20.264  0.00  0.00    +0.000 A 
ATOM      7  C   UNL     1       1.131   8.825  21.654  0.00  0.00    +0.000 A 
ATOM      8  C   UNL     1       0.324   9.650  22.430  0.00  0.00    +0.000 A 
ATOM      9  C   UNL     1      -0.519  10.591  21.822  0.00  0.00    +0.000 A 
ATOM     10  C   UNL     1      -0.573  10.740  20.421  0.00  0.00    +0.000 A 
ATOM     11  C   UNL     1       0.225   9.872  19.662  0.00  0.00    +0.000 A 
BRANCH  10  12
ATOM     12  C   UNL     1      -1.434  11.791  19.726  0.00  0.00    +0.000 C 
ATOM     13  C   UNL     1      -2.099  12.821  20.644  0.00  0.00    +0.000 C 
ATOM     14  N   UNL     1      -2.447  11.174  18.887  0.00  0.00    +0.000 N 
ATOM     15  C   UNL     1      -2.447  11.678  17.610  0.00  0.00    +0.000 C 
ATOM     16  O   UNL     1      -3.257  11.397  16.745  0.00  0.00    +0.000 OA
ATOM     17  N   UNL     1      -1.398  12.521  17.477  0.00  0.00    +0.000 N 
ATOM     18  C   UNL     1      -0.683  12.592  18.638  0.00  0.00    +0.000 C 
ATOM     19  O   UNL     1       0.337  13.249  18.774  0.00  0.00    +0.000 OA
ATOM     20  H   UNL     1      -3.155  10.524  19.199  0.00  0.00    +0.000 HD
ATOM     21  H   UNL     1      -1.150  12.986  16.621  0.00  0.00    +0.000 HD
ENDBRANCH  10  12
ENDBRANCH   3   6
BRANCH   1  22
ATOM     22  C   UNL     1       3.150   4.882  18.457  0.00  0.00    +0.000 C 
ATOM     23  C   UNL     1       2.394   3.951  19.394  0.00  0.00    +0.000 C 
ATOM     24  C   UNL     1       2.177   3.810  17.932  0.00  0.00    +0.000 C 
BRANCH  22  31
ATOM     25  C   UNL     1       8.066   5.548  19.056  0.00  0.00    +0.000 C 
ATOM     26  C   UNL     1       6.954   5.067  18.171  0.00  0.00    +0.000 A 
ATOM     27  C   UNL     1       7.180   4.692  16.850  0.00  0.00    +0.000 A 
ATOM     28  C   UNL     1       6.112   4.300  16.032  0.00  0.00    +0.000 A 
ATOM     29  C   UNL     1       6.373   3.928  14.598  0.00  0.00    +0.000 C 
ATOM     30  C   UNL     1       4.797   4.293  16.538  0.00  0.00    +0.000 A 
ATOM     31  C   UNL     1       4.530   4.687  17.854  0.00  0.00    +0.000 A 
ATOM     32  C   UNL     1       5.644   5.038  18.657  0.00  0.00    +0.000 A 
ENDBRANCH  22  31
ENDBRANCH   1  22
TORSDOF 4
ENDMDL
MODEL 3
REMARK VINA RESULT:     -10.1      1.417      2.086
REMARK  Name = 
REMARK  7 active torsions:
REMARK  status: ('A' for Active; 'I' for Inactive)
REMARK    1  A    between atoms: C_1  and  C_2
REMARK    2  A    between atoms: C_4  and  C_5
REMARK    3  A    between atoms: C_7  and  C_8
REMARK    4  A    between atoms: C_8  and  C_9
REMARK    5  A    between atoms: C_11  and  C_12
REMARK    6  A    between atoms: C_16  and  C_17
REMARK    7  A    between atoms: C_17  and  C_18
REMARK                            x       y       z     vdW  Elec       q    Type
REMARK                         _______ _______ _______ _____ _____    ______ ____
ROOT
ATOM      1  C   UNL     1       1.005  10.173  18.738  0.00  0.00    +0.000 A 
ATOM      2  N   UNL     1       1.111   8.973  19.259  0.00  0.00    +0.000 NA
ATOM      3  C   UNL     1       2.040   8.374  18.450  0.00  0.00    +0.000 A 
ATOM      4  N   UNL     1       2.419   9.112  17.397  0.00  0.00    +0.000 NA
ATOM      5  O   UNL     1       1.778  10.338  17.620  0.00  0.00    +0.000 OA
ENDROOT
BRANCH   3   6
ATOM      6  C   UNL     1       2.621   7.098  18.819  0.00  0.00    +0.000 A 
ATOM      7  C   UNL     1       2.196   6.398  19.948  0.00  0.00    +0.000 A 
ATOM      8  C   UNL     1       2.771   5.168  20.247  0.00  0.00    +0.000 A 
ATOM      9  C   UNL     1       3.759   4.627  19.411  0.00  0.00    +0.000 A 
ATOM     10  C   UNL     1       4.192   5.297  18.248  0.00  0.00    +0.000 A 
ATOM     11  C   UNL     1       3.620   6.550  17.990  0.00  0.00    +0.000 A 
BRANCH  10  12
ATOM     12  C   UNL     1       5.221   4.713  17.284  0.00  0.00    +0.000 C 
ATOM     13  C   UNL     1       4.676   3.733  16.240  0.00  0.00    +0.000 C 
ATOM     14  N   UNL     1       6.321   4.089  17.998  0.00  0.00    +0.000 N 
ATOM     15  C   UNL     1       7.546   4.534  17.567  0.00  0.00    +0.000 C 
ATOM     16  O   UNL     1       8.621   4.098  17.938  0.00  0.00    +0.000 OA
ATOM     17  N   UNL     1       7.354   5.535  16.679  0.00  0.00    +0.000 N 
ATOM     18  C   UNL     1       6.023   5.782  16.506  0.00  0.00    +0.000 C 
ATOM     19  O   UNL     1       5.578   6.665  15.790  0.00  0.00    +0.000 OA
ATOM     20  H   UNL     1       6.238   3.335  18.667  0.00  0.00    +0.000 HD
ATOM     21  H   UNL     1       8.097   6.061  16.249  0.00  0.00    +0.000 HD
ENDBRANCH  10  12
ENDBRANCH   3   6
BRANCH   1  22
ATOM     22  C   UNL     1       0.035  11.224  19.290  0.00  0.00    +0.000 C 
ATOM     23  C   UNL     1       0.526  11.819  20.603  0.00  0.00    +0.000 C 
ATOM     24  C   UNL     1       0.466  12.698  19.407  0.00  0.00    +0.000 C 
BRANCH  22  31
ATOM     25  C   UNL     1      -2.939   9.741  15.559  0.00  0.00    +0.000 C 
ATOM     26  C   UNL     1      -2.827  10.411  16.896  0.00  0.00    +0.000 A 
ATOM     27  C   UNL     1      -3.909  11.064  17.480  0.00  0.00    +0.000 A 
ATOM     28  C   UNL     1      -3.758  11.728  18.704  0.00  0.00    +0.000 A 
ATOM     29  C   UNL     1      -4.932  12.455  19.305  0.00  0.00    +0.000 C 
ATOM     30  C   UNL     1      -2.506  11.751  19.350  0.00  0.00    +0.000 A 
ATOM     31  C   UNL     1      -1.392  11.126  18.780  0.00  0.00    +0.000 A 
ATOM     32  C   UNL     1      -1.598  10.432  17.561  0.00  0.00    +0.000 A 
ENDBRANCH  22  31
ENDBRANCH   1  22
TORSDOF 4
ENDMDL
MODEL 4
REMARK VINA RESULT:     -10.0      2.604      4.061
REMARK  Name = 
REMARK  7 active torsions:
REMARK  status: ('A' for Active; 'I' for Inactive)
REMARK    1  A    between atoms: C_1  and  C_2
REMARK    2  A    between atoms: C_4  and  C_5
REMARK    3  A    between atoms: C_7  and  C_8
REMARK    4  A    between atoms: C_8  and  C_9
REMARK    5  A    between atoms: C_11  and  C_12
REMARK    6  A    between atoms: C_16  and  C_17
REMARK    7  A    between atoms: C_17  and  C_18
REMARK                            x       y       z     vdW  Elec       q    Type
REMARK                         _______ _______ _______ _____ _____    ______ ____
ROOT
ATOM      1  C   UNL     1       0.627  10.035  19.544  0.00  0.00    +0.000 A 
ATOM      2  N   UNL     1       1.435   9.429  18.704  0.00  0.00    +0.000 NA
ATOM      3  C   UNL     1       1.807   8.310  19.400  0.00  0.00    +0.000 A 
ATOM      4  N   UNL     1       1.354   8.262  20.662  0.00  0.00    +0.000 NA
ATOM      5  O   UNL     1       0.515   9.382  20.741  0.00  0.00    +0.000 OA
ENDROOT
BRANCH   3   6
ATOM      6  C   UNL     1       2.526   7.239  18.737  0.00  0.00    +0.000 A 
ATOM      7  C   UNL     1       3.466   7.495  17.740  0.00  0.00    +0.000 A 
ATOM      8  C   UNL     1       4.144   6.434  17.150  0.00  0.00    +0.000 A 
ATOM      9  C   UNL     1       3.896   5.117  17.565  0.00  0.00    +0.000 A 
ATOM     10  C   UNL     1       2.970   4.826  18.588  0.00  0.00    +0.000 A 
ATOM     11  C   UNL     1       2.277   5.912  19.142  0.00  0.00    +0.000 A 
BRANCH  10  12
ATOM     12  C   UNL     1       2.716   3.414  19.107  0.00  0.00    +0.000 C 
ATOM     13  C   UNL     1       2.448   2.349  18.038  0.00  0.00    +0.000 C 
ATOM     14  N   UNL     1       1.640   3.394  20.082  0.00  0.00    +0.000 N 
ATOM     15  C   UNL     1       1.995   2.753  21.243  0.00  0.00    +0.000 C 
ATOM     16  O   UNL     1       1.245   2.520  22.173  0.00  0.00    +0.000 OA
ATOM     17  N   UNL     1       3.310   2.441  21.179  0.00  0.00    +0.000 N 
ATOM     18  C   UNL     1       3.852   2.864  19.999  0.00  0.00    +0.000 C 
ATOM     19  O   UNL     1       5.031   2.745  19.708  0.00  0.00    +0.000 OA
ATOM     20  H   UNL     1       0.693   3.711  19.922  0.00  0.00    +0.000 HD
ATOM     21  H   UNL     1       3.825   2.005  21.925  0.00  0.00    +0.000 HD
ENDBRANCH  10  12
ENDBRANCH   3   6
BRANCH   1  22
ATOM     22  C   UNL     1      -0.028  11.383  19.222  0.00  0.00    +0.000 C 
ATOM     23  C   UNL     1       0.453  12.488  20.152  0.00  0.00    +0.000 C 
ATOM     24  C   UNL     1       0.822  12.563  18.716  0.00  0.00    +0.000 C 
BRANCH  22  31
ATOM     25  C   UNL     1      -4.950  12.240  19.333  0.00  0.00    +0.000 C 
ATOM     26  C   UNL     1      -3.776  11.710  18.564  0.00  0.00    +0.000 A 
ATOM     27  C   UNL     1      -3.937  11.022  17.365  0.00  0.00    +0.000 A 
ATOM     28  C   UNL     1      -2.825  10.492  16.698  0.00  0.00    +0.000 A 
ATOM     29  C   UNL     1      -3.023   9.724  15.418  0.00  0.00    +0.000 C 
ATOM     30  C   UNL     1      -1.534  10.641  17.242  0.00  0.00    +0.000 A 
ATOM     31  C   UNL     1      -1.338  11.305  18.457  0.00  0.00    +0.000 A 
ATOM     32  C   UNL     1      -2.485  11.861  19.077  0.00  0.00    +0.000 A 
ENDBRANCH  22  31
ENDBRANCH   1  22
TORSDOF 4
ENDMDL
MODEL 5
REMARK VINA RESULT:     -10.0      2.592      3.736
REMARK  Name = 
REMARK  7 active torsions:
REMARK  status: ('A' for Active; 'I' for Inactive)
REMARK    1  A    between atoms: C_1  and  C_2
REMARK    2  A    between atoms: C_4  and  C_5
REMARK    3  A    between atoms: C_7  and  C_8
REMARK    4  A    between atoms: C_8  and  C_9
REMARK    5  A    between atoms: C_11  and  C_12
REMARK    6  A    between atoms: C_16  and  C_17
REMARK    7  A    between atoms: C_17  and  C_18
REMARK                            x       y       z     vdW  Elec       q    Type
REMARK                         _______ _______ _______ _____ _____    ______ ____
ROOT
ATOM      1  C   UNL     1       0.639   9.922  19.609  0.00  0.00    +0.000 A 
ATOM      2  N   UNL     1       1.420   9.321  18.741  0.00  0.00    +0.000 NA
ATOM      3  C   UNL     1       1.845   8.217  19.431  0.00  0.00    +0.000 A 
ATOM      4  N   UNL     1       1.450   8.176  20.712  0.00  0.00    +0.000 NA
ATOM      5  O   UNL     1       0.594   9.280  20.817  0.00  0.00    +0.000 OA
ENDROOT
BRANCH   3   6
ATOM      6  C   UNL     1       2.554   7.152  18.748  0.00  0.00    +0.000 A 
ATOM      7  C   UNL     1       3.468   7.417  17.728  0.00  0.00    +0.000 A 
ATOM      8  C   UNL     1       4.137   6.361  17.119  0.00  0.00    +0.000 A 
ATOM      9  C   UNL     1       3.909   5.042  17.538  0.00  0.00    +0.000 A 
ATOM     10  C   UNL     1       3.011   4.743  18.584  0.00  0.00    +0.000 A 
ATOM     11  C   UNL     1       2.325   5.823  19.156  0.00  0.00    +0.000 A 
BRANCH  10  12
ATOM     12  C   UNL     1       2.780   3.328  19.106  0.00  0.00    +0.000 C 
ATOM     13  C   UNL     1       2.568   2.250  18.039  0.00  0.00    +0.000 C 
ATOM     14  N   UNL     1       1.679   3.287  20.053  0.00  0.00    +0.000 N 
ATOM     15  C   UNL     1       2.021   2.663  21.228  0.00  0.00    +0.000 C 
ATOM     16  O   UNL     1       1.253   2.417  22.140  0.00  0.00    +0.000 OA
ATOM     17  N   UNL     1       3.344   2.385  21.200  0.00  0.00    +0.000 N 
ATOM     18  C   UNL     1       3.906   2.814  20.032  0.00  0.00    +0.000 C 
ATOM     19  O   UNL     1       5.095   2.723  19.772  0.00  0.00    +0.000 OA
ATOM     20  H   UNL     1       0.729   3.578  19.866  0.00  0.00    +0.000 HD
ATOM     21  H   UNL     1       3.851   1.968  21.962  0.00  0.00    +0.000 HD
ENDBRANCH  10  12
ENDBRANCH   3   6
BRANCH   1  22
ATOM     22  C   UNL     1      -0.056  11.252  19.302  0.00  0.00    +0.000 C 
ATOM     23  C   UNL     1       0.560  12.410  20.076  0.00  0.00    +0.000 C 
ATOM     24  C   UNL     1       0.710  12.389  18.599  0.00  0.00    +0.000 C 
BRANCH  22  31
ATOM     25  C   UNL     1      -2.896   9.756  15.473  0.00  0.00    +0.000 C 
ATOM     26  C   UNL     1      -2.833  10.419  16.817  0.00  0.00    +0.000 A 
ATOM     27  C   UNL     1      -3.941  11.054  17.372  0.00  0.00    +0.000 A 
ATOM     28  C   UNL     1      -3.836  11.711  18.605  0.00  0.00    +0.000 A 
ATOM     29  C   UNL     1      -5.037  12.417  19.174  0.00  0.00    +0.000 C 
ATOM     30  C   UNL     1      -2.605  11.746  19.288  0.00  0.00    +0.000 A 
ATOM     31  C   UNL     1      -1.466  11.140  18.748  0.00  0.00    +0.000 A 
ATOM     32  C   UNL     1      -1.625  10.452  17.519  0.00  0.00    +0.000 A 
ENDBRANCH  22  31
ENDBRANCH   1  22
TORSDOF 4
ENDMDL
MODEL 6
REMARK VINA RESULT:      -9.8      1.321      2.517
REMARK  Name = 
REMARK  7 active torsions:
REMARK  status: ('A' for Active; 'I' for Inactive)
REMARK    1  A    between atoms: C_1  and  C_2
REMARK    2  A    between atoms: C_4  and  C_5
REMARK    3  A    between atoms: C_7  and  C_8
REMARK    4  A    between atoms: C_8  and  C_9
REMARK    5  A    between atoms: C_11  and  C_12
REMARK    6  A    between atoms: C_16  and  C_17
REMARK    7  A    between atoms: C_17  and  C_18
REMARK                            x       y       z     vdW  Elec       q    Type
REMARK                         _______ _______ _______ _____ _____    ______ ____
ROOT
ATOM      1  C   UNL     1       1.150   9.264  19.577  0.00  0.00    +0.000 A 
ATOM      2  N   UNL     1       1.859   8.578  18.711  0.00  0.00    +0.000 NA
ATOM      3  C   UNL     1       2.063   7.390  19.363  0.00  0.00    +0.000 A 
ATOM      4  N   UNL     1       1.609   7.362  20.624  0.00  0.00    +0.000 NA
ATOM      5  O   UNL     1       0.944   8.590  20.750  0.00  0.00    +0.000 OA
ENDROOT
BRANCH   3   6
ATOM      6  C   UNL     1       2.616   6.251  18.656  0.00  0.00    +0.000 A 
ATOM      7  C   UNL     1       1.800   5.264  18.105  0.00  0.00    +0.000 A 
ATOM      8  C   UNL     1       2.380   4.202  17.419  0.00  0.00    +0.000 A 
ATOM      9  C   UNL     1       3.773   4.133  17.268  0.00  0.00    +0.000 A 
ATOM     10  C   UNL     1       4.624   5.128  17.792  0.00  0.00    +0.000 A 
ATOM     11  C   UNL     1       4.015   6.168  18.508  0.00  0.00    +0.000 A 
BRANCH  10  12
ATOM     12  C   UNL     1       6.137   5.117  17.598  0.00  0.00    +0.000 C 
ATOM     13  C   UNL     1       6.647   4.362  16.366  0.00  0.00    +0.000 C 
ATOM     14  N   UNL     1       6.818   4.619  18.780  0.00  0.00    +0.000 N 
ATOM     15  C   UNL     1       7.815   5.462  19.206  0.00  0.00    +0.000 C 
ATOM     16  O   UNL     1       8.592   5.227  20.114  0.00  0.00    +0.000 OA
ATOM     17  N   UNL     1       7.776   6.588  18.459  0.00  0.00    +0.000 N 
ATOM     18  C   UNL     1       6.768   6.527  17.540  0.00  0.00    +0.000 C 
ATOM     19  O   UNL     1       6.489   7.432  16.770  0.00  0.00    +0.000 OA
ATOM     20  H   UNL     1       6.675   3.713  19.206  0.00  0.00    +0.000 HD
ATOM     21  H   UNL     1       8.376   7.383  18.602  0.00  0.00    +0.000 HD
ENDBRANCH  10  12
ENDBRANCH   3   6
BRANCH   1  22
ATOM     22  C   UNL     1       0.700  10.705  19.309  0.00  0.00    +0.000 C 
ATOM     23  C   UNL     1       1.427  11.704  20.200  0.00  0.00    +0.000 C 
ATOM     24  C   UNL     1       1.690  11.737  18.739  0.00  0.00    +0.000 C 
BRANCH  22  31
ATOM     25  C   UNL     1      -3.961  12.445  19.769  0.00  0.00    +0.000 C 
ATOM     26  C   UNL     1      -2.968  11.696  18.931  0.00  0.00    +0.000 A 
ATOM     27  C   UNL     1      -3.348  11.024  17.772  0.00  0.00    +0.000 A 
ATOM     28  C   UNL     1      -2.408  10.287  17.040  0.00  0.00    +0.000 A 
ATOM     29  C   UNL     1      -2.845   9.543  15.807  0.00  0.00    +0.000 C 
ATOM     30  C   UNL     1      -1.071  10.209  17.477  0.00  0.00    +0.000 A 
ATOM     31  C   UNL     1      -0.660  10.851  18.650  0.00  0.00    +0.000 A 
ATOM     32  C   UNL     1      -1.633  11.619  19.338  0.00  0.00    +0.000 A 
ENDBRANCH  22  31
ENDBRANCH   1  22
TORSDOF 4
ENDMDL
MODEL 7
REMARK VINA RESULT:      -9.8      2.545      3.743
REMARK  Name = 
REMARK  7 active torsions:
REMARK  status: ('A' for Active; 'I' for Inactive)
REMARK    1  A    between atoms: C_1  and  C_2
REMARK    2  A    between atoms: C_4  and  C_5
REMARK    3  A    between atoms: C_7  and  C_8
REMARK    4  A    between atoms: C_8  and  C_9
REMARK    5  A    between atoms: C_11  and  C_12
REMARK    6  A    between atoms: C_16  and  C_17
REMARK    7  A    between atoms: C_17  and  C_18
REMARK                            x       y       z     vdW  Elec       q    Type
REMARK                         _______ _______ _______ _____ _____    ______ ____
ROOT
ATOM      1  C   UNL     1       0.141  10.429  19.431  0.00  0.00    +0.000 A 
ATOM      2  N   UNL     1       0.999   9.852  18.622  0.00  0.00    +0.000 NA
ATOM      3  C   UNL     1       1.442   8.789  19.363  0.00  0.00    +0.000 A 
ATOM      4  N   UNL     1       0.980   8.755  20.621  0.00  0.00    +0.000 NA
ATOM      5  O   UNL     1       0.062   9.814  20.652  0.00  0.00    +0.000 OA
ENDROOT
BRANCH   3   6
ATOM      6  C   UNL     1       2.244   7.749  18.747  0.00  0.00    +0.000 A 
ATOM      7  C   UNL     1       3.206   8.040  17.781  0.00  0.00    +0.000 A 
ATOM      8  C   UNL     1       3.962   7.009  17.235  0.00  0.00    +0.000 A 
ATOM      9  C   UNL     1       3.771   5.687  17.666  0.00  0.00    +0.000 A 
ATOM     10  C   UNL     1       2.825   5.362  18.659  0.00  0.00    +0.000 A 
ATOM     11  C   UNL     1       2.053   6.417  19.166  0.00  0.00    +0.000 A 
BRANCH  10  12
ATOM     12  C   UNL     1       2.630   3.947  19.194  0.00  0.00    +0.000 C 
ATOM     13  C   UNL     1       1.273   3.661  19.846  0.00  0.00    +0.000 C 
ATOM     14  N   UNL     1       3.690   3.580  20.117  0.00  0.00    +0.000 N 
ATOM     15  C   UNL     1       4.271   2.377  19.797  0.00  0.00    +0.000 C 
ATOM     16  O   UNL     1       5.113   1.806  20.465  0.00  0.00    +0.000 OA
ATOM     17  N   UNL     1       3.759   1.951  18.620  0.00  0.00    +0.000 N 
ATOM     18  C   UNL     1       2.849   2.844  18.134  0.00  0.00    +0.000 C 
ATOM     19  O   UNL     1       2.272   2.718  17.065  0.00  0.00    +0.000 OA
ATOM     20  H   UNL     1       3.929   4.073  20.967  0.00  0.00    +0.000 HD
ATOM     21  H   UNL     1       4.055   1.114  18.145  0.00  0.00    +0.000 HD
ENDBRANCH  10  12
ENDBRANCH   3   6
BRANCH   1  22
ATOM     22  C   UNL     1      -0.606  11.713  19.053  0.00  0.00    +0.000 C 
ATOM     23  C   UNL     1      -0.286  12.860  20.003  0.00  0.00    +0.000 C 
ATOM     24  C   UNL     1       0.171  12.961  18.594  0.00  0.00    +0.000 C 
BRANCH  22  31
ATOM     25  C   UNL     1      -5.599  11.836  18.925  0.00  0.00    +0.000 C 
ATOM     26  C   UNL     1      -4.323  11.556  18.190  0.00  0.00    +0.000 A 
ATOM     27  C   UNL     1      -4.319  10.966  16.929  0.00  0.00    +0.000 A 
ATOM     28  C   UNL     1      -3.108  10.666  16.291  0.00  0.00    +0.000 A 
ATOM     29  C   UNL     1      -3.124  10.001  14.941  0.00  0.00    +0.000 C 
ATOM     30  C   UNL     1      -1.882  10.949  16.926  0.00  0.00    +0.000 A 
ATOM     31  C   UNL     1      -1.849  11.519  18.203  0.00  0.00    +0.000 A 
ATOM     32  C   UNL     1      -3.096  11.843  18.795  0.00  0.00    +0.000 A 
ENDBRANCH  22  31
ENDBRANCH   1  22
TORSDOF 4
ENDMDL
MODEL 8
REMARK VINA RESULT:      -9.8      1.130      1.344
REMARK  Name = 
REMARK  7 active torsions:
REMARK  status: ('A' for Active; 'I' for Inactive)
REMARK    1  A    between atoms: C_1  and  C_2
REMARK    2  A    between atoms: C_4  and  C_5
REMARK    3  A    between atoms: C_7  and  C_8
REMARK    4  A    between atoms: C_8  and  C_9
REMARK    5  A    between atoms: C_11  and  C_12
REMARK    6  A    between atoms: C_16  and  C_17
REMARK    7  A    between atoms: C_17  and  C_18
REMARK                            x       y       z     vdW  Elec       q    Type
REMARK                         _______ _______ _______ _____ _____    ______ ____
ROOT
ATOM      1  C   UNL     1       0.700  10.132  18.777  0.00  0.00    +0.000 A 
ATOM      2  N   UNL     1       0.896   8.834  18.810  0.00  0.00    +0.000 NA
ATOM      3  C   UNL     1       2.023   8.680  18.047  0.00  0.00    +0.000 A 
ATOM      4  N   UNL     1       2.456   9.806  17.461  0.00  0.00    +0.000 NA
ATOM      5  O   UNL     1       1.611  10.788  17.996  0.00  0.00    +0.000 OA
ENDROOT
BRANCH   3   6
ATOM      6  C   UNL     1       2.719   7.408  18.014  0.00  0.00    +0.000 A 
ATOM      7  C   UNL     1       2.085   6.216  18.362  0.00  0.00    +0.000 A 
ATOM      8  C   UNL     1       2.791   5.020  18.294  0.00  0.00    +0.000 A 
ATOM      9  C   UNL     1       4.125   5.010  17.861  0.00  0.00    +0.000 A 
ATOM     10  C   UNL     1       4.788   6.195  17.478  0.00  0.00    +0.000 A 
ATOM     11  C   UNL     1       4.063   7.389  17.590  0.00  0.00    +0.000 A 
BRANCH  10  12
ATOM     12  C   UNL     1       6.219   6.216  16.948  0.00  0.00    +0.000 C 
ATOM     13  C   UNL     1       7.087   7.386  17.420  0.00  0.00    +0.000 C 
ATOM     14  N   UNL     1       6.245   6.155  15.497  0.00  0.00    +0.000 N 
ATOM     15  C   UNL     1       7.078   5.168  15.029  0.00  0.00    +0.000 C 
ATOM     16  O   UNL     1       7.347   4.975  13.857  0.00  0.00    +0.000 OA
ATOM     17  N   UNL     1       7.530   4.450  16.081  0.00  0.00    +0.000 N 
ATOM     18  C   UNL     1       7.015   4.927  17.252  0.00  0.00    +0.000 C 
ATOM     19  O   UNL     1       7.232   4.431  18.346  0.00  0.00    +0.000 OA
ATOM     20  H   UNL     1       5.801   6.813  14.870  0.00  0.00    +0.000 HD
ATOM     21  H   UNL     1       8.122   3.640  16.001  0.00  0.00    +0.000 HD
ENDBRANCH  10  12
ENDBRANCH   3   6
BRANCH   1  22
ATOM     22  C   UNL     1      -0.493  10.798  19.472  0.00  0.00    +0.000 C 
ATOM     23  C   UNL     1      -0.333  10.817  20.986  0.00  0.00    +0.000 C 
ATOM     24  C   UNL     1      -0.305  12.109  20.257  0.00  0.00    +0.000 C 
BRANCH  22  31
ATOM     25  C   UNL     1      -2.654   9.843  15.069  0.00  0.00    +0.000 C 
ATOM     26  C   UNL     1      -2.803  10.388  16.459  0.00  0.00    +0.000 A 
ATOM     27  C   UNL     1      -3.953  11.061  16.861  0.00  0.00    +0.000 A 
ATOM     28  C   UNL     1      -4.040  11.607  18.149  0.00  0.00    +0.000 A 
ATOM     29  C   UNL     1      -5.280  12.357  18.555  0.00  0.00    +0.000 C 
ATOM     30  C   UNL     1      -2.958  11.489  19.044  0.00  0.00    +0.000 A 
ATOM     31  C   UNL     1      -1.778  10.841  18.664  0.00  0.00    +0.000 A 
ATOM     32  C   UNL     1      -1.748  10.269  17.368  0.00  0.00    +0.000 A 
ENDBRANCH  22  31
ENDBRANCH   1  22
TORSDOF 4
ENDMDL
MODEL 9
REMARK VINA RESULT:      -9.8      1.253      1.909
REMARK  Name = 
REMARK  7 active torsions:
REMARK  status: ('A' for Active; 'I' for Inactive)
REMARK    1  A    between atoms: C_1  and  C_2
REMARK    2  A    between atoms: C_4  and  C_5
REMARK    3  A    between atoms: C_7  and  C_8
REMARK    4  A    between atoms: C_8  and  C_9
REMARK    5  A    between atoms: C_11  and  C_12
REMARK    6  A    between atoms: C_16  and  C_17
REMARK    7  A    between atoms: C_17  and  C_18
REMARK                            x       y       z     vdW  Elec       q    Type
REMARK                         _______ _______ _______ _____ _____    ______ ____
ROOT
ATOM      1  C   UNL     1       1.165   9.220  19.601  0.00  0.00    +0.000 A 
ATOM      2  N   UNL     1       1.812   8.521  18.697  0.00  0.00    +0.000 NA
ATOM      3  C   UNL     1       2.071   7.347  19.354  0.00  0.00    +0.000 A 
ATOM      4  N   UNL     1       1.714   7.341  20.646  0.00  0.00    +0.000 NA
ATOM      5  O   UNL     1       1.053   8.567  20.799  0.00  0.00    +0.000 OA
ENDROOT
BRANCH   3   6
ATOM      6  C   UNL     1       2.577   6.197  18.629  0.00  0.00    +0.000 A 
ATOM      7  C   UNL     1       1.724   5.223  18.113  0.00  0.00    +0.000 A 
ATOM      8  C   UNL     1       2.258   4.150  17.408  0.00  0.00    +0.000 A 
ATOM      9  C   UNL     1       3.642   4.057  17.202  0.00  0.00    +0.000 A 
ATOM     10  C   UNL     1       4.530   5.039  17.688  0.00  0.00    +0.000 A 
ATOM     11  C   UNL     1       3.967   6.091  18.425  0.00  0.00    +0.000 A 
BRANCH  10  12
ATOM     12  C   UNL     1       6.034   5.003  17.435  0.00  0.00    +0.000 C 
ATOM     13  C   UNL     1       6.483   4.220  16.197  0.00  0.00    +0.000 C 
ATOM     14  N   UNL     1       6.754   4.513  18.597  0.00  0.00    +0.000 N 
ATOM     15  C   UNL     1       7.780   5.347  18.969  0.00  0.00    +0.000 C 
ATOM     16  O   UNL     1       8.589   5.116  19.849  0.00  0.00    +0.000 OA
ATOM     17  N   UNL     1       7.727   6.463  18.206  0.00  0.00    +0.000 N 
ATOM     18  C   UNL     1       6.682   6.402  17.329  0.00  0.00    +0.000 C 
ATOM     19  O   UNL     1       6.386   7.299  16.555  0.00  0.00    +0.000 OA
ATOM     20  H   UNL     1       6.615   3.616  19.043  0.00  0.00    +0.000 HD
ATOM     21  H   UNL     1       8.343   7.251  18.312  0.00  0.00    +0.000 HD
ENDBRANCH  10  12
ENDBRANCH   3   6
BRANCH   1  22
ATOM     22  C   UNL     1       0.687  10.653  19.341  0.00  0.00    +0.000 C 
ATOM     23  C   UNL     1       1.571  11.683  20.030  0.00  0.00    +0.000 C 
ATOM     24  C   UNL     1       1.566  11.636  18.546  0.00  0.00    +0.000 C 
BRANCH  22  31
ATOM     25  C   UNL     1      -2.721   9.770  15.796  0.00  0.00    +0.000 C 
ATOM     26  C   UNL     1      -2.419  10.368  17.137  0.00  0.00    +0.000 A 
ATOM     27  C   UNL     1      -3.346  11.156  17.813  0.00  0.00    +0.000 A 
ATOM     28  C   UNL     1      -3.014  11.746  19.040  0.00  0.00    +0.000 A 
ATOM     29  C   UNL     1      -4.020  12.620  19.740  0.00  0.00    +0.000 C 
ATOM     30  C   UNL     1      -1.733  11.556  19.595  0.00  0.00    +0.000 A 
ATOM     31  C   UNL     1      -0.769  10.791  18.931  0.00  0.00    +0.000 A 
ATOM     32  C   UNL     1      -1.159  10.179  17.714  0.00  0.00    +0.000 A 
ENDBRANCH  22  31
ENDBRANCH   1  22
TORSDOF 4
ENDMDL
