MODEL 1
REMARK VINA RESULT:      -7.1      0.000      0.000
REMARK  Name = 
REMARK  1 active torsions:
REMARK  status: ('A' for Active; 'I' for Inactive)
REMARK    1  A    between atoms: C_15  and  C_16
REMARK                            x       y       z     vdW  Elec       q    Type
REMARK                         _______ _______ _______ _____ _____    ______ ____
ROOT
ATOM      1  O   UNL     1       1.198  11.986  21.429  0.00  0.00    +0.000 OA
ATOM      2  C   UNL     1       0.754  12.932  20.802  0.00  0.00    +0.000 C 
ATOM      3  C   UNL     1       0.164  14.199  21.443  0.00  0.00    +0.000 A 
ATOM      4  O   UNL     1      -0.072  14.350  22.801  0.00  0.00    +0.000 OA
ATOM      5  C   UNL     1      -1.399  14.281  23.166  0.00  0.00    +0.000 A 
ATOM      6  C   UNL     1      -1.837  14.711  24.407  0.00  0.00    +0.000 A 
ATOM      7  C   UNL     1      -3.019  14.168  24.914  0.00  0.00    +0.000 A 
ATOM      8  C   UNL     1      -3.672  13.155  24.205  0.00  0.00    +0.000 A 
ATOM      9 CL   UNL     1      -4.901  12.236  24.982  0.00  0.00    +0.000 Cl
ATOM     10  C   UNL     1      -3.333  12.892  22.879  0.00  0.00    +0.000 A 
ATOM     11  C   UNL     1      -2.272  13.603  22.331  0.00  0.00    +0.000 A 
ATOM     12  C   UNL     1      -2.036  13.806  20.876  0.00  0.00    +0.000 A 
ATOM     13  O   UNL     1      -2.852  13.411  20.064  0.00  0.00    +0.000 OA
ATOM     14  C   UNL     1      -0.753  14.519  20.510  0.00  0.00    +0.000 A 
ATOM     15  C   UNL     1      -0.071  14.348  19.184  0.00  0.00    +0.000 C 
ATOM     16  N   UNL     1       0.425  13.008  19.409  0.00  0.00    +0.000 N 
ATOM     17  C   UNL     1      -0.292  11.973  18.726  0.00  0.00    +0.000 A 
ATOM     18  C   UNL     1      -0.158  10.625  19.042  0.00  0.00    +0.000 A 
ATOM     19  C   UNL     1      -1.121   9.728  18.586  0.00  0.00    +0.000 A 
ATOM     20  C   UNL     1      -2.228  10.193  17.891  0.00  0.00    +0.000 A 
ATOM     21  C   UNL     1      -2.253  11.534  17.550  0.00  0.00    +0.000 A 
ATOM     22  N   UNL     1      -1.268  12.386  17.880  0.00  0.00    +0.000 NA
ENDROOT
BRANCH  15  23
ATOM     23  C   UNL     1       1.138  15.309  18.978  0.00  0.00    +0.000 A 
ATOM     24  C   UNL     1       1.018  16.687  19.243  0.00  0.00    +0.000 A 
ATOM     25  C   UNL     1       2.087  17.531  18.974  0.00  0.00    +0.000 A 
ATOM     26  N   UNL     1       3.262  17.112  18.471  0.00  0.00    +0.000 NA
ATOM     27  C   UNL     1       3.379  15.790  18.231  0.00  0.00    +0.000 A 
ATOM     28  C   UNL     1       2.369  14.864  18.473  0.00  0.00    +0.000 A 
ENDBRANCH  15  23
TORSDOF 1
ENDMDL
MODEL 2
REMARK VINA RESULT:      -6.8      3.633      5.414
REMARK  Name = 
REMARK  1 active torsions:
REMARK  status: ('A' for Active; 'I' for Inactive)
REMARK    1  A    between atoms: C_15  and  C_16
REMARK                            x       y       z     vdW  Elec       q    Type
REMARK                         _______ _______ _______ _____ _____    ______ ____
ROOT
ATOM      1  O   UNL     1      -3.783  11.943  24.216  0.00  0.00    +0.000 OA
ATOM      2  C   UNL     1      -3.252  12.927  23.731  0.00  0.00    +0.000 C 
ATOM      3  C   UNL     1      -4.006  14.044  22.991  0.00  0.00    +0.000 A 
ATOM      4  O   UNL     1      -5.350  13.991  22.655  0.00  0.00    +0.000 OA
ATOM      5  C   UNL     1      -5.602  13.768  21.319  0.00  0.00    +0.000 A 
ATOM      6  C   UNL     1      -6.852  13.989  20.765  0.00  0.00    +0.000 A 
ATOM      7  C   UNL     1      -7.193  13.291  19.606  0.00  0.00    +0.000 A 
ATOM      8  C   UNL     1      -6.311  12.334  19.092  0.00  0.00    +0.000 A 
ATOM      9 CL   UNL     1      -6.867  11.224  17.903  0.00  0.00    +0.000 Cl
ATOM     10  C   UNL     1      -4.991  12.282  19.538  0.00  0.00    +0.000 A 
ATOM     11  C   UNL     1      -4.623  13.142  20.565  0.00  0.00    +0.000 A 
ATOM     12  C   UNL     1      -3.228  13.559  20.875  0.00  0.00    +0.000 A 
ATOM     13  O   UNL     1      -2.313  13.214  20.151  0.00  0.00    +0.000 OA
ATOM     14  C   UNL     1      -3.056  14.415  22.111  0.00  0.00    +0.000 A 
ATOM     15  C   UNL     1      -1.774  14.480  22.889  0.00  0.00    +0.000 C 
ATOM     16  N   UNL     1      -1.861  13.165  23.487  0.00  0.00    +0.000 N 
ATOM     17  C   UNL     1      -0.997  12.179  22.910  0.00  0.00    +0.000 A 
ATOM     18  C   UNL     1      -1.144  10.815  23.142  0.00  0.00    +0.000 A 
ATOM     19  C   UNL     1      -0.505   9.914  22.294  0.00  0.00    +0.000 A 
ATOM     20  C   UNL     1       0.206  10.381  21.197  0.00  0.00    +0.000 A 
ATOM     21  C   UNL     1       0.371  11.749  21.076  0.00  0.00    +0.000 A 
ATOM     22  N   UNL     1      -0.140  12.624  21.958  0.00  0.00    +0.000 NA
ENDROOT
BRANCH  15  23
ATOM     23  C   UNL     1      -1.786  15.553  24.019  0.00  0.00    +0.000 A 
ATOM     24  C   UNL     1      -2.234  16.864  23.764  0.00  0.00    +0.000 A 
ATOM     25  C   UNL     1      -2.158  17.819  24.769  0.00  0.00    +0.000 A 
ATOM     26  N   UNL     1      -1.681  17.572  26.002  0.00  0.00    +0.000 NA
ATOM     27  C   UNL     1      -1.266  16.312  26.247  0.00  0.00    +0.000 A 
ATOM     28  C   UNL     1      -1.308  15.284  25.310  0.00  0.00    +0.000 A 
ENDBRANCH  15  23
TORSDOF 1
ENDMDL
MODEL 3
REMARK VINA RESULT:      -6.7      3.330      5.749
REMARK  Name = 
REMARK  1 active torsions:
REMARK  status: ('A' for Active; 'I' for Inactive)
REMARK    1  A    between atoms: C_15  and  C_16
REMARK                            x       y       z     vdW  Elec       q    Type
REMARK                         _______ _______ _______ _____ _____    ______ ____
ROOT
ATOM      1  O   UNL     1       1.777  10.803  18.484  0.00  0.00    +0.000 OA
ATOM      2  C   UNL     1       0.630  11.147  18.711  0.00  0.00    +0.000 C 
ATOM      3  C   UNL     1       0.086  12.565  18.471  0.00  0.00    +0.000 A 
ATOM      4  O   UNL     1       0.868  13.652  18.114  0.00  0.00    +0.000 OA
ATOM      5  C   UNL     1       1.084  14.563  19.126  0.00  0.00    +0.000 A 
ATOM      6  C   UNL     1       1.570  15.835  18.871  0.00  0.00    +0.000 A 
ATOM      7  C   UNL     1       2.240  16.503  19.896  0.00  0.00    +0.000 A 
ATOM      8  C   UNL     1       2.478  15.845  21.108  0.00  0.00    +0.000 A 
ATOM      9 CL   UNL     1       3.605  16.509  22.224  0.00  0.00    +0.000 Cl
ATOM     10  C   UNL     1       1.805  14.662  21.411  0.00  0.00    +0.000 A 
ATOM     11  C   UNL     1       0.976  14.123  20.434  0.00  0.00    +0.000 A 
ATOM     12  C   UNL     1      -0.134  13.165  20.686  0.00  0.00    +0.000 A 
ATOM     13  O   UNL     1      -0.433  12.863  21.827  0.00  0.00    +0.000 OA
ATOM     14  C   UNL     1      -0.831  12.626  19.456  0.00  0.00    +0.000 A 
ATOM     15  C   UNL     1      -1.551  11.309  19.434  0.00  0.00    +0.000 C 
ATOM     16  N   UNL     1      -0.377  10.463  19.466  0.00  0.00    +0.000 N 
ATOM     17  C   UNL     1      -0.110   9.845  20.730  0.00  0.00    +0.000 A 
ATOM     18  C   UNL     1       1.108   9.248  21.038  0.00  0.00    +0.000 A 
ATOM     19  C   UNL     1       1.410   8.983  22.372  0.00  0.00    +0.000 A 
ATOM     20  C   UNL     1       0.534   9.378  23.372  0.00  0.00    +0.000 A 
ATOM     21  C   UNL     1      -0.689   9.897  22.985  0.00  0.00    +0.000 A 
ATOM     22  N   UNL     1      -1.040  10.044  21.697  0.00  0.00    +0.000 NA
ENDROOT
BRANCH  15  23
ATOM     23  C   UNL     1      -2.328  11.048  18.109  0.00  0.00    +0.000 A 
ATOM     24  C   UNL     1      -3.510  11.755  17.815  0.00  0.00    +0.000 A 
ATOM     25  C   UNL     1      -4.224  11.444  16.665  0.00  0.00    +0.000 A 
ATOM     26  N   UNL     1      -3.854  10.494  15.788  0.00  0.00    +0.000 NA
ATOM     27  C   UNL     1      -2.714   9.828  16.066  0.00  0.00    +0.000 A 
ATOM     28  C   UNL     1      -1.926  10.071  17.186  0.00  0.00    +0.000 A 
ENDBRANCH  15  23
TORSDOF 1
ENDMDL
MODEL 4
REMARK VINA RESULT:      -6.7      3.159      5.880
REMARK  Name = 
REMARK  1 active torsions:
REMARK  status: ('A' for Active; 'I' for Inactive)
REMARK    1  A    between atoms: C_15  and  C_16
REMARK                            x       y       z     vdW  Elec       q    Type
REMARK                         _______ _______ _______ _____ _____    ______ ____
ROOT
ATOM      1  O   UNL     1       0.692  12.503  22.027  0.00  0.00    +0.000 OA
ATOM      2  C   UNL     1       0.680  11.983  20.924  0.00  0.00    +0.000 C 
ATOM      3  C   UNL     1       1.686  12.300  19.804  0.00  0.00    +0.000 A 
ATOM      4  O   UNL     1       2.624  13.318  19.863  0.00  0.00    +0.000 OA
ATOM      5  C   UNL     1       2.334  14.415  19.081  0.00  0.00    +0.000 A 
ATOM      6  C   UNL     1       3.290  15.371  18.781  0.00  0.00    +0.000 A 
ATOM      7  C   UNL     1       2.857  16.658  18.458  0.00  0.00    +0.000 A 
ATOM      8  C   UNL     1       1.495  16.966  18.530  0.00  0.00    +0.000 A 
ATOM      9 CL   UNL     1       0.996  18.612  18.496  0.00  0.00    +0.000 Cl
ATOM     10  C   UNL     1       0.546  15.949  18.627  0.00  0.00    +0.000 A 
ATOM     11  C   UNL     1       1.010  14.644  18.743  0.00  0.00    +0.000 A 
ATOM     12  C   UNL     1       0.224  13.423  18.420  0.00  0.00    +0.000 A 
ATOM     13  O   UNL     1      -0.887  13.523  17.933  0.00  0.00    +0.000 OA
ATOM     14  C   UNL     1       0.897  12.104  18.730  0.00  0.00    +0.000 A 
ATOM     15  C   UNL     1       0.135  10.840  19.001  0.00  0.00    +0.000 C 
ATOM     16  N   UNL     1      -0.354  11.203  20.312  0.00  0.00    +0.000 N 
ATOM     17  C   UNL     1      -1.736  11.577  20.362  0.00  0.00    +0.000 A 
ATOM     18  C   UNL     1      -2.305  12.229  21.451  0.00  0.00    +0.000 A 
ATOM     19  C   UNL     1      -3.538  12.858  21.291  0.00  0.00    +0.000 A 
ATOM     20  C   UNL     1      -4.144  12.887  20.044  0.00  0.00    +0.000 A 
ATOM     21  C   UNL     1      -3.556  12.152  19.029  0.00  0.00    +0.000 A 
ATOM     22  N   UNL     1      -2.430  11.442  19.205  0.00  0.00    +0.000 NA
ENDROOT
BRANCH  15  23
ATOM     23  C   UNL     1       1.045   9.581  19.129  0.00  0.00    +0.000 A 
ATOM     24  C   UNL     1       1.832   9.146  18.045  0.00  0.00    +0.000 A 
ATOM     25  C   UNL     1       2.570   7.976  18.163  0.00  0.00    +0.000 A 
ATOM     26  N   UNL     1       2.592   7.213  19.270  0.00  0.00    +0.000 NA
ATOM     27  C   UNL     1       1.847   7.639  20.311  0.00  0.00    +0.000 A 
ATOM     28  C   UNL     1       1.080   8.800  20.294  0.00  0.00    +0.000 A 
ENDBRANCH  15  23
TORSDOF 1
ENDMDL
MODEL 5
REMARK VINA RESULT:      -6.4      2.581      5.152
REMARK  Name = 
REMARK  1 active torsions:
REMARK  status: ('A' for Active; 'I' for Inactive)
REMARK    1  A    between atoms: C_15  and  C_16
REMARK                            x       y       z     vdW  Elec       q    Type
REMARK                         _______ _______ _______ _____ _____    ______ ____
ROOT
ATOM      1  O   UNL     1      -2.004  12.316  18.318  0.00  0.00    +0.000 OA
ATOM      2  C   UNL     1      -1.081  12.916  18.842  0.00  0.00    +0.000 C 
ATOM      3  C   UNL     1       0.405  12.590  18.617  0.00  0.00    +0.000 A 
ATOM      4  O   UNL     1       0.865  11.486  17.917  0.00  0.00    +0.000 OA
ATOM      5  C   UNL     1       1.390  10.483  18.704  0.00  0.00    +0.000 A 
ATOM      6  C   UNL     1       2.163   9.466  18.169  0.00  0.00    +0.000 A 
ATOM      7  C   UNL     1       2.227   8.254  18.858  0.00  0.00    +0.000 A 
ATOM      8  C   UNL     1       1.450   8.072  20.007  0.00  0.00    +0.000 A 
ATOM      9 CL   UNL     1       1.239   6.489  20.643  0.00  0.00    +0.000 Cl
ATOM     10  C   UNL     1       0.853   9.165  20.633  0.00  0.00    +0.000 A 
ATOM     11  C   UNL     1       0.981  10.407  20.024  0.00  0.00    +0.000 A 
ATOM     12  C   UNL     1       0.824  11.719  20.710  0.00  0.00    +0.000 A 
ATOM     13  O   UNL     1       0.652  11.761  21.914  0.00  0.00    +0.000 OA
ATOM     14  C   UNL     1       0.898  12.940  19.821  0.00  0.00    +0.000 A 
ATOM     15  C   UNL     1       0.248  14.247  20.170  0.00  0.00    +0.000 C 
ATOM     16  N   UNL     1      -1.119  13.834  19.941  0.00  0.00    +0.000 N 
ATOM     17  C   UNL     1      -1.886  13.591  21.126  0.00  0.00    +0.000 A 
ATOM     18  C   UNL     1      -3.102  12.916  21.115  0.00  0.00    +0.000 A 
ATOM     19  C   UNL     1      -3.609  12.421  22.314  0.00  0.00    +0.000 A 
ATOM     20  C   UNL     1      -2.869  12.544  23.482  0.00  0.00    +0.000 A 
ATOM     21  C   UNL     1      -1.707  13.293  23.428  0.00  0.00    +0.000 A 
ATOM     22  N   UNL     1      -1.271  13.878  22.300  0.00  0.00    +0.000 NA
ENDROOT
BRANCH  15  23
ATOM     23  C   UNL     1       0.602  15.401  19.183  0.00  0.00    +0.000 A 
ATOM     24  C   UNL     1       1.937  15.639  18.801  0.00  0.00    +0.000 A 
ATOM     25  C   UNL     1       2.231  16.723  17.985  0.00  0.00    +0.000 A 
ATOM     26  N   UNL     1       1.306  17.580  17.517  0.00  0.00    +0.000 NA
ATOM     27  C   UNL     1       0.027  17.341  17.874  0.00  0.00    +0.000 A 
ATOM     28  C   UNL     1      -0.369  16.279  18.680  0.00  0.00    +0.000 A 
ENDBRANCH  15  23
TORSDOF 1
ENDMDL
MODEL 6
REMARK VINA RESULT:      -6.4      1.389      1.740
REMARK  Name = 
REMARK  1 active torsions:
REMARK  status: ('A' for Active; 'I' for Inactive)
REMARK    1  A    between atoms: C_15  and  C_16
REMARK                            x       y       z     vdW  Elec       q    Type
REMARK                         _______ _______ _______ _____ _____    ______ ____
ROOT
ATOM      1  O   UNL     1       0.873  14.104  22.328  0.00  0.00    +0.000 OA
ATOM      2  C   UNL     1       0.320  14.406  21.285  0.00  0.00    +0.000 C 
ATOM      3  C   UNL     1      -0.913  15.319  21.189  0.00  0.00    +0.000 A 
ATOM      4  O   UNL     1      -1.631  15.781  22.281  0.00  0.00    +0.000 OA
ATOM      5  C   UNL     1      -2.852  15.170  22.469  0.00  0.00    +0.000 A 
ATOM      6  C   UNL     1      -3.816  15.707  23.305  0.00  0.00    +0.000 A 
ATOM      7  C   UNL     1      -4.767  14.847  23.854  0.00  0.00    +0.000 A 
ATOM      8  C   UNL     1      -4.670  13.471  23.620  0.00  0.00    +0.000 A 
ATOM      9 CL   UNL     1      -5.598  12.383  24.575  0.00  0.00    +0.000 Cl
ATOM     10  C   UNL     1      -3.830  12.985  22.619  0.00  0.00    +0.000 A 
ATOM     11  C   UNL     1      -3.035  13.902  21.942  0.00  0.00    +0.000 A 
ATOM     12  C   UNL     1      -2.430  13.686  20.600  0.00  0.00    +0.000 A 
ATOM     13  O   UNL     1      -2.689  12.677  19.969  0.00  0.00    +0.000 OA
ATOM     14  C   UNL     1      -1.510  14.780  20.108  0.00  0.00    +0.000 A 
ATOM     15  C   UNL     1      -0.416  14.542  19.107  0.00  0.00    +0.000 C 
ATOM     16  N   UNL     1       0.477  13.820  19.987  0.00  0.00    +0.000 N 
ATOM     17  C   UNL     1       0.520  12.404  19.778  0.00  0.00    +0.000 A 
ATOM     18  C   UNL     1       1.079  11.520  20.695  0.00  0.00    +0.000 A 
ATOM     19  C   UNL     1       0.781  10.163  20.591  0.00  0.00    +0.000 A 
ATOM     20  C   UNL     1      -0.116   9.723  19.628  0.00  0.00    +0.000 A 
ATOM     21  C   UNL     1      -0.570  10.649  18.705  0.00  0.00    +0.000 A 
ATOM     22  N   UNL     1      -0.193  11.937  18.723  0.00  0.00    +0.000 NA
ENDROOT
BRANCH  15  23
ATOM     23  C   UNL     1       0.287  15.850  18.632  0.00  0.00    +0.000 A 
ATOM     24  C   UNL     1      -0.467  16.955  18.193  0.00  0.00    +0.000 A 
ATOM     25  C   UNL     1       0.187  18.076  17.699  0.00  0.00    +0.000 A 
ATOM     26  N   UNL     1       1.525  18.185  17.615  0.00  0.00    +0.000 NA
ATOM     27  C   UNL     1       2.245  17.129  18.049  0.00  0.00    +0.000 A 
ATOM     28  C   UNL     1       1.683  15.966  18.566  0.00  0.00    +0.000 A 
ENDBRANCH  15  23
TORSDOF 1
ENDMDL
MODEL 7
REMARK VINA RESULT:      -6.4      1.191      1.640
REMARK  Name = 
REMARK  1 active torsions:
REMARK  status: ('A' for Active; 'I' for Inactive)
REMARK    1  A    between atoms: C_15  and  C_16
REMARK                            x       y       z     vdW  Elec       q    Type
REMARK                         _______ _______ _______ _____ _____    ______ ____
ROOT
ATOM      1  O   UNL     1       1.343  13.855  22.026  0.00  0.00    +0.000 OA
ATOM      2  C   UNL     1       0.665  14.260  21.098  0.00  0.00    +0.000 C 
ATOM      3  C   UNL     1      -0.517  15.232  21.246  0.00  0.00    +0.000 A 
ATOM      4  O   UNL     1      -1.044  15.641  22.461  0.00  0.00    +0.000 OA
ATOM      5  C   UNL     1      -2.258  15.073  22.782  0.00  0.00    +0.000 A 
ATOM      6  C   UNL     1      -3.062  15.588  23.785  0.00  0.00    +0.000 A 
ATOM      7  C   UNL     1      -3.973  14.732  24.407  0.00  0.00    +0.000 A 
ATOM      8  C   UNL     1      -3.986  13.375  24.065  0.00  0.00    +0.000 A 
ATOM      9 CL   UNL     1      -4.828  12.260  25.067  0.00  0.00    +0.000 Cl
ATOM     10  C   UNL     1      -3.325  12.930  22.922  0.00  0.00    +0.000 A 
ATOM     11  C   UNL     1      -2.586  13.859  22.201  0.00  0.00    +0.000 A 
ATOM     12  C   UNL     1      -2.190  13.719  20.773  0.00  0.00    +0.000 A 
ATOM     13  O   UNL     1      -2.592  12.775  20.118  0.00  0.00    +0.000 OA
ATOM     14  C   UNL     1      -1.290  14.806  20.229  0.00  0.00    +0.000 A 
ATOM     15  C   UNL     1      -0.364  14.597  19.066  0.00  0.00    +0.000 C 
ATOM     16  N   UNL     1       0.603  13.769  19.753  0.00  0.00    +0.000 N 
ATOM     17  C   UNL     1       0.537  12.373  19.442  0.00  0.00    +0.000 A 
ATOM     18  C   UNL     1       1.170  11.397  20.205  0.00  0.00    +0.000 A 
ATOM     19  C   UNL     1       0.785  10.067  20.052  0.00  0.00    +0.000 A 
ATOM     20  C   UNL     1      -0.262   9.743  19.201  0.00  0.00    +0.000 A 
ATOM     21  C   UNL     1      -0.791  10.756  18.421  0.00  0.00    +0.000 A 
ATOM     22  N   UNL     1      -0.344  12.021  18.473  0.00  0.00    +0.000 NA
ENDROOT
BRANCH  15  23
ATOM     23  C   UNL     1       0.336  15.903  18.585  0.00  0.00    +0.000 A 
ATOM     24  C   UNL     1       1.740  15.986  18.520  0.00  0.00    +0.000 A 
ATOM     25  C   UNL     1       2.337  17.189  18.165  0.00  0.00    +0.000 A 
ATOM     26  N   UNL     1       1.650  18.306  17.864  0.00  0.00    +0.000 NA
ATOM     27  C   UNL     1       0.305  18.218  17.914  0.00  0.00    +0.000 A 
ATOM     28  C   UNL     1      -0.386  17.059  18.251  0.00  0.00    +0.000 A 
ENDBRANCH  15  23
TORSDOF 1
ENDMDL
MODEL 8
REMARK VINA RESULT:      -6.4      3.272      6.094
REMARK  Name = 
REMARK  1 active torsions:
REMARK  status: ('A' for Active; 'I' for Inactive)
REMARK    1  A    between atoms: C_15  and  C_16
REMARK                            x       y       z     vdW  Elec       q    Type
REMARK                         _______ _______ _______ _____ _____    ______ ____
ROOT
ATOM      1  O   UNL     1      -1.375  12.246  18.359  0.00  0.00    +0.000 OA
ATOM      2  C   UNL     1      -1.321  12.695  19.491  0.00  0.00    +0.000 C 
ATOM      3  C   UNL     1      -0.900  14.133  19.835  0.00  0.00    +0.000 A 
ATOM      4  O   UNL     1      -0.389  15.038  18.918  0.00  0.00    +0.000 OA
ATOM      5  C   UNL     1       0.966  15.263  19.024  0.00  0.00    +0.000 A 
ATOM      6  C   UNL     1       1.577  16.344  18.410  0.00  0.00    +0.000 A 
ATOM      7  C   UNL     1       2.937  16.251  18.111  0.00  0.00    +0.000 A 
ATOM      8  C   UNL     1       3.616  15.052  18.355  0.00  0.00    +0.000 A 
ATOM      9 CL   UNL     1       5.171  14.805  17.662  0.00  0.00    +0.000 Cl
ATOM     10  C   UNL     1       3.041  14.067  19.156  0.00  0.00    +0.000 A 
ATOM     11  C   UNL     1       1.747  14.282  19.614  0.00  0.00    +0.000 A 
ATOM     12  C   UNL     1       1.132  13.614  20.792  0.00  0.00    +0.000 A 
ATOM     13  O   UNL     1       1.800  12.876  21.493  0.00  0.00    +0.000 OA
ATOM     14  C   UNL     1      -0.329  13.921  21.036  0.00  0.00    +0.000 A 
ATOM     15  C   UNL     1      -1.249  12.992  21.773  0.00  0.00    +0.000 C 
ATOM     16  N   UNL     1      -1.358  11.989  20.737  0.00  0.00    +0.000 N 
ATOM     17  C   UNL     1      -0.608  10.791  20.970  0.00  0.00    +0.000 A 
ATOM     18  C   UNL     1      -0.351   9.853  19.976  0.00  0.00    +0.000 A 
ATOM     19  C   UNL     1       0.654   8.911  20.181  0.00  0.00    +0.000 A 
ATOM     20  C   UNL     1       1.428   8.964  21.332  0.00  0.00    +0.000 A 
ATOM     21  C   UNL     1       1.064   9.876  22.307  0.00  0.00    +0.000 A 
ATOM     22  N   UNL     1       0.019  10.707  22.170  0.00  0.00    +0.000 NA
ENDROOT
BRANCH  15  23
ATOM     23  C   UNL     1      -2.660  13.598  22.044  0.00  0.00    +0.000 A 
ATOM     24  C   UNL     1      -2.798  14.911  22.534  0.00  0.00    +0.000 A 
ATOM     25  C   UNL     1      -4.063  15.395  22.841  0.00  0.00    +0.000 A 
ATOM     26  N   UNL     1      -5.194  14.682  22.693  0.00  0.00    +0.000 NA
ATOM     27  C   UNL     1      -5.058  13.430  22.211  0.00  0.00    +0.000 A 
ATOM     28  C   UNL     1      -3.838  12.857  21.867  0.00  0.00    +0.000 A 
ENDBRANCH  15  23
TORSDOF 1
ENDMDL
MODEL 9
REMARK VINA RESULT:      -6.3      0.965      1.070
REMARK  Name = 
REMARK  1 active torsions:
REMARK  status: ('A' for Active; 'I' for Inactive)
REMARK    1  A    between atoms: C_15  and  C_16
REMARK                            x       y       z     vdW  Elec       q    Type
REMARK                         _______ _______ _______ _____ _____    ______ ____
ROOT
ATOM      1  O   UNL     1       0.315  10.878  21.037  0.00  0.00    +0.000 OA
ATOM      2  C   UNL     1       0.126  11.936  20.461  0.00  0.00    +0.000 C 
ATOM      3  C   UNL     1      -0.154  13.271  21.170  0.00  0.00    +0.000 A 
ATOM      4  O   UNL     1      -0.374  13.402  22.532  0.00  0.00    +0.000 OA
ATOM      5  C   UNL     1      -1.686  13.637  22.884  0.00  0.00    +0.000 A 
ATOM      6  C   UNL     1      -2.032  14.093  24.145  0.00  0.00    +0.000 A 
ATOM      7  C   UNL     1      -3.320  13.826  24.613  0.00  0.00    +0.000 A 
ATOM      8  C   UNL     1      -4.184  13.041  23.842  0.00  0.00    +0.000 A 
ATOM      9 CL   UNL     1      -5.614  12.406  24.557  0.00  0.00    +0.000 Cl
ATOM     10  C   UNL     1      -3.892  12.775  22.505  0.00  0.00    +0.000 A 
ATOM     11  C   UNL     1      -2.679  13.236  22.007  0.00  0.00    +0.000 A 
ATOM     12  C   UNL     1      -2.372  13.454  20.567  0.00  0.00    +0.000 A 
ATOM     13  O   UNL     1      -3.243  13.313  19.729  0.00  0.00    +0.000 OA
ATOM     14  C   UNL     1      -0.947  13.854  20.251  0.00  0.00    +0.000 A 
ATOM     15  C   UNL     1      -0.300  13.595  18.922  0.00  0.00    +0.000 C 
ATOM     16  N   UNL     1      -0.147  12.164  19.074  0.00  0.00    +0.000 N 
ATOM     17  C   UNL     1      -1.079  11.372  18.328  0.00  0.00    +0.000 A 
ATOM     18  C   UNL     1      -1.281  10.016  18.567  0.00  0.00    +0.000 A 
ATOM     19  C   UNL     1      -2.422   9.405  18.054  0.00  0.00    +0.000 A 
ATOM     20  C   UNL     1      -3.370  10.161  17.379  0.00  0.00    +0.000 A 
ATOM     21  C   UNL     1      -3.063  11.485  17.115  0.00  0.00    +0.000 A 
ATOM     22  N   UNL     1      -1.909  12.054  17.500  0.00  0.00    +0.000 NA
ENDROOT
BRANCH  15  23
ATOM     23  C   UNL     1       1.110  14.244  18.779  0.00  0.00    +0.000 A 
ATOM     24  C   UNL     1       1.292  15.625  18.988  0.00  0.00    +0.000 A 
ATOM     25  C   UNL     1       2.543  16.188  18.775  0.00  0.00    +0.000 A 
ATOM     26  N   UNL     1       3.622  15.489  18.380  0.00  0.00    +0.000 NA
ATOM     27  C   UNL     1       3.446  14.164  18.194  0.00  0.00    +0.000 A 
ATOM     28  C   UNL     1       2.236  13.506  18.387  0.00  0.00    +0.000 A 
ENDBRANCH  15  23
TORSDOF 1
ENDMDL
