MODEL 1
REMARK VINA RESULT:      -9.1      0.000      0.000
REMARK  Name = 
REMARK  4 active torsions:
REMARK  status: ('A' for Active; 'I' for Inactive)
REMARK    1  A    between atoms: C_1  and  N_2
REMARK    2  A    between atoms: C_10  and  N_11
REMARK    3  A    between atoms: N_14  and  C_15
REMARK    4  A    between atoms: C_18  and  C_19
REMARK                            x       y       z     vdW  Elec       q    Type
REMARK                         _______ _______ _______ _____ _____    ______ ____
ROOT
ATOM      1  N   UNL     1       2.941   6.371  20.261  0.00  0.00    +0.000 N 
ATOM      2  C   UNL     1       1.955   7.333  20.272  0.00  0.00    +0.000 C 
ATOM      3  O   UNL     1       1.318   7.711  19.293  0.00  0.00    +0.000 OA
ATOM      4  N   UNL     1       1.737   7.916  21.508  0.00  0.00    +0.000 N 
ATOM      5  H   UNL     1       3.402   6.173  21.136  0.00  0.00    +0.000 HD
ATOM      6  H   UNL     1       1.886   7.347  22.328  0.00  0.00    +0.000 HD
ENDROOT
BRANCH   1  16
ATOM      7  C   UNL     1       7.046   7.000  17.185  0.00  0.00    +0.000 C 
ATOM      8  N   UNL     1       6.279   5.886  16.660  0.00  0.00    +0.000 N 
ATOM      9  C   UNL     1       6.761   5.237  15.528  0.00  0.00    +0.000 A 
ATOM     10  O   UNL     1       7.796   5.538  14.935  0.00  0.00    +0.000 OA
ATOM     11  C   UNL     1       5.967   4.103  15.001  0.00  0.00    +0.000 A 
ATOM     12  C   UNL     1       4.837   3.702  15.590  0.00  0.00    +0.000 A 
ATOM     13  C   UNL     1       4.364   4.388  16.784  0.00  0.00    +0.000 A 
ATOM     14  C   UNL     1       3.195   3.953  17.399  0.00  0.00    +0.000 A 
ATOM     15  C   UNL     1       2.725   4.596  18.543  0.00  0.00    +0.000 A 
ATOM     16  C   UNL     1       3.400   5.687  19.100  0.00  0.00    +0.000 A 
ATOM     17  C   UNL     1       4.576   6.125  18.471  0.00  0.00    +0.000 A 
ATOM     18  C   UNL     1       5.072   5.478  17.315  0.00  0.00    +0.000 A 
ENDBRANCH   1  16
BRANCH   4  19
ATOM     19  C   UNL     1       0.701   8.946  21.557  0.00  0.00    +0.000 C 
ATOM     20  C   UNL     1       1.005  10.189  20.723  0.00  0.00    +0.000 C 
ATOM     21  C   UNL     1      -0.240  11.090  20.688  0.00  0.00    +0.000 C 
ATOM     22  C   UNL     1      -0.735  11.469  22.100  0.00  0.00    +0.000 C 
ATOM     23  C   UNL     1      -0.885  10.238  23.015  0.00  0.00    +0.000 C 
ATOM     24  C   UNL     1       0.360   9.351  22.998  0.00  0.00    +0.000 C 
BRANCH  22  25
ATOM     25  C   UNL     1      -2.030  12.269  22.059  0.00  0.00    +0.000 A 
ATOM     26  C   UNL     1      -2.436  12.954  20.900  0.00  0.00    +0.000 A 
ATOM     27  C   UNL     1      -3.636  13.670  20.875  0.00  0.00    +0.000 A 
ATOM     28  C   UNL     1      -4.436  13.704  22.009  0.00  0.00    +0.000 A 
ATOM     29  F   UNL     1      -5.586  14.388  21.986  0.00  0.00    +0.000 F 
ATOM     30  C   UNL     1      -4.061  13.032  23.165  0.00  0.00    +0.000 A 
ATOM     31  C   UNL     1      -2.861  12.315  23.191  0.00  0.00    +0.000 A 
ENDBRANCH  22  25
ENDBRANCH   4  19
TORSDOF 3
ENDMDL
MODEL 2
REMARK VINA RESULT:      -8.9      4.158     10.886
REMARK  Name = 
REMARK  4 active torsions:
REMARK  status: ('A' for Active; 'I' for Inactive)
REMARK    1  A    between atoms: C_1  and  N_2
REMARK    2  A    between atoms: C_10  and  N_11
REMARK    3  A    between atoms: N_14  and  C_15
REMARK    4  A    between atoms: C_18  and  C_19
REMARK                            x       y       z     vdW  Elec       q    Type
REMARK                         _______ _______ _______ _____ _____    ______ ____
ROOT
ATOM      1  N   UNL     1       1.907   7.366  21.027  0.00  0.00    +0.000 N 
ATOM      2  C   UNL     1       2.498   7.096  19.812  0.00  0.00    +0.000 C 
ATOM      3  O   UNL     1       2.409   7.795  18.806  0.00  0.00    +0.000 OA
ATOM      4  N   UNL     1       3.203   5.906  19.769  0.00  0.00    +0.000 N 
ATOM      5  H   UNL     1       2.044   6.694  21.765  0.00  0.00    +0.000 HD
ATOM      6  H   UNL     1       3.648   5.594  20.619  0.00  0.00    +0.000 HD
ENDROOT
BRANCH   1  16
ATOM      7  C   UNL     1      -1.105  10.317  18.039  0.00  0.00    +0.000 C 
ATOM      8  N   UNL     1      -1.205  10.829  19.393  0.00  0.00    +0.000 N 
ATOM      9  C   UNL     1      -2.038  11.920  19.620  0.00  0.00    +0.000 A 
ATOM     10  O   UNL     1      -2.702  12.486  18.752  0.00  0.00    +0.000 OA
ATOM     11  C   UNL     1      -2.129  12.433  21.006  0.00  0.00    +0.000 A 
ATOM     12  C   UNL     1      -1.452  11.870  22.010  0.00  0.00    +0.000 A 
ATOM     13  C   UNL     1      -0.600  10.718  21.749  0.00  0.00    +0.000 A 
ATOM     14  C   UNL     1       0.088  10.129  22.804  0.00  0.00    +0.000 A 
ATOM     15  C   UNL     1       0.909   9.026  22.575  0.00  0.00    +0.000 A 
ATOM     16  C   UNL     1       1.070   8.485  21.295  0.00  0.00    +0.000 A 
ATOM     17  C   UNL     1       0.376   9.089  20.233  0.00  0.00    +0.000 A 
ATOM     18  C   UNL     1      -0.468  10.203  20.450  0.00  0.00    +0.000 A 
ENDBRANCH   1  16
BRANCH   4  19
ATOM     19  C   UNL     1       3.840   5.584  18.493  0.00  0.00    +0.000 C 
ATOM     20  C   UNL     1       3.578   4.162  17.997  0.00  0.00    +0.000 C 
ATOM     21  C   UNL     1       4.116   4.021  16.565  0.00  0.00    +0.000 C 
ATOM     22  C   UNL     1       5.612   4.386  16.457  0.00  0.00    +0.000 C 
ATOM     23  C   UNL     1       5.927   5.748  17.106  0.00  0.00    +0.000 C 
ATOM     24  C   UNL     1       5.349   5.862  18.517  0.00  0.00    +0.000 C 
BRANCH  22  25
ATOM     25  C   UNL     1       6.109   4.350  15.018  0.00  0.00    +0.000 A 
ATOM     26  C   UNL     1       5.445   3.602  14.028  0.00  0.00    +0.000 A 
ATOM     27  C   UNL     1       5.907   3.593  12.709  0.00  0.00    +0.000 A 
ATOM     28  C   UNL     1       7.032   4.332  12.373  0.00  0.00    +0.000 A 
ATOM     29  F   UNL     1       7.474   4.325  11.109  0.00  0.00    +0.000 F 
ATOM     30  C   UNL     1       7.703   5.082  13.329  0.00  0.00    +0.000 A 
ATOM     31  C   UNL     1       7.243   5.092  14.649  0.00  0.00    +0.000 A 
ENDBRANCH  22  25
ENDBRANCH   4  19
TORSDOF 3
ENDMDL
MODEL 3
REMARK VINA RESULT:      -8.9      4.141     10.726
REMARK  Name = 
REMARK  4 active torsions:
REMARK  status: ('A' for Active; 'I' for Inactive)
REMARK    1  A    between atoms: C_1  and  N_2
REMARK    2  A    between atoms: C_10  and  N_11
REMARK    3  A    between atoms: N_14  and  C_15
REMARK    4  A    between atoms: C_18  and  C_19
REMARK                            x       y       z     vdW  Elec       q    Type
REMARK                         _______ _______ _______ _____ _____    ______ ____
ROOT
ATOM      1  N   UNL     1       1.517   7.554  21.300  0.00  0.00    +0.000 N 
ATOM      2  C   UNL     1       2.161   7.271  20.115  0.00  0.00    +0.000 C 
ATOM      3  O   UNL     1       2.220   8.016  19.142  0.00  0.00    +0.000 OA
ATOM      4  N   UNL     1       2.735   6.013  20.061  0.00  0.00    +0.000 N 
ATOM      5  H   UNL     1       1.527   6.840  22.012  0.00  0.00    +0.000 HD
ATOM      6  H   UNL     1       3.081   5.618  20.922  0.00  0.00    +0.000 HD
ENDROOT
BRANCH   1  16
ATOM      7  C   UNL     1       1.018  12.028  18.762  0.00  0.00    +0.000 C 
ATOM      8  N   UNL     1       0.223  12.126  19.971  0.00  0.00    +0.000 N 
ATOM      9  C   UNL     1      -0.482  13.305  20.196  0.00  0.00    +0.000 A 
ATOM     10  O   UNL     1      -0.482  14.276  19.441  0.00  0.00    +0.000 OA
ATOM     11  C   UNL     1      -1.288  13.392  21.435  0.00  0.00    +0.000 A 
ATOM     12  C   UNL     1      -1.354  12.380  22.304  0.00  0.00    +0.000 A 
ATOM     13  C   UNL     1      -0.620  11.151  22.037  0.00  0.00    +0.000 A 
ATOM     14  C   UNL     1      -0.708  10.097  22.939  0.00  0.00    +0.000 A 
ATOM     15  C   UNL     1      -0.013   8.912  22.701  0.00  0.00    +0.000 A 
ATOM     16  C   UNL     1       0.788   8.747  21.567  0.00  0.00    +0.000 A 
ATOM     17  C   UNL     1       0.876   9.817  20.662  0.00  0.00    +0.000 A 
ATOM     18  C   UNL     1       0.171  11.023  20.883  0.00  0.00    +0.000 A 
ENDBRANCH   1  16
BRANCH   4  19
ATOM     19  C   UNL     1       3.423   5.675  18.816  0.00  0.00    +0.000 C 
ATOM     20  C   UNL     1       3.022   4.328  18.218  0.00  0.00    +0.000 C 
ATOM     21  C   UNL     1       3.648   4.190  16.821  0.00  0.00    +0.000 C 
ATOM     22  C   UNL     1       5.182   4.362  16.841  0.00  0.00    +0.000 C 
ATOM     23  C   UNL     1       5.616   5.635  17.593  0.00  0.00    +0.000 C 
ATOM     24  C   UNL     1       4.949   5.752  18.963  0.00  0.00    +0.000 C 
BRANCH  22  25
ATOM     25  C   UNL     1       5.781   4.334  15.441  0.00  0.00    +0.000 A 
ATOM     26  C   UNL     1       5.167   3.627  14.391  0.00  0.00    +0.000 A 
ATOM     27  C   UNL     1       5.723   3.626  13.109  0.00  0.00    +0.000 A 
ATOM     28  C   UNL     1       6.893   4.332  12.870  0.00  0.00    +0.000 A 
ATOM     29  F   UNL     1       7.426   4.332  11.641  0.00  0.00    +0.000 F 
ATOM     30  C   UNL     1       7.517   5.042  13.887  0.00  0.00    +0.000 A 
ATOM     31  C   UNL     1       6.962   5.044  15.170  0.00  0.00    +0.000 A 
ENDBRANCH  22  25
ENDBRANCH   4  19
TORSDOF 3
ENDMDL
MODEL 4
REMARK VINA RESULT:      -8.6      6.443      9.232
REMARK  Name = 
REMARK  4 active torsions:
REMARK  status: ('A' for Active; 'I' for Inactive)
REMARK    1  A    between atoms: C_1  and  N_2
REMARK    2  A    between atoms: C_10  and  N_11
REMARK    3  A    between atoms: N_14  and  C_15
REMARK    4  A    between atoms: C_18  and  C_19
REMARK                            x       y       z     vdW  Elec       q    Type
REMARK                         _______ _______ _______ _____ _____    ______ ____
ROOT
ATOM      1  N   UNL     1       8.116   6.976  18.639  0.00  0.00    +0.000 N 
ATOM      2  C   UNL     1       8.184   8.329  18.389  0.00  0.00    +0.000 C 
ATOM      3  O   UNL     1       7.423   8.957  17.660  0.00  0.00    +0.000 OA
ATOM      4  N   UNL     1       9.242   8.973  19.006  0.00  0.00    +0.000 N 
ATOM      5  H   UNL     1       8.821   6.582  19.242  0.00  0.00    +0.000 HD
ATOM      6  H   UNL     1       9.555   8.615  19.896  0.00  0.00    +0.000 HD
ENDROOT
BRANCH   1  16
ATOM      7  C   UNL     1       3.324   5.567  19.967  0.00  0.00    +0.000 C 
ATOM      8  N   UNL     1       3.667   4.845  18.756  0.00  0.00    +0.000 N 
ATOM      9  C   UNL     1       2.714   3.989  18.213  0.00  0.00    +0.000 A 
ATOM     10  O   UNL     1       1.594   3.799  18.685  0.00  0.00    +0.000 OA
ATOM     11  C   UNL     1       3.078   3.256  16.979  0.00  0.00    +0.000 A 
ATOM     12  C   UNL     1       4.269   3.413  16.393  0.00  0.00    +0.000 A 
ATOM     13  C   UNL     1       5.242   4.328  16.973  0.00  0.00    +0.000 A 
ATOM     14  C   UNL     1       6.472   4.496  16.347  0.00  0.00    +0.000 A 
ATOM     15  C   UNL     1       7.418   5.367  16.885  0.00  0.00    +0.000 A 
ATOM     16  C   UNL     1       7.168   6.086  18.058  0.00  0.00    +0.000 A 
ATOM     17  C   UNL     1       5.926   5.907  18.688  0.00  0.00    +0.000 A 
ATOM     18  C   UNL     1       4.951   5.035  18.150  0.00  0.00    +0.000 A 
ENDBRANCH   1  16
BRANCH   4  19
ATOM     19  C   UNL     1       9.349  10.410  18.760  0.00  0.00    +0.000 C 
ATOM     20  C   UNL     1      10.493  10.808  17.828  0.00  0.00    +0.000 C 
ATOM     21  C   UNL     1      10.367  12.300  17.484  0.00  0.00    +0.000 C 
ATOM     22  C   UNL     1      10.330  13.195  18.741  0.00  0.00    +0.000 C 
ATOM     23  C   UNL     1       9.295  12.707  19.774  0.00  0.00    +0.000 C 
ATOM     24  C   UNL     1       9.432  11.213  20.065  0.00  0.00    +0.000 C 
BRANCH  22  25
ATOM     25  C   UNL     1      10.094  14.660  18.396  0.00  0.00    +0.000 A 
ATOM     26  C   UNL     1      10.863  15.320  17.421  0.00  0.00    +0.000 A 
ATOM     27  C   UNL     1      10.622  16.660  17.106  0.00  0.00    +0.000 A 
ATOM     28  C   UNL     1       9.611  17.346  17.763  0.00  0.00    +0.000 A 
ATOM     29  F   UNL     1       9.379  18.630  17.461  0.00  0.00    +0.000 F 
ATOM     30  C   UNL     1       8.834  16.717  18.727  0.00  0.00    +0.000 A 
ATOM     31  C   UNL     1       9.074  15.377  19.043  0.00  0.00    +0.000 A 
ENDBRANCH  22  25
ENDBRANCH   4  19
TORSDOF 3
ENDMDL
MODEL 5
REMARK VINA RESULT:      -8.4      6.709     10.512
REMARK  Name = 
REMARK  4 active torsions:
REMARK  status: ('A' for Active; 'I' for Inactive)
REMARK    1  A    between atoms: C_1  and  N_2
REMARK    2  A    between atoms: C_10  and  N_11
REMARK    3  A    between atoms: N_14  and  C_15
REMARK    4  A    between atoms: C_18  and  C_19
REMARK                            x       y       z     vdW  Elec       q    Type
REMARK                         _______ _______ _______ _____ _____    ______ ____
ROOT
ATOM      1  N   UNL     1       9.475  10.368  17.478  0.00  0.00    +0.000 N 
ATOM      2  C   UNL     1       8.578   9.521  18.092  0.00  0.00    +0.000 C 
ATOM      3  O   UNL     1       8.175   9.627  19.247  0.00  0.00    +0.000 OA
ATOM      4  N   UNL     1       8.163   8.459  17.308  0.00  0.00    +0.000 N 
ATOM      5  H   UNL     1       9.739  10.150  16.530  0.00  0.00    +0.000 HD
ATOM      6  H   UNL     1       8.106   8.606  16.311  0.00  0.00    +0.000 HD
ENDROOT
BRANCH   1  16
ATOM      7  C   UNL     1       8.165  15.343  17.963  0.00  0.00    +0.000 C 
ATOM      8  N   UNL     1       9.445  15.167  18.623  0.00  0.00    +0.000 N 
ATOM      9  C   UNL     1      10.027  16.277  19.228  0.00  0.00    +0.000 A 
ATOM     10  O   UNL     1       9.533  17.403  19.247  0.00  0.00    +0.000 OA
ATOM     11  C   UNL     1      11.334  16.083  19.896  0.00  0.00    +0.000 A 
ATOM     12  C   UNL     1      11.935  14.891  19.933  0.00  0.00    +0.000 A 
ATOM     13  C   UNL     1      11.297  13.742  19.307  0.00  0.00    +0.000 A 
ATOM     14  C   UNL     1      11.923  12.501  19.365  0.00  0.00    +0.000 A 
ATOM     15  C   UNL     1      11.328  11.389  18.771  0.00  0.00    +0.000 A 
ATOM     16  C   UNL     1      10.103  11.482  18.103  0.00  0.00    +0.000 A 
ATOM     17  C   UNL     1       9.480  12.739  18.043  0.00  0.00    +0.000 A 
ATOM     18  C   UNL     1      10.064  13.875  18.648  0.00  0.00    +0.000 A 
ENDBRANCH   1  16
BRANCH   4  19
ATOM     19  C   UNL     1       7.214   7.537  17.928  0.00  0.00    +0.000 C 
ATOM     20  C   UNL     1       7.851   6.288  18.536  0.00  0.00    +0.000 C 
ATOM     21  C   UNL     1       6.789   5.516  19.333  0.00  0.00    +0.000 C 
ATOM     22  C   UNL     1       5.554   5.158  18.479  0.00  0.00    +0.000 C 
ATOM     23  C   UNL     1       4.996   6.377  17.720  0.00  0.00    +0.000 C 
ATOM     24  C   UNL     1       6.087   7.136  16.966  0.00  0.00    +0.000 C 
BRANCH  22  25
ATOM     25  C   UNL     1       4.460   4.491  19.303  0.00  0.00    +0.000 A 
ATOM     26  C   UNL     1       4.471   3.109  19.562  0.00  0.00    +0.000 A 
ATOM     27  C   UNL     1       3.467   2.517  20.333  0.00  0.00    +0.000 A 
ATOM     28  C   UNL     1       2.449   3.304  20.851  0.00  0.00    +0.000 A 
ATOM     29  F   UNL     1       1.487   2.738  21.592  0.00  0.00    +0.000 F 
ATOM     30  C   UNL     1       2.416   4.672  20.614  0.00  0.00    +0.000 A 
ATOM     31  C   UNL     1       3.419   5.265  19.843  0.00  0.00    +0.000 A 
ENDBRANCH  22  25
ENDBRANCH   4  19
TORSDOF 3
ENDMDL
MODEL 6
REMARK VINA RESULT:      -8.4      4.637     11.193
REMARK  Name = 
REMARK  4 active torsions:
REMARK  status: ('A' for Active; 'I' for Inactive)
REMARK    1  A    between atoms: C_1  and  N_2
REMARK    2  A    between atoms: C_10  and  N_11
REMARK    3  A    between atoms: N_14  and  C_15
REMARK    4  A    between atoms: C_18  and  C_19
REMARK                            x       y       z     vdW  Elec       q    Type
REMARK                         _______ _______ _______ _____ _____    ______ ____
ROOT
ATOM      1  N   UNL     1      -0.846  11.723  19.702  0.00  0.00    +0.000 N 
ATOM      2  C   UNL     1      -0.440  10.412  19.582  0.00  0.00    +0.000 C 
ATOM      3  O   UNL     1      -1.141   9.428  19.795  0.00  0.00    +0.000 OA
ATOM      4  N   UNL     1       0.889  10.254  19.229  0.00  0.00    +0.000 N 
ATOM      5  H   UNL     1      -0.159  12.437  19.517  0.00  0.00    +0.000 HD
ATOM      6  H   UNL     1       1.305  10.959  18.640  0.00  0.00    +0.000 HD
ENDROOT
BRANCH   1  16
ATOM      7  C   UNL     1      -5.423  12.011  17.319  0.00  0.00    +0.000 C 
ATOM      8  N   UNL     1      -5.613  12.482  18.679  0.00  0.00    +0.000 N 
ATOM      9  C   UNL     1      -6.891  12.876  19.062  0.00  0.00    +0.000 A 
ATOM     10  O   UNL     1      -7.880  12.853  18.329  0.00  0.00    +0.000 OA
ATOM     11  C   UNL     1      -7.070  13.356  20.451  0.00  0.00    +0.000 A 
ATOM     12  C   UNL     1      -6.053  13.401  21.316  0.00  0.00    +0.000 A 
ATOM     13  C   UNL     1      -4.728  12.967  20.895  0.00  0.00    +0.000 A 
ATOM     14  C   UNL     1      -3.680  13.003  21.807  0.00  0.00    +0.000 A 
ATOM     15  C   UNL     1      -2.405  12.592  21.424  0.00  0.00    +0.000 A 
ATOM     16  C   UNL     1      -2.138  12.141  20.127  0.00  0.00    +0.000 A 
ATOM     17  C   UNL     1      -3.201  12.112  19.209  0.00  0.00    +0.000 A 
ATOM     18  C   UNL     1      -4.503  12.517  19.584  0.00  0.00    +0.000 A 
ENDBRANCH   1  16
BRANCH   4  19
ATOM     19  C   UNL     1       1.357   8.875  19.098  0.00  0.00    +0.000 C 
ATOM     20  C   UNL     1       1.792   8.227  20.412  0.00  0.00    +0.000 C 
ATOM     21  C   UNL     1       2.055   6.733  20.174  0.00  0.00    +0.000 C 
ATOM     22  C   UNL     1       3.091   6.485  19.056  0.00  0.00    +0.000 C 
ATOM     23  C   UNL     1       2.760   7.269  17.772  0.00  0.00    +0.000 C 
ATOM     24  C   UNL     1       2.474   8.744  18.053  0.00  0.00    +0.000 C 
BRANCH  22  25
ATOM     25  C   UNL     1       3.264   5.003  18.752  0.00  0.00    +0.000 A 
ATOM     26  C   UNL     1       4.236   4.225  19.406  0.00  0.00    +0.000 A 
ATOM     27  C   UNL     1       4.370   2.862  19.126  0.00  0.00    +0.000 A 
ATOM     28  C   UNL     1       3.532   2.272  18.191  0.00  0.00    +0.000 A 
ATOM     29  F   UNL     1       3.658   0.965  17.922  0.00  0.00    +0.000 F 
ATOM     30  C   UNL     1       2.561   3.015  17.533  0.00  0.00    +0.000 A 
ATOM     31  C   UNL     1       2.426   4.378  17.813  0.00  0.00    +0.000 A 
ENDBRANCH  22  25
ENDBRANCH   4  19
TORSDOF 3
ENDMDL
MODEL 7
REMARK VINA RESULT:      -8.3      2.600      3.554
REMARK  Name = 
REMARK  4 active torsions:
REMARK  status: ('A' for Active; 'I' for Inactive)
REMARK    1  A    between atoms: C_1  and  N_2
REMARK    2  A    between atoms: C_10  and  N_11
REMARK    3  A    between atoms: N_14  and  C_15
REMARK    4  A    between atoms: C_18  and  C_19
REMARK                            x       y       z     vdW  Elec       q    Type
REMARK                         _______ _______ _______ _____ _____    ______ ____
ROOT
ATOM      1  N   UNL     1       2.240   9.150  17.903  0.00  0.00    +0.000 N 
ATOM      2  C   UNL     1       1.206   9.503  18.742  0.00  0.00    +0.000 C 
ATOM      3  O   UNL     1       0.775   8.821  19.667  0.00  0.00    +0.000 OA
ATOM      4  N   UNL     1       0.615  10.719  18.445  0.00  0.00    +0.000 N 
ATOM      5  H   UNL     1       2.478   9.797  17.168  0.00  0.00    +0.000 HD
ATOM      6  H   UNL     1       1.199  11.438  18.044  0.00  0.00    +0.000 HD
ENDROOT
BRANCH   1  16
ATOM      7  C   UNL     1       1.686   4.883  20.766  0.00  0.00    +0.000 C 
ATOM      8  N   UNL     1       2.823   4.672  19.890  0.00  0.00    +0.000 N 
ATOM      9  C   UNL     1       3.489   3.453  19.967  0.00  0.00    +0.000 A 
ATOM     10  O   UNL     1       3.183   2.534  20.725  0.00  0.00    +0.000 OA
ATOM     11  C   UNL     1       4.650   3.251  19.069  0.00  0.00    +0.000 A 
ATOM     12  C   UNL     1       5.043   4.192  18.206  0.00  0.00    +0.000 A 
ATOM     13  C   UNL     1       4.319   5.453  18.134  0.00  0.00    +0.000 A 
ATOM     14  C   UNL     1       4.726   6.420  17.221  0.00  0.00    +0.000 A 
ATOM     15  C   UNL     1       4.045   7.633  17.137  0.00  0.00    +0.000 A 
ATOM     16  C   UNL     1       2.949   7.918  17.958  0.00  0.00    +0.000 A 
ATOM     17  C   UNL     1       2.547   6.939  18.882  0.00  0.00    +0.000 A 
ATOM     18  C   UNL     1       3.220   5.699  18.974  0.00  0.00    +0.000 A 
ENDBRANCH   1  16
BRANCH   4  19
ATOM     19  C   UNL     1      -0.490  11.125  19.311  0.00  0.00    +0.000 C 
ATOM     20  C   UNL     1      -1.533  12.011  18.632  0.00  0.00    +0.000 C 
ATOM     21  C   UNL     1      -2.734  12.188  19.574  0.00  0.00    +0.000 C 
ATOM     22  C   UNL     1      -2.327  12.754  20.951  0.00  0.00    +0.000 C 
ATOM     23  C   UNL     1      -1.156  11.974  21.579  0.00  0.00    +0.000 C 
ATOM     24  C   UNL     1       0.005  11.791  20.602  0.00  0.00    +0.000 C 
BRANCH  22  25
ATOM     25  C   UNL     1      -3.505  12.823  21.914  0.00  0.00    +0.000 A 
ATOM     26  C   UNL     1      -4.824  12.985  21.455  0.00  0.00    +0.000 A 
ATOM     27  C   UNL     1      -5.894  13.030  22.352  0.00  0.00    +0.000 A 
ATOM     28  C   UNL     1      -5.650  12.912  23.713  0.00  0.00    +0.000 A 
ATOM     29  F   UNL     1      -6.675  12.954  24.575  0.00  0.00    +0.000 F 
ATOM     30  C   UNL     1      -4.358  12.747  24.194  0.00  0.00    +0.000 A 
ATOM     31  C   UNL     1      -3.287  12.702  23.297  0.00  0.00    +0.000 A 
ENDBRANCH  22  25
ENDBRANCH   4  19
TORSDOF 3
ENDMDL
MODEL 8
REMARK VINA RESULT:      -8.2      2.734      3.752
REMARK  Name = 
REMARK  4 active torsions:
REMARK  status: ('A' for Active; 'I' for Inactive)
REMARK    1  A    between atoms: C_1  and  N_2
REMARK    2  A    between atoms: C_10  and  N_11
REMARK    3  A    between atoms: N_14  and  C_15
REMARK    4  A    between atoms: C_18  and  C_19
REMARK                            x       y       z     vdW  Elec       q    Type
REMARK                         _______ _______ _______ _____ _____    ______ ____
ROOT
ATOM      1  N   UNL     1       1.686   8.416  21.006  0.00  0.00    +0.000 N 
ATOM      2  C   UNL     1       0.564   9.214  20.972  0.00  0.00    +0.000 C 
ATOM      3  O   UNL     1      -0.350   9.121  20.158  0.00  0.00    +0.000 OA
ATOM      4  N   UNL     1       0.540  10.211  21.932  0.00  0.00    +0.000 N 
ATOM      5  H   UNL     1       2.373   8.616  21.717  0.00  0.00    +0.000 HD
ATOM      6  H   UNL     1       0.989  10.022  22.815  0.00  0.00    +0.000 HD
ENDROOT
BRANCH   1  16
ATOM      7  C   UNL     1       1.321   3.266  21.242  0.00  0.00    +0.000 C 
ATOM      8  N   UNL     1       1.841   3.603  19.930  0.00  0.00    +0.000 N 
ATOM      9  C   UNL     1       2.107   2.562  19.045  0.00  0.00    +0.000 A 
ATOM     10  O   UNL     1       1.933   1.370  19.294  0.00  0.00    +0.000 OA
ATOM     11  C   UNL     1       2.640   2.920  17.711  0.00  0.00    +0.000 A 
ATOM     12  C   UNL     1       2.848   4.191  17.354  0.00  0.00    +0.000 A 
ATOM     13  C   UNL     1       2.545   5.262  18.293  0.00  0.00    +0.000 A 
ATOM     14  C   UNL     1       2.749   6.582  17.906  0.00  0.00    +0.000 A 
ATOM     15  C   UNL     1       2.465   7.622  18.790  0.00  0.00    +0.000 A 
ATOM     16  C   UNL     1       1.977   7.377  20.078  0.00  0.00    +0.000 A 
ATOM     17  C   UNL     1       1.778   6.042  20.463  0.00  0.00    +0.000 A 
ATOM     18  C   UNL     1       2.052   4.975  19.576  0.00  0.00    +0.000 A 
ENDBRANCH   1  16
BRANCH   4  19
ATOM     19  C   UNL     1      -0.634  11.081  21.922  0.00  0.00    +0.000 C 
ATOM     20  C   UNL     1      -0.376  12.485  21.378  0.00  0.00    +0.000 C 
ATOM     21  C   UNL     1      -1.716  13.221  21.223  0.00  0.00    +0.000 C 
ATOM     22  C   UNL     1      -2.520  13.268  22.540  0.00  0.00    +0.000 C 
ATOM     23  C   UNL     1      -2.646  11.880  23.196  0.00  0.00    +0.000 C 
ATOM     24  C   UNL     1      -1.298  11.168  23.304  0.00  0.00    +0.000 C 
BRANCH  22  25
ATOM     25  C   UNL     1      -3.892  13.901  22.352  0.00  0.00    +0.000 A 
ATOM     26  C   UNL     1      -4.921  13.238  21.659  0.00  0.00    +0.000 A 
ATOM     27  C   UNL     1      -6.179  13.827  21.510  0.00  0.00    +0.000 A 
ATOM     28  C   UNL     1      -6.416  15.081  22.055  0.00  0.00    +0.000 A 
ATOM     29  F   UNL     1      -7.622  15.646  21.914  0.00  0.00    +0.000 F 
ATOM     30  C   UNL     1      -5.420  15.756  22.748  0.00  0.00    +0.000 A 
ATOM     31  C   UNL     1      -4.161  15.167  22.898  0.00  0.00    +0.000 A 
ENDBRANCH  22  25
ENDBRANCH   4  19
TORSDOF 3
ENDMDL
MODEL 9
REMARK VINA RESULT:      -8.2      4.808     11.531
REMARK  Name = 
REMARK  4 active torsions:
REMARK  status: ('A' for Active; 'I' for Inactive)
REMARK    1  A    between atoms: C_1  and  N_2
REMARK    2  A    between atoms: C_10  and  N_11
REMARK    3  A    between atoms: N_14  and  C_15
REMARK    4  A    between atoms: C_18  and  C_19
REMARK                            x       y       z     vdW  Elec       q    Type
REMARK                         _______ _______ _______ _____ _____    ______ ____
ROOT
ATOM      1  N   UNL     1      -1.739  11.924  19.529  0.00  0.00    +0.000 N 
ATOM      2  C   UNL     1      -1.184  10.685  19.297  0.00  0.00    +0.000 C 
ATOM      3  O   UNL     1      -1.804   9.679  18.963  0.00  0.00    +0.000 OA
ATOM      4  N   UNL     1       0.181  10.617  19.513  0.00  0.00    +0.000 N 
ATOM      5  H   UNL     1      -1.115  12.661  19.821  0.00  0.00    +0.000 HD
ATOM      6  H   UNL     1       0.726  11.448  19.333  0.00  0.00    +0.000 HD
ENDROOT
BRANCH   1  16
ATOM      7  C   UNL     1      -5.020  14.312  22.729  0.00  0.00    +0.000 C 
ATOM      8  N   UNL     1      -5.777  13.903  21.560  0.00  0.00    +0.000 N 
ATOM      9  C   UNL     1      -7.131  14.218  21.515  0.00  0.00    +0.000 A 
ATOM     10  O   UNL     1      -7.739  14.823  22.397  0.00  0.00    +0.000 OA
ATOM     11  C   UNL     1      -7.892  13.792  20.317  0.00  0.00    +0.000 A 
ATOM     12  C   UNL     1      -7.307  13.142  19.308  0.00  0.00    +0.000 A 
ATOM     13  C   UNL     1      -5.884  12.839  19.372  0.00  0.00    +0.000 A 
ATOM     14  C   UNL     1      -5.282  12.176  18.309  0.00  0.00    +0.000 A 
ATOM     15  C   UNL     1      -3.921  11.877  18.352  0.00  0.00    +0.000 A 
ATOM     16  C   UNL     1      -3.128  12.224  19.451  0.00  0.00    +0.000 A 
ATOM     17  C   UNL     1      -3.744  12.889  20.523  0.00  0.00    +0.000 A 
ATOM     18  C   UNL     1      -5.122  13.208  20.492  0.00  0.00    +0.000 A 
ENDBRANCH   1  16
BRANCH   4  19
ATOM     19  C   UNL     1       0.803   9.316  19.282  0.00  0.00    +0.000 C 
ATOM     20  C   UNL     1       1.373   8.655  20.536  0.00  0.00    +0.000 C 
ATOM     21  C   UNL     1       1.801   7.219  20.200  0.00  0.00    +0.000 C 
ATOM     22  C   UNL     1       2.805   7.160  19.029  0.00  0.00    +0.000 C 
ATOM     23  C   UNL     1       2.324   7.966  17.807  0.00  0.00    +0.000 C 
ATOM     24  C   UNL     1       1.878   9.377  18.187  0.00  0.00    +0.000 C 
BRANCH  22  25
ATOM     25  C   UNL     1       3.139   5.728  18.631  0.00  0.00    +0.000 A 
ATOM     26  C   UNL     1       4.384   5.149  18.938  0.00  0.00    +0.000 A 
ATOM     27  C   UNL     1       4.667   3.828  18.578  0.00  0.00    +0.000 A 
ATOM     28  C   UNL     1       3.707   3.081  17.912  0.00  0.00    +0.000 A 
ATOM     29  F   UNL     1       3.976   1.814  17.568  0.00  0.00    +0.000 F 
ATOM     30  C   UNL     1       2.468   3.626  17.601  0.00  0.00    +0.000 A 
ATOM     31  C   UNL     1       2.184   4.947  17.960  0.00  0.00    +0.000 A 
ENDBRANCH  22  25
ENDBRANCH   4  19
TORSDOF 3
ENDMDL
