MODEL 1
REMARK VINA RESULT:      -8.8      0.000      0.000
REMARK  Name = 
REMARK  6 active torsions:
REMARK  status: ('A' for Active; 'I' for Inactive)
REMARK    1  A    between atoms: C_1  and  C_2
REMARK    2  A    between atoms: C_7  and  C_8
REMARK    3  A    between atoms: N_10  and  C_11
REMARK    4  A    between atoms: C_14  and  S_15
REMARK    5  A    between atoms: S_15  and  N_18
REMARK    6  A    between atoms: C_28  and  C_29
REMARK                            x       y       z     vdW  Elec       q    Type
REMARK                         _______ _______ _______ _____ _____    ______ ____
ROOT
ATOM      1  C   UNL     1       8.852   9.930  18.547  0.00  0.00    +0.000 C 
ATOM      2  O   UNL     1       8.963   9.484  19.687  0.00  0.00    +0.000 OA
ATOM      3  N   UNL     1       8.170   9.323  17.497  0.00  0.00    +0.000 N 
ATOM      4  H   UNL     1       8.320   9.682  16.563  0.00  0.00    +0.000 HD
ENDROOT
BRANCH   1  11
ATOM      5  C   UNL     1      11.140  17.297  17.137  0.00  0.00    +0.000 C 
ATOM      6  C   UNL     1      10.499  15.993  17.501  0.00  0.00    +0.000 A 
ATOM      7  N   UNL     1      11.244  14.874  17.300  0.00  0.00    +0.000 NA
ATOM      8  C   UNL     1      10.685  13.693  17.622  0.00  0.00    +0.000 A 
ATOM      9  C   UNL     1      11.404  12.512  17.456  0.00  0.00    +0.000 A 
ATOM     10  C   UNL     1      10.860  11.263  17.780  0.00  0.00    +0.000 A 
ATOM     11  C   UNL     1       9.559  11.203  18.272  0.00  0.00    +0.000 A 
ATOM     12  C   UNL     1       8.827  12.389  18.434  0.00  0.00    +0.000 A 
ATOM     13  C   UNL     1       9.370  13.627  18.133  0.00  0.00    +0.000 A 
ATOM     14  N   UNL     1       8.637  14.737  18.334  0.00  0.00    +0.000 NA
ATOM     15  C   UNL     1       9.209  15.926  18.026  0.00  0.00    +0.000 A 
ATOM     16  C   UNL     1       8.395  17.153  18.307  0.00  0.00    +0.000 C 
ENDBRANCH   1  11
BRANCH   3  17
ATOM     17  C   UNL     1       7.452   8.103  17.609  0.00  0.00    +0.000 A 
ATOM     18  C   UNL     1       6.200   7.915  17.014  0.00  0.00    +0.000 A 
ATOM     19  C   UNL     1       5.477   6.736  17.192  0.00  0.00    +0.000 A 
ATOM     20  C   UNL     1       6.019   5.697  17.941  0.00  0.00    +0.000 A 
ATOM     21  C   UNL     1       7.275   5.851  18.539  0.00  0.00    +0.000 A 
ATOM     22  C   UNL     1       7.994   7.050  18.359  0.00  0.00    +0.000 A 
BRANCH  20  23
ATOM     23  S   UNL     1       5.022   4.244  18.225  0.00  0.00    +0.000 S 
ATOM     24  O   UNL     1       4.978   3.501  16.985  0.00  0.00    +0.000 OA
ATOM     25  O   UNL     1       5.502   3.627  19.444  0.00  0.00    +0.000 OA
BRANCH  23  26
ATOM     26  N   UNL     1       3.471   4.846  18.533  0.00  0.00    +0.000 NA
ATOM     27  C   UNL     1       3.202   5.516  19.814  0.00  0.00    +0.000 C 
ATOM     28  C   UNL     1       2.332   4.528  20.561  0.00  0.00    +0.000 C 
ATOM     29  C   UNL     1       1.478   3.898  19.473  0.00  0.00    +0.000 C 
ATOM     30  C   UNL     1       2.292   4.021  18.184  0.00  0.00    +0.000 C 
ENDBRANCH  23  26
ENDBRANCH  20  23
ENDBRANCH   3  17
TORSDOF 4
ENDMDL
MODEL 2
REMARK VINA RESULT:      -8.6      6.892      9.124
REMARK  Name = 
REMARK  6 active torsions:
REMARK  status: ('A' for Active; 'I' for Inactive)
REMARK    1  A    between atoms: C_1  and  C_2
REMARK    2  A    between atoms: C_7  and  C_8
REMARK    3  A    between atoms: N_10  and  C_11
REMARK    4  A    between atoms: C_14  and  S_15
REMARK    5  A    between atoms: S_15  and  N_18
REMARK    6  A    between atoms: C_28  and  C_29
REMARK                            x       y       z     vdW  Elec       q    Type
REMARK                         _______ _______ _______ _____ _____    ______ ____
ROOT
ATOM      1  C   UNL     1       0.997   9.428  20.802  0.00  0.00    +0.000 C 
ATOM      2  O   UNL     1       1.438   8.926  21.834  0.00  0.00    +0.000 OA
ATOM      3  N   UNL     1       1.273   9.003  19.507  0.00  0.00    +0.000 N 
ATOM      4  H   UNL     1       1.019   9.615  18.742  0.00  0.00    +0.000 HD
ENDROOT
BRANCH   1  11
ATOM      5  C   UNL     1      -4.329  14.846  22.744  0.00  0.00    +0.000 C 
ATOM      6  C   UNL     1      -3.370  13.705  22.589  0.00  0.00    +0.000 A 
ATOM      7  N   UNL     1      -2.556  13.741  21.502  0.00  0.00    +0.000 NA
ATOM      8  C   UNL     1      -1.688  12.725  21.347  0.00  0.00    +0.000 A 
ATOM      9  C   UNL     1      -0.815  12.713  20.261  0.00  0.00    +0.000 A 
ATOM     10  C   UNL     1       0.105  11.676  20.063  0.00  0.00    +0.000 A 
ATOM     11  C   UNL     1       0.139  10.623  20.974  0.00  0.00    +0.000 A 
ATOM     12  C   UNL     1      -0.744  10.626  22.064  0.00  0.00    +0.000 A 
ATOM     13  C   UNL     1      -1.641  11.661  22.272  0.00  0.00    +0.000 A 
ATOM     14  N   UNL     1      -2.446  11.630  23.350  0.00  0.00    +0.000 NA
ATOM     15  C   UNL     1      -3.307  12.664  23.514  0.00  0.00    +0.000 A 
ATOM     16  C   UNL     1      -4.157  12.636  24.749  0.00  0.00    +0.000 C 
ENDBRANCH   1  11
BRANCH   3  17
ATOM     17  C   UNL     1       2.081   7.879  19.188  0.00  0.00    +0.000 A 
ATOM     18  C   UNL     1       2.223   6.791  20.054  0.00  0.00    +0.000 A 
ATOM     19  C   UNL     1       3.074   5.727  19.758  0.00  0.00    +0.000 A 
ATOM     20  C   UNL     1       3.772   5.714  18.554  0.00  0.00    +0.000 A 
ATOM     21  C   UNL     1       3.642   6.783  17.661  0.00  0.00    +0.000 A 
ATOM     22  C   UNL     1       2.784   7.857  17.975  0.00  0.00    +0.000 A 
BRANCH  20  23
ATOM     23  S   UNL     1       4.923   4.383  18.254  0.00  0.00    +0.000 S 
ATOM     24  O   UNL     1       5.641   4.698  17.040  0.00  0.00    +0.000 OA
ATOM     25  O   UNL     1       5.630   4.140  19.495  0.00  0.00    +0.000 OA
BRANCH  23  26
ATOM     26  N   UNL     1       3.945   3.035  17.951  0.00  0.00    +0.000 NA
ATOM     27  C   UNL     1       2.727   3.199  17.144  0.00  0.00    +0.000 C 
ATOM     28  C   UNL     1       1.605   3.056  18.150  0.00  0.00    +0.000 C 
ATOM     29  C   UNL     1       2.121   2.010  19.124  0.00  0.00    +0.000 C 
ATOM     30  C   UNL     1       3.647   2.095  19.054  0.00  0.00    +0.000 C 
ENDBRANCH  23  26
ENDBRANCH  20  23
ENDBRANCH   3  17
TORSDOF 4
ENDMDL
MODEL 3
REMARK VINA RESULT:      -8.6      0.453      1.010
REMARK  Name = 
REMARK  6 active torsions:
REMARK  status: ('A' for Active; 'I' for Inactive)
REMARK    1  A    between atoms: C_1  and  C_2
REMARK    2  A    between atoms: C_7  and  C_8
REMARK    3  A    between atoms: N_10  and  C_11
REMARK    4  A    between atoms: C_14  and  S_15
REMARK    5  A    between atoms: S_15  and  N_18
REMARK    6  A    between atoms: C_28  and  C_29
REMARK                            x       y       z     vdW  Elec       q    Type
REMARK                         _______ _______ _______ _____ _____    ______ ____
ROOT
ATOM      1  C   UNL     1       8.971  10.174  18.694  0.00  0.00    +0.000 C 
ATOM      2  O   UNL     1       8.964   9.824  19.872  0.00  0.00    +0.000 OA
ATOM      3  N   UNL     1       8.385   9.488  17.635  0.00  0.00    +0.000 N 
ATOM      4  H   UNL     1       8.631   9.766  16.694  0.00  0.00    +0.000 HD
ENDROOT
BRANCH   1  11
ATOM      5  C   UNL     1      11.523  17.422  17.126  0.00  0.00    +0.000 C 
ATOM      6  C   UNL     1      10.838  16.150  17.522  0.00  0.00    +0.000 A 
ATOM      7  N   UNL     1      11.534  14.999  17.326  0.00  0.00    +0.000 NA
ATOM      8  C   UNL     1      10.934  13.847  17.677  0.00  0.00    +0.000 A 
ATOM      9  C   UNL     1      11.603  12.636  17.516  0.00  0.00    +0.000 A 
ATOM     10  C   UNL     1      11.016  11.414  17.869  0.00  0.00    +0.000 A 
ATOM     11  C   UNL     1       9.723  11.414  18.386  0.00  0.00    +0.000 A 
ATOM     12  C   UNL     1       9.042  12.631  18.542  0.00  0.00    +0.000 A 
ATOM     13  C   UNL     1       9.628  13.841  18.212  0.00  0.00    +0.000 A 
ATOM     14  N   UNL     1       8.943  14.982  18.408  0.00  0.00    +0.000 NA
ATOM     15  C   UNL     1       9.557  16.143  18.072  0.00  0.00    +0.000 A 
ATOM     16  C   UNL     1       8.797  17.405  18.347  0.00  0.00    +0.000 C 
ENDBRANCH   1  11
BRANCH   3  17
ATOM     17  C   UNL     1       7.638   8.288  17.776  0.00  0.00    +0.000 A 
ATOM     18  C   UNL     1       8.138   7.170  18.451  0.00  0.00    +0.000 A 
ATOM     19  C   UNL     1       7.422   5.977  18.520  0.00  0.00    +0.000 A 
ATOM     20  C   UNL     1       6.158   5.894  17.944  0.00  0.00    +0.000 A 
ATOM     21  C   UNL     1       5.625   6.999  17.270  0.00  0.00    +0.000 A 
ATOM     22  C   UNL     1       6.362   8.199  17.201  0.00  0.00    +0.000 A 
BRANCH  20  23
ATOM     23  S   UNL     1       5.313   4.322  17.970  0.00  0.00    +0.000 S 
ATOM     24  O   UNL     1       5.553   3.681  16.696  0.00  0.00    +0.000 OA
ATOM     25  O   UNL     1       5.668   3.666  19.211  0.00  0.00    +0.000 OA
BRANCH  23  26
ATOM     26  N   UNL     1       3.671   4.723  18.055  0.00  0.00    +0.000 NA
ATOM     27  C   UNL     1       3.111   5.187  19.333  0.00  0.00    +0.000 C 
ATOM     28  C   UNL     1       2.251   4.028  19.792  0.00  0.00    +0.000 C 
ATOM     29  C   UNL     1       1.676   3.468  18.501  0.00  0.00    +0.000 C 
ATOM     30  C   UNL     1       2.676   3.841  17.405  0.00  0.00    +0.000 C 
ENDBRANCH  23  26
ENDBRANCH  20  23
ENDBRANCH   3  17
TORSDOF 4
ENDMDL
MODEL 4
REMARK VINA RESULT:      -8.4      6.911      9.645
REMARK  Name = 
REMARK  6 active torsions:
REMARK  status: ('A' for Active; 'I' for Inactive)
REMARK    1  A    between atoms: C_1  and  C_2
REMARK    2  A    between atoms: C_7  and  C_8
REMARK    3  A    between atoms: N_10  and  C_11
REMARK    4  A    between atoms: C_14  and  S_15
REMARK    5  A    between atoms: S_15  and  N_18
REMARK    6  A    between atoms: C_28  and  C_29
REMARK                            x       y       z     vdW  Elec       q    Type
REMARK                         _______ _______ _______ _____ _____    ______ ____
ROOT
ATOM      1  C   UNL     1       0.915   9.898  21.520  0.00  0.00    +0.000 C 
ATOM      2  O   UNL     1       1.636   9.456  22.412  0.00  0.00    +0.000 OA
ATOM      3  N   UNL     1       0.822   9.401  20.225  0.00  0.00    +0.000 N 
ATOM      4  H   UNL     1       0.354   9.968  19.530  0.00  0.00    +0.000 HD
ENDROOT
BRANCH   1  11
ATOM      5  C   UNL     1      -4.398  15.221  23.741  0.00  0.00    +0.000 C 
ATOM      6  C   UNL     1      -3.510  14.048  23.461  0.00  0.00    +0.000 A 
ATOM      7  N   UNL     1      -2.409  14.289  22.702  0.00  0.00    +0.000 NA
ATOM      8  C   UNL     1      -1.599  13.247  22.440  0.00  0.00    +0.000 A 
ATOM      9  C   UNL     1      -0.445  13.434  21.682  0.00  0.00    +0.000 A 
ATOM     10  C   UNL     1       0.426  12.376  21.388  0.00  0.00    +0.000 A 
ATOM     11  C   UNL     1       0.121  11.102  21.860  0.00  0.00    +0.000 A 
ATOM     12  C   UNL     1      -1.045  10.907  22.617  0.00  0.00    +0.000 A 
ATOM     13  C   UNL     1      -1.897  11.955  22.925  0.00  0.00    +0.000 A 
ATOM     14  N   UNL     1      -2.986  11.720  23.679  0.00  0.00    +0.000 NA
ATOM     15  C   UNL     1      -3.790  12.775  23.957  0.00  0.00    +0.000 A 
ATOM     16  C   UNL     1      -4.969  12.502  24.842  0.00  0.00    +0.000 C 
ENDBRANCH   1  11
BRANCH   3  17
ATOM     17  C   UNL     1       1.525   8.259  19.754  0.00  0.00    +0.000 A 
ATOM     18  C   UNL     1       1.584   7.066  20.480  0.00  0.00    +0.000 A 
ATOM     19  C   UNL     1       2.336   5.978  20.038  0.00  0.00    +0.000 A 
ATOM     20  C   UNL     1       3.014   6.052  18.825  0.00  0.00    +0.000 A 
ATOM     21  C   UNL     1       2.964   7.229  18.070  0.00  0.00    +0.000 A 
ATOM     22  C   UNL     1       2.207   8.325  18.531  0.00  0.00    +0.000 A 
BRANCH  20  23
ATOM     23  S   UNL     1       4.041   4.675  18.340  0.00  0.00    +0.000 S 
ATOM     24  O   UNL     1       4.456   3.999  19.548  0.00  0.00    +0.000 OA
ATOM     25  O   UNL     1       3.337   3.964  17.293  0.00  0.00    +0.000 OA
BRANCH  23  26
ATOM     26  N   UNL     1       5.407   5.390  17.641  0.00  0.00    +0.000 NA
ATOM     27  C   UNL     1       5.534   5.416  16.176  0.00  0.00    +0.000 C 
ATOM     28  C   UNL     1       6.633   4.415  15.892  0.00  0.00    +0.000 C 
ATOM     29  C   UNL     1       7.590   4.583  17.061  0.00  0.00    +0.000 C 
ATOM     30  C   UNL     1       6.742   5.115  18.217  0.00  0.00    +0.000 C 
ENDBRANCH  23  26
ENDBRANCH  20  23
ENDBRANCH   3  17
TORSDOF 4
ENDMDL
MODEL 5
REMARK VINA RESULT:      -8.3      6.859      8.692
REMARK  Name = 
REMARK  6 active torsions:
REMARK  status: ('A' for Active; 'I' for Inactive)
REMARK    1  A    between atoms: C_1  and  C_2
REMARK    2  A    between atoms: C_7  and  C_8
REMARK    3  A    between atoms: N_10  and  C_11
REMARK    4  A    between atoms: C_14  and  S_15
REMARK    5  A    between atoms: S_15  and  N_18
REMARK    6  A    between atoms: C_28  and  C_29
REMARK                            x       y       z     vdW  Elec       q    Type
REMARK                         _______ _______ _______ _____ _____    ______ ____
ROOT
ATOM      1  C   UNL     1       0.744   9.396  20.439  0.00  0.00    +0.000 C 
ATOM      2  O   UNL     1       0.905   8.770  21.484  0.00  0.00    +0.000 OA
ATOM      3  N   UNL     1       1.309   9.084  19.206  0.00  0.00    +0.000 N 
ATOM      4  H   UNL     1       1.268   9.782  18.475  0.00  0.00    +0.000 HD
ENDROOT
BRANCH   1  11
ATOM      5  C   UNL     1      -3.404  15.726  22.493  0.00  0.00    +0.000 C 
ATOM      6  C   UNL     1      -2.501  14.543  22.320  0.00  0.00    +0.000 A 
ATOM      7  N   UNL     1      -2.549  13.914  21.116  0.00  0.00    +0.000 NA
ATOM      8  C   UNL     1      -1.743  12.851  20.943  0.00  0.00    +0.000 A 
ATOM      9  C   UNL     1      -1.734  12.174  19.725  0.00  0.00    +0.000 A 
ATOM     10  C   UNL     1      -0.911  11.064  19.502  0.00  0.00    +0.000 A 
ATOM     11  C   UNL     1      -0.086  10.620  20.533  0.00  0.00    +0.000 A 
ATOM     12  C   UNL     1      -0.098  11.292  21.764  0.00  0.00    +0.000 A 
ATOM     13  C   UNL     1      -0.897  12.403  21.980  0.00  0.00    +0.000 A 
ATOM     14  N   UNL     1      -0.850  13.030  23.169  0.00  0.00    +0.000 NA
ATOM     15  C   UNL     1      -1.648  14.113  23.335  0.00  0.00    +0.000 A 
ATOM     16  C   UNL     1      -1.541  14.827  24.649  0.00  0.00    +0.000 C 
ENDBRANCH   1  11
BRANCH   3  17
ATOM     17  C   UNL     1       2.128   7.949  18.966  0.00  0.00    +0.000 A 
ATOM     18  C   UNL     1       2.221   6.888  19.872  0.00  0.00    +0.000 A 
ATOM     19  C   UNL     1       3.082   5.814  19.654  0.00  0.00    +0.000 A 
ATOM     20  C   UNL     1       3.842   5.761  18.490  0.00  0.00    +0.000 A 
ATOM     21  C   UNL     1       3.762   6.802  17.558  0.00  0.00    +0.000 A 
ATOM     22  C   UNL     1       2.893   7.887  17.793  0.00  0.00    +0.000 A 
BRANCH  20  23
ATOM     23  S   UNL     1       5.003   4.419  18.292  0.00  0.00    +0.000 S 
ATOM     24  O   UNL     1       5.800   4.707  17.122  0.00  0.00    +0.000 OA
ATOM     25  O   UNL     1       5.625   4.199  19.581  0.00  0.00    +0.000 OA
BRANCH  23  26
ATOM     26  N   UNL     1       4.038   3.070  17.953  0.00  0.00    +0.000 NA
ATOM     27  C   UNL     1       2.836   3.237  17.124  0.00  0.00    +0.000 C 
ATOM     28  C   UNL     1       1.695   3.075  18.106  0.00  0.00    +0.000 C 
ATOM     29  C   UNL     1       2.198   2.020  19.077  0.00  0.00    +0.000 C 
ATOM     30  C   UNL     1       3.724   2.115  19.038  0.00  0.00    +0.000 C 
ENDBRANCH  23  26
ENDBRANCH  20  23
ENDBRANCH   3  17
TORSDOF 4
ENDMDL
MODEL 6
REMARK VINA RESULT:      -8.2      7.697     10.071
REMARK  Name = 
REMARK  6 active torsions:
REMARK  status: ('A' for Active; 'I' for Inactive)
REMARK    1  A    between atoms: C_1  and  C_2
REMARK    2  A    between atoms: C_7  and  C_8
REMARK    3  A    between atoms: N_10  and  C_11
REMARK    4  A    between atoms: C_14  and  S_15
REMARK    5  A    between atoms: S_15  and  N_18
REMARK    6  A    between atoms: C_28  and  C_29
REMARK                            x       y       z     vdW  Elec       q    Type
REMARK                         _______ _______ _______ _____ _____    ______ ____
ROOT
ATOM      1  C   UNL     1       0.292  11.289  20.929  0.00  0.00    +0.000 C 
ATOM      2  O   UNL     1       1.369  11.408  21.508  0.00  0.00    +0.000 OA
ATOM      3  N   UNL     1      -0.025  10.317  19.985  0.00  0.00    +0.000 N 
ATOM      4  H   UNL     1      -0.864  10.444  19.435  0.00  0.00    +0.000 HD
ENDROOT
BRANCH   1  11
ATOM      5  C   UNL     1      -6.002  15.481  23.005  0.00  0.00    +0.000 C 
ATOM      6  C   UNL     1      -4.894  14.504  22.755  0.00  0.00    +0.000 A 
ATOM      7  N   UNL     1      -3.856  14.946  21.996  0.00  0.00    +0.000 NA
ATOM      8  C   UNL     1      -2.852  14.083  21.762  0.00  0.00    +0.000 A 
ATOM      9  C   UNL     1      -1.752  14.481  21.005  0.00  0.00    +0.000 A 
ATOM     10  C   UNL     1      -0.684  13.615  20.738  0.00  0.00    +0.000 A 
ATOM     11  C   UNL     1      -0.731  12.316  21.238  0.00  0.00    +0.000 A 
ATOM     12  C   UNL     1      -1.841  11.907  21.993  0.00  0.00    +0.000 A 
ATOM     13  C   UNL     1      -2.888  12.768  22.274  0.00  0.00    +0.000 A 
ATOM     14  N   UNL     1      -3.915  12.335  23.028  0.00  0.00    +0.000 NA
ATOM     15  C   UNL     1      -4.917  13.213  23.279  0.00  0.00    +0.000 A 
ATOM     16  C   UNL     1      -6.025  12.727  24.164  0.00  0.00    +0.000 C 
ENDBRANCH   1  11
BRANCH   3  17
ATOM     17  C   UNL     1       0.853   9.274  19.586  0.00  0.00    +0.000 A 
ATOM     18  C   UNL     1       1.247   8.253  20.457  0.00  0.00    +0.000 A 
ATOM     19  C   UNL     1       2.164   7.277  20.071  0.00  0.00    +0.000 A 
ATOM     20  C   UNL     1       2.675   7.280  18.777  0.00  0.00    +0.000 A 
ATOM     21  C   UNL     1       2.291   8.282  17.879  0.00  0.00    +0.000 A 
ATOM     22  C   UNL     1       1.369   9.268  18.282  0.00  0.00    +0.000 A 
BRANCH  20  23
ATOM     23  S   UNL     1       3.918   6.071  18.352  0.00  0.00    +0.000 S 
ATOM     24  O   UNL     1       4.847   6.707  17.445  0.00  0.00    +0.000 OA
ATOM     25  O   UNL     1       4.376   5.474  19.589  0.00  0.00    +0.000 OA
BRANCH  23  26
ATOM     26  N   UNL     1       3.075   4.881  17.492  0.00  0.00    +0.000 NA
ATOM     27  C   UNL     1       1.655   4.648  17.792  0.00  0.00    +0.000 C 
ATOM     28  C   UNL     1       1.650   3.311  18.501  0.00  0.00    +0.000 C 
ATOM     29  C   UNL     1       2.748   2.525  17.803  0.00  0.00    +0.000 C 
ATOM     30  C   UNL     1       3.719   3.570  17.251  0.00  0.00    +0.000 C 
ENDBRANCH  23  26
ENDBRANCH  20  23
ENDBRANCH   3  17
TORSDOF 4
ENDMDL
MODEL 7
REMARK VINA RESULT:      -8.2      6.692      8.910
REMARK  Name = 
REMARK  6 active torsions:
REMARK  status: ('A' for Active; 'I' for Inactive)
REMARK    1  A    between atoms: C_1  and  C_2
REMARK    2  A    between atoms: C_7  and  C_8
REMARK    3  A    between atoms: N_10  and  C_11
REMARK    4  A    between atoms: C_14  and  S_15
REMARK    5  A    between atoms: S_15  and  N_18
REMARK    6  A    between atoms: C_28  and  C_29
REMARK                            x       y       z     vdW  Elec       q    Type
REMARK                         _______ _______ _______ _____ _____    ______ ____
ROOT
ATOM      1  C   UNL     1       1.884   8.287  19.057  0.00  0.00    +0.000 C 
ATOM      2  O   UNL     1       1.850   8.810  17.946  0.00  0.00    +0.000 OA
ATOM      3  N   UNL     1       2.583   7.132  19.395  0.00  0.00    +0.000 N 
ATOM      4  H   UNL     1       2.371   6.690  20.280  0.00  0.00    +0.000 HD
ENDROOT
BRANCH   1  11
ATOM      5  C   UNL     1      -2.748  12.791  23.501  0.00  0.00    +0.000 C 
ATOM      6  C   UNL     1      -1.970  12.046  22.461  0.00  0.00    +0.000 A 
ATOM      7  N   UNL     1      -1.153  11.056  22.908  0.00  0.00    +0.000 NA
ATOM      8  C   UNL     1      -0.447  10.375  21.988  0.00  0.00    +0.000 A 
ATOM      9  C   UNL     1       0.394   9.337  22.382  0.00  0.00    +0.000 A 
ATOM     10  C   UNL     1       1.146   8.602  21.456  0.00  0.00    +0.000 A 
ATOM     11  C   UNL     1       1.055   8.928  20.106  0.00  0.00    +0.000 A 
ATOM     12  C   UNL     1       0.216   9.979  19.704  0.00  0.00    +0.000 A 
ATOM     13  C   UNL     1      -0.543  10.693  20.616  0.00  0.00    +0.000 A 
ATOM     14  N   UNL     1      -1.355  11.672  20.176  0.00  0.00    +0.000 NA
ATOM     15  C   UNL     1      -2.080  12.344  21.103  0.00  0.00    +0.000 A 
ATOM     16  C   UNL     1      -3.017  13.394  20.587  0.00  0.00    +0.000 C 
ENDBRANCH   1  11
BRANCH   3  17
ATOM     17  C   UNL     1       3.413   6.409  18.498  0.00  0.00    +0.000 A 
ATOM     18  C   UNL     1       3.466   5.012  18.490  0.00  0.00    +0.000 A 
ATOM     19  C   UNL     1       4.337   4.318  17.651  0.00  0.00    +0.000 A 
ATOM     20  C   UNL     1       5.149   5.019  16.764  0.00  0.00    +0.000 A 
ATOM     21  C   UNL     1       5.110   6.418  16.741  0.00  0.00    +0.000 A 
ATOM     22  C   UNL     1       4.231   7.108  17.598  0.00  0.00    +0.000 A 
BRANCH  20  23
ATOM     23  S   UNL     1       6.318   4.101  15.776  0.00  0.00    +0.000 S 
ATOM     24  O   UNL     1       7.643   4.474  16.216  0.00  0.00    +0.000 OA
ATOM     25  O   UNL     1       5.893   2.717  15.785  0.00  0.00    +0.000 OA
BRANCH  23  26
ATOM     26  N   UNL     1       6.102   4.692  14.204  0.00  0.00    +0.000 NA
ATOM     27  C   UNL     1       5.173   3.999  13.299  0.00  0.00    +0.000 C 
ATOM     28  C   UNL     1       6.083   3.327  12.293  0.00  0.00    +0.000 C 
ATOM     29  C   UNL     1       7.225   4.314  12.119  0.00  0.00    +0.000 C 
ATOM     30  C   UNL     1       7.284   5.115  13.421  0.00  0.00    +0.000 C 
ENDBRANCH  23  26
ENDBRANCH  20  23
ENDBRANCH   3  17
TORSDOF 4
ENDMDL
MODEL 8
REMARK VINA RESULT:      -8.2      6.953      8.809
REMARK  Name = 
REMARK  6 active torsions:
REMARK  status: ('A' for Active; 'I' for Inactive)
REMARK    1  A    between atoms: C_1  and  C_2
REMARK    2  A    between atoms: C_7  and  C_8
REMARK    3  A    between atoms: N_10  and  C_11
REMARK    4  A    between atoms: C_14  and  S_15
REMARK    5  A    between atoms: S_15  and  N_18
REMARK    6  A    between atoms: C_28  and  C_29
REMARK                            x       y       z     vdW  Elec       q    Type
REMARK                         _______ _______ _______ _____ _____    ______ ____
ROOT
ATOM      1  C   UNL     1       0.444   9.622  18.674  0.00  0.00    +0.000 C 
ATOM      2  O   UNL     1       0.525   9.477  17.456  0.00  0.00    +0.000 OA
ATOM      3  N   UNL     1       1.118   8.871  19.631  0.00  0.00    +0.000 N 
ATOM      4  H   UNL     1       0.817   8.948  20.594  0.00  0.00    +0.000 HD
ENDROOT
BRANCH   1  11
ATOM      5  C   UNL     1      -3.801  14.954  22.552  0.00  0.00    +0.000 C 
ATOM      6  C   UNL     1      -2.820  13.973  21.987  0.00  0.00    +0.000 A 
ATOM      7  N   UNL     1      -3.151  13.401  20.799  0.00  0.00    +0.000 NA
ATOM      8  C   UNL     1      -2.281  12.518  20.276  0.00  0.00    +0.000 A 
ATOM      9  C   UNL     1      -2.555  11.910  19.053  0.00  0.00    +0.000 A 
ATOM     10  C   UNL     1      -1.676  10.986  18.473  0.00  0.00    +0.000 A 
ATOM     11  C   UNL     1      -0.501  10.661  19.146  0.00  0.00    +0.000 A 
ATOM     12  C   UNL     1      -0.225  11.264  20.382  0.00  0.00    +0.000 A 
ATOM     13  C   UNL     1      -1.083  12.192  20.948  0.00  0.00    +0.000 A 
ATOM     14  N   UNL     1      -0.757  12.764  22.122  0.00  0.00    +0.000 NA
ATOM     15  C   UNL     1      -1.626  13.667  22.637  0.00  0.00    +0.000 A 
ATOM     16  C   UNL     1      -1.219  14.330  23.919  0.00  0.00    +0.000 C 
ENDBRANCH   1  11
BRANCH   3  17
ATOM     17  C   UNL     1       2.050   7.842  19.330  0.00  0.00    +0.000 A 
ATOM     18  C   UNL     1       2.802   7.835  18.152  0.00  0.00    +0.000 A 
ATOM     19  C   UNL     1       3.660   6.782  17.839  0.00  0.00    +0.000 A 
ATOM     20  C   UNL     1       3.815   5.726  18.731  0.00  0.00    +0.000 A 
ATOM     21  C   UNL     1       3.084   5.710  19.925  0.00  0.00    +0.000 A 
ATOM     22  C   UNL     1       2.214   6.776  20.227  0.00  0.00    +0.000 A 
BRANCH  20  23
ATOM     23  S   UNL     1       4.849   4.353  18.252  0.00  0.00    +0.000 S 
ATOM     24  O   UNL     1       5.486   4.706  17.003  0.00  0.00    +0.000 OA
ATOM     25  O   UNL     1       5.636   3.985  19.411  0.00  0.00    +0.000 OA
BRANCH  23  26
ATOM     26  N   UNL     1       3.764   3.089  17.950  0.00  0.00    +0.000 NA
ATOM     27  C   UNL     1       2.532   3.366  17.196  0.00  0.00    +0.000 C 
ATOM     28  C   UNL     1       1.441   3.273  18.241  0.00  0.00    +0.000 C 
ATOM     29  C   UNL     1       1.915   2.162  19.164  0.00  0.00    +0.000 C 
ATOM     30  C   UNL     1       3.438   2.139  19.036  0.00  0.00    +0.000 C 
ENDBRANCH  23  26
ENDBRANCH  20  23
ENDBRANCH   3  17
TORSDOF 4
ENDMDL
MODEL 9
REMARK VINA RESULT:      -8.2      6.739      8.652
REMARK  Name = 
REMARK  6 active torsions:
REMARK  status: ('A' for Active; 'I' for Inactive)
REMARK    1  A    between atoms: C_1  and  C_2
REMARK    2  A    between atoms: C_7  and  C_8
REMARK    3  A    between atoms: N_10  and  C_11
REMARK    4  A    between atoms: C_14  and  S_15
REMARK    5  A    between atoms: S_15  and  N_18
REMARK    6  A    between atoms: C_28  and  C_29
REMARK                            x       y       z     vdW  Elec       q    Type
REMARK                         _______ _______ _______ _____ _____    ______ ____
ROOT
ATOM      1  C   UNL     1       1.419  10.303  18.876  0.00  0.00    +0.000 C 
ATOM      2  O   UNL     1       2.173  10.571  17.943  0.00  0.00    +0.000 OA
ATOM      3  N   UNL     1       1.303   9.066  19.501  0.00  0.00    +0.000 N 
ATOM      4  H   UNL     1       0.512   8.915  20.113  0.00  0.00    +0.000 HD
ENDROOT
BRANCH   1  11
ATOM      5  C   UNL     1      -3.946  14.966  22.189  0.00  0.00    +0.000 C 
ATOM      6  C   UNL     1      -2.952  13.932  21.755  0.00  0.00    +0.000 A 
ATOM      7  N   UNL     1      -2.253  14.200  20.621  0.00  0.00    +0.000 NA
ATOM      8  C   UNL     1      -1.356  13.283  20.217  0.00  0.00    +0.000 A 
ATOM      9  C   UNL     1      -0.597  13.508  19.071  0.00  0.00    +0.000 A 
ATOM     10  C   UNL     1       0.349  12.580  18.616  0.00  0.00    +0.000 A 
ATOM     11  C   UNL     1       0.524  11.396  19.326  0.00  0.00    +0.000 A 
ATOM     12  C   UNL     1      -0.245  11.160  20.476  0.00  0.00    +0.000 A 
ATOM     13  C   UNL     1      -1.166  12.085  20.939  0.00  0.00    +0.000 A 
ATOM     14  N   UNL     1      -1.857  11.824  22.063  0.00  0.00    +0.000 NA
ATOM     15  C   UNL     1      -2.746  12.758  22.479  0.00  0.00    +0.000 A 
ATOM     16  C   UNL     1      -3.467  12.471  23.761  0.00  0.00    +0.000 C 
ENDBRANCH   1  11
BRANCH   3  17
ATOM     17  C   UNL     1       2.089   7.929  19.176  0.00  0.00    +0.000 A 
ATOM     18  C   UNL     1       2.250   6.854  20.056  0.00  0.00    +0.000 A 
ATOM     19  C   UNL     1       3.081   5.777  19.750  0.00  0.00    +0.000 A 
ATOM     20  C   UNL     1       3.739   5.736  18.524  0.00  0.00    +0.000 A 
ATOM     21  C   UNL     1       3.588   6.792  17.618  0.00  0.00    +0.000 A 
ATOM     22  C   UNL     1       2.751   7.879  17.941  0.00  0.00    +0.000 A 
BRANCH  20  23
ATOM     23  S   UNL     1       4.867   4.390  18.210  0.00  0.00    +0.000 S 
ATOM     24  O   UNL     1       5.548   4.677  16.968  0.00  0.00    +0.000 OA
ATOM     25  O   UNL     1       5.611   4.160  19.431  0.00  0.00    +0.000 OA
BRANCH  23  26
ATOM     26  N   UNL     1       3.867   3.047  17.961  0.00  0.00    +0.000 NA
ATOM     27  C   UNL     1       2.636   3.204  17.172  0.00  0.00    +0.000 C 
ATOM     28  C   UNL     1       1.531   3.102  18.202  0.00  0.00    +0.000 C 
ATOM     29  C   UNL     1       2.053   2.077  19.195  0.00  0.00    +0.000 C 
ATOM     30  C   UNL     1       3.578   2.140  19.095  0.00  0.00    +0.000 C 
ENDBRANCH  23  26
ENDBRANCH  20  23
ENDBRANCH   3  17
TORSDOF 4
ENDMDL
