MODEL 1
REMARK VINA RESULT:      -8.7      0.000      0.000
REMARK  Name = 
REMARK  7 active torsions:
REMARK  status: ('A' for Active; 'I' for Inactive)
REMARK    1  A    between atoms: C_1  and  C_2
REMARK    2  A    between atoms: C_13  and  C_14
REMARK    3  A    between atoms: C_14  and  C_15
REMARK    4  A    between atoms: N_17  and  C_18
REMARK    5  A    between atoms: C_24  and  O_25
REMARK    6  A    between atoms: O_25  and  C_26
REMARK    7  A    between atoms: C_26  and  C_27
REMARK                            x       y       z     vdW  Elec       q    Type
REMARK                         _______ _______ _______ _____ _____    ______ ____
ROOT
ATOM      1  C   UNL     1       2.343   8.347  18.215  0.00  0.00    +0.000 C 
ATOM      2  O   UNL     1       2.497   8.814  17.091  0.00  0.00    +0.000 OA
ATOM      3  N   UNL     1       1.352   8.730  19.114  0.00  0.00    +0.000 N 
ATOM      4  H   UNL     1       1.290   8.259  20.013  0.00  0.00    +0.000 HD
ENDROOT
BRANCH   3   5
ATOM      5  C   UNL     1       0.344   9.701  18.844  0.00  0.00    +0.000 A 
ATOM      6  C   UNL     1      -0.504   9.566  17.732  0.00  0.00    +0.000 A 
ATOM      7  C   UNL     1      -1.528  10.471  17.500  0.00  0.00    +0.000 A 
ATOM      8  F   UNL     1      -2.359  10.270  16.469  0.00  0.00    +0.000 F 
ATOM      9  C   UNL     1      -1.705  11.566  18.319  0.00  0.00    +0.000 A 
ATOM     10  C   UNL     1      -0.845  11.752  19.399  0.00  0.00    +0.000 A 
ATOM     11  C   UNL     1       0.157  10.809  19.706  0.00  0.00    +0.000 A 
BRANCH  11  12
ATOM     12  O   UNL     1       0.938  10.894  20.842  0.00  0.00    +0.000 OA
BRANCH  12  13
ATOM     13  C   UNL     1       0.215  10.719  22.082  0.00  0.00    +0.000 C 
BRANCH  13  14
ATOM     14  C   UNL     1       0.263   9.299  22.638  0.00  0.00    +0.000 C 
ATOM     15  F   UNL     1       0.042   9.243  23.966  0.00  0.00    +0.000 F 
ATOM     16  F   UNL     1      -0.671   8.524  22.034  0.00  0.00    +0.000 F 
ATOM     17  F   UNL     1       1.467   8.729  22.393  0.00  0.00    +0.000 F 
ENDBRANCH  13  14
ENDBRANCH  12  13
ENDBRANCH  11  12
ENDBRANCH   3   5
BRANCH   1  18
ATOM     18  C   UNL     1       3.276   7.266  18.720  0.00  0.00    +0.000 C 
BRANCH  18  31
ATOM     19  C   UNL     1       6.244   5.530  15.795  0.00  0.00    +0.000 C 
ATOM     20  C   UNL     1       5.274   6.123  16.797  0.00  0.00    +0.000 C 
ATOM     21  O   UNL     1       5.512   7.259  17.207  0.00  0.00    +0.000 OA
ATOM     22  N   UNL     1       4.188   5.330  17.206  0.00  0.00    +0.000 N 
ATOM     23  C   UNL     1       3.989   4.048  16.688  0.00  0.00    +0.000 C 
ATOM     24  C   UNL     1       3.106   3.174  17.186  0.00  0.00    +0.000 C 
ATOM     25  C   UNL     1       2.368   3.478  18.404  0.00  0.00    +0.000 A 
ATOM     26  C   UNL     1       1.670   2.452  19.062  0.00  0.00    +0.000 A 
ATOM     27  C   UNL     1       0.985   2.715  20.242  0.00  0.00    +0.000 A 
ATOM     28  C   UNL     1       1.020   3.997  20.779  0.00  0.00    +0.000 A 
ATOM     29  C   UNL     1       1.731   5.016  20.132  0.00  0.00    +0.000 A 
ATOM     30  C   UNL     1       2.398   4.788  18.917  0.00  0.00    +0.000 A 
ATOM     31  C   UNL     1       3.030   5.893  18.030  0.00  0.00    +0.000 C 
ENDBRANCH  18  31
ENDBRANCH   1  18
TORSDOF 6
ENDMDL
MODEL 2
REMARK VINA RESULT:      -7.9      2.705      4.904
REMARK  Name = 
REMARK  7 active torsions:
REMARK  status: ('A' for Active; 'I' for Inactive)
REMARK    1  A    between atoms: C_1  and  C_2
REMARK    2  A    between atoms: C_13  and  C_14
REMARK    3  A    between atoms: C_14  and  C_15
REMARK    4  A    between atoms: N_17  and  C_18
REMARK    5  A    between atoms: C_24  and  O_25
REMARK    6  A    between atoms: O_25  and  C_26
REMARK    7  A    between atoms: C_26  and  C_27
REMARK                            x       y       z     vdW  Elec       q    Type
REMARK                         _______ _______ _______ _____ _____    ______ ____
ROOT
ATOM      1  C   UNL     1       2.016   7.938  18.391  0.00  0.00    +0.000 C 
ATOM      2  O   UNL     1       2.071   7.879  19.615  0.00  0.00    +0.000 OA
ATOM      3  N   UNL     1       1.474   8.993  17.662  0.00  0.00    +0.000 N 
ATOM      4  H   UNL     1       1.504   8.961  16.647  0.00  0.00    +0.000 HD
ENDROOT
BRANCH   3   5
ATOM      5  C   UNL     1       0.934  10.181  18.236  0.00  0.00    +0.000 A 
ATOM      6  C   UNL     1       1.767  11.110  18.881  0.00  0.00    +0.000 A 
ATOM      7  C   UNL     1       1.259  12.298  19.384  0.00  0.00    +0.000 A 
ATOM      8  F   UNL     1       2.096  13.190  19.931  0.00  0.00    +0.000 F 
ATOM      9  C   UNL     1      -0.091  12.574  19.322  0.00  0.00    +0.000 A 
ATOM     10  C   UNL     1      -0.947  11.645  18.734  0.00  0.00    +0.000 A 
ATOM     11  C   UNL     1      -0.450  10.464  18.145  0.00  0.00    +0.000 A 
BRANCH  11  12
ATOM     12  O   UNL     1      -1.252   9.589  17.439  0.00  0.00    +0.000 OA
BRANCH  12  13
ATOM     13  C   UNL     1      -2.655   9.939  17.424  0.00  0.00    +0.000 C 
BRANCH  13  14
ATOM     14  C   UNL     1      -3.188  10.328  16.049  0.00  0.00    +0.000 C 
ATOM     15  F   UNL     1      -4.465  10.755  16.077  0.00  0.00    +0.000 F 
ATOM     16  F   UNL     1      -2.435  11.322  15.516  0.00  0.00    +0.000 F 
ATOM     17  F   UNL     1      -3.119   9.280  15.194  0.00  0.00    +0.000 F 
ENDBRANCH  13  14
ENDBRANCH  12  13
ENDBRANCH  11  12
ENDBRANCH   3   5
BRANCH   1  18
ATOM     18  C   UNL     1       2.563   6.802  17.552  0.00  0.00    +0.000 C 
BRANCH  18  31
ATOM     19  C   UNL     1       1.672   2.438  18.285  0.00  0.00    +0.000 C 
ATOM     20  C   UNL     1       1.960   3.899  18.007  0.00  0.00    +0.000 C 
ATOM     21  O   UNL     1       1.072   4.554  17.460  0.00  0.00    +0.000 OA
ATOM     22  N   UNL     1       3.223   4.399  18.367  0.00  0.00    +0.000 N 
ATOM     23  C   UNL     1       4.176   3.587  18.988  0.00  0.00    +0.000 C 
ATOM     24  C   UNL     1       5.454   3.942  19.162  0.00  0.00    +0.000 C 
ATOM     25  C   UNL     1       5.964   5.182  18.593  0.00  0.00    +0.000 A 
ATOM     26  C   UNL     1       7.351   5.397  18.540  0.00  0.00    +0.000 A 
ATOM     27  C   UNL     1       7.858   6.560  17.973  0.00  0.00    +0.000 A 
ATOM     28  C   UNL     1       6.982   7.493  17.434  0.00  0.00    +0.000 A 
ATOM     29  C   UNL     1       5.599   7.270  17.470  0.00  0.00    +0.000 A 
ATOM     30  C   UNL     1       5.057   6.124  18.074  0.00  0.00    +0.000 A 
ATOM     31  C   UNL     1       3.547   5.893  18.345  0.00  0.00    +0.000 C 
ENDBRANCH  18  31
ENDBRANCH   1  18
TORSDOF 6
ENDMDL
MODEL 3
REMARK VINA RESULT:      -7.8      2.804      4.627
REMARK  Name = 
REMARK  7 active torsions:
REMARK  status: ('A' for Active; 'I' for Inactive)
REMARK    1  A    between atoms: C_1  and  C_2
REMARK    2  A    between atoms: C_13  and  C_14
REMARK    3  A    between atoms: C_14  and  C_15
REMARK    4  A    between atoms: N_17  and  C_18
REMARK    5  A    between atoms: C_24  and  O_25
REMARK    6  A    between atoms: O_25  and  C_26
REMARK    7  A    between atoms: C_26  and  C_27
REMARK                            x       y       z     vdW  Elec       q    Type
REMARK                         _______ _______ _______ _____ _____    ______ ____
ROOT
ATOM      1  C   UNL     1       2.089   7.940  18.387  0.00  0.00    +0.000 C 
ATOM      2  O   UNL     1       2.114   7.943  19.614  0.00  0.00    +0.000 OA
ATOM      3  N   UNL     1       1.746   9.029  17.589  0.00  0.00    +0.000 N 
ATOM      4  H   UNL     1       1.785   8.934  16.578  0.00  0.00    +0.000 HD
ENDROOT
BRANCH   3   5
ATOM      5  C   UNL     1       1.408  10.322  18.085  0.00  0.00    +0.000 A 
ATOM      6  C   UNL     1       2.388  11.320  18.214  0.00  0.00    +0.000 A 
ATOM      7  C   UNL     1       2.056  12.599  18.634  0.00  0.00    +0.000 A 
ATOM      8  F   UNL     1       3.006  13.543  18.678  0.00  0.00    +0.000 F 
ATOM      9  C   UNL     1       0.763  12.911  18.997  0.00  0.00    +0.000 A 
ATOM     10  C   UNL     1      -0.219  11.925  18.928  0.00  0.00    +0.000 A 
ATOM     11  C   UNL     1       0.073  10.638  18.433  0.00  0.00    +0.000 A 
BRANCH  11  12
ATOM     12  O   UNL     1      -0.902   9.681  18.226  0.00  0.00    +0.000 OA
BRANCH  12  13
ATOM     13  C   UNL     1      -1.778   9.946  17.108  0.00  0.00    +0.000 C 
BRANCH  13  14
ATOM     14  C   UNL     1      -3.250  10.080  17.485  0.00  0.00    +0.000 C 
ATOM     15  F   UNL     1      -4.037  10.407  16.442  0.00  0.00    +0.000 F 
ATOM     16  F   UNL     1      -3.713   8.912  17.997  0.00  0.00    +0.000 F 
ATOM     17  F   UNL     1      -3.416  11.023  18.443  0.00  0.00    +0.000 F 
ENDBRANCH  13  14
ENDBRANCH  12  13
ENDBRANCH  11  12
ENDBRANCH   3   5
BRANCH   1  18
ATOM     18  C   UNL     1       2.446   6.682  17.624  0.00  0.00    +0.000 C 
BRANCH  18  31
ATOM     19  C   UNL     1       1.617   2.305  18.358  0.00  0.00    +0.000 C 
ATOM     20  C   UNL     1       1.883   3.771  18.080  0.00  0.00    +0.000 C 
ATOM     21  O   UNL     1       0.978   4.417  17.552  0.00  0.00    +0.000 OA
ATOM     22  N   UNL     1       3.147   4.284  18.418  0.00  0.00    +0.000 N 
ATOM     23  C   UNL     1       4.120   3.480  19.018  0.00  0.00    +0.000 C 
ATOM     24  C   UNL     1       5.398   3.849  19.170  0.00  0.00    +0.000 C 
ATOM     25  C   UNL     1       5.883   5.096  18.595  0.00  0.00    +0.000 A 
ATOM     26  C   UNL     1       7.267   5.327  18.518  0.00  0.00    +0.000 A 
ATOM     27  C   UNL     1       7.750   6.497  17.946  0.00  0.00    +0.000 A 
ATOM     28  C   UNL     1       6.853   7.423  17.426  0.00  0.00    +0.000 A 
ATOM     29  C   UNL     1       5.474   7.184  17.487  0.00  0.00    +0.000 A 
ATOM     30  C   UNL     1       4.956   6.030  18.097  0.00  0.00    +0.000 A 
ATOM     31  C   UNL     1       3.454   5.782  18.395  0.00  0.00    +0.000 C 
ENDBRANCH  18  31
ENDBRANCH   1  18
TORSDOF 6
ENDMDL
MODEL 4
REMARK VINA RESULT:      -7.8      3.154      5.504
REMARK  Name = 
REMARK  7 active torsions:
REMARK  status: ('A' for Active; 'I' for Inactive)
REMARK    1  A    between atoms: C_1  and  C_2
REMARK    2  A    between atoms: C_13  and  C_14
REMARK    3  A    between atoms: C_14  and  C_15
REMARK    4  A    between atoms: N_17  and  C_18
REMARK    5  A    between atoms: C_24  and  O_25
REMARK    6  A    between atoms: O_25  and  C_26
REMARK    7  A    between atoms: C_26  and  C_27
REMARK                            x       y       z     vdW  Elec       q    Type
REMARK                         _______ _______ _______ _____ _____    ______ ____
ROOT
ATOM      1  C   UNL     1       3.084   4.770  17.435  0.00  0.00    +0.000 C 
ATOM      2  O   UNL     1       1.908   4.421  17.429  0.00  0.00    +0.000 OA
ATOM      3  N   UNL     1       3.564   5.964  17.969  0.00  0.00    +0.000 N 
ATOM      4  H   UNL     1       4.564   6.147  17.952  0.00  0.00    +0.000 HD
ENDROOT
BRANCH   3   5
ATOM      5  C   UNL     1       2.758   6.942  18.622  0.00  0.00    +0.000 A 
ATOM      6  C   UNL     1       2.417   8.140  17.973  0.00  0.00    +0.000 A 
ATOM      7  C   UNL     1       1.580   9.067  18.577  0.00  0.00    +0.000 A 
ATOM      8  F   UNL     1       1.221  10.165  17.900  0.00  0.00    +0.000 F 
ATOM      9  C   UNL     1       1.110   8.867  19.858  0.00  0.00    +0.000 A 
ATOM     10  C   UNL     1       1.476   7.711  20.544  0.00  0.00    +0.000 A 
ATOM     11  C   UNL     1       2.262   6.715  19.928  0.00  0.00    +0.000 A 
BRANCH  11  12
ATOM     12  O   UNL     1       2.531   5.501  20.530  0.00  0.00    +0.000 OA
BRANCH  12  13
ATOM     13  C   UNL     1       1.360   4.716  20.849  0.00  0.00    +0.000 C 
BRANCH  13  14
ATOM     14  C   UNL     1       1.563   3.210  20.715  0.00  0.00    +0.000 C 
ATOM     15  F   UNL     1       2.814   2.874  20.348  0.00  0.00    +0.000 F 
ATOM     16  F   UNL     1       1.301   2.593  21.894  0.00  0.00    +0.000 F 
ATOM     17  F   UNL     1       0.708   2.690  19.801  0.00  0.00    +0.000 F 
ENDBRANCH  13  14
ENDBRANCH  12  13
ENDBRANCH  11  12
ENDBRANCH   3   5
BRANCH   1  18
ATOM     18  C   UNL     1       4.143   3.876  16.827  0.00  0.00    +0.000 C 
BRANCH  18  31
ATOM     19  C   UNL     1       7.721   5.285  19.192  0.00  0.00    +0.000 C 
ATOM     20  C   UNL     1       6.521   4.782  18.414  0.00  0.00    +0.000 C 
ATOM     21  O   UNL     1       5.620   4.243  19.057  0.00  0.00    +0.000 OA
ATOM     22  N   UNL     1       6.531   4.941  17.019  0.00  0.00    +0.000 N 
ATOM     23  C   UNL     1       7.596   5.568  16.366  0.00  0.00    +0.000 C 
ATOM     24  C   UNL     1       7.761   5.562  15.038  0.00  0.00    +0.000 C 
ATOM     25  C   UNL     1       6.877   4.780  14.185  0.00  0.00    +0.000 A 
ATOM     26  C   UNL     1       7.232   4.560  12.843  0.00  0.00    +0.000 A 
ATOM     27  C   UNL     1       6.417   3.791  12.021  0.00  0.00    +0.000 A 
ATOM     28  C   UNL     1       5.264   3.220  12.546  0.00  0.00    +0.000 A 
ATOM     29  C   UNL     1       4.920   3.425  13.888  0.00  0.00    +0.000 A 
ATOM     30  C   UNL     1       5.702   4.232  14.730  0.00  0.00    +0.000 A 
ATOM     31  C   UNL     1       5.294   4.682  16.158  0.00  0.00    +0.000 C 
ENDBRANCH  18  31
ENDBRANCH   1  18
TORSDOF 6
ENDMDL
MODEL 5
REMARK VINA RESULT:      -7.8      2.270      2.686
REMARK  Name = 
REMARK  7 active torsions:
REMARK  status: ('A' for Active; 'I' for Inactive)
REMARK    1  A    between atoms: C_1  and  C_2
REMARK    2  A    between atoms: C_13  and  C_14
REMARK    3  A    between atoms: C_14  and  C_15
REMARK    4  A    between atoms: N_17  and  C_18
REMARK    5  A    between atoms: C_24  and  O_25
REMARK    6  A    between atoms: O_25  and  C_26
REMARK    7  A    between atoms: C_26  and  C_27
REMARK                            x       y       z     vdW  Elec       q    Type
REMARK                         _______ _______ _______ _____ _____    ______ ____
ROOT
ATOM      1  C   UNL     1       2.243   8.460  18.121  0.00  0.00    +0.000 C 
ATOM      2  O   UNL     1       2.423   8.829  16.965  0.00  0.00    +0.000 OA
ATOM      3  N   UNL     1       1.265   8.958  18.979  0.00  0.00    +0.000 N 
ATOM      4  H   UNL     1       1.177   8.563  19.912  0.00  0.00    +0.000 HD
ENDROOT
BRANCH   3   5
ATOM      5  C   UNL     1       0.303   9.948  18.624  0.00  0.00    +0.000 A 
ATOM      6  C   UNL     1      -0.817   9.614  17.847  0.00  0.00    +0.000 A 
ATOM      7  C   UNL     1      -1.791  10.557  17.552  0.00  0.00    +0.000 A 
ATOM      8  F   UNL     1      -2.880  10.184  16.867  0.00  0.00    +0.000 F 
ATOM      9  C   UNL     1      -1.654  11.867  17.961  0.00  0.00    +0.000 A 
ATOM     10  C   UNL     1      -0.526  12.237  18.690  0.00  0.00    +0.000 A 
ATOM     11  C   UNL     1       0.442  11.284  19.070  0.00  0.00    +0.000 A 
BRANCH  11  12
ATOM     12  O   UNL     1       1.501  11.591  19.902  0.00  0.00    +0.000 OA
BRANCH  12  13
ATOM     13  C   UNL     1       1.883  12.985  19.901  0.00  0.00    +0.000 C 
BRANCH  13  14
ATOM     14  C   UNL     1       2.723  13.402  18.699  0.00  0.00    +0.000 C 
ATOM     15  F   UNL     1       2.078  14.240  17.865  0.00  0.00    +0.000 F 
ATOM     16  F   UNL     1       3.857  14.025  19.109  0.00  0.00    +0.000 F 
ATOM     17  F   UNL     1       3.107  12.318  17.983  0.00  0.00    +0.000 F 
ENDBRANCH  13  14
ENDBRANCH  12  13
ENDBRANCH  11  12
ENDBRANCH   3   5
BRANCH   1  18
ATOM     18  C   UNL     1       3.124   7.383  18.719  0.00  0.00    +0.000 C 
BRANCH  18  31
ATOM     19  C   UNL     1       6.213   5.754  15.859  0.00  0.00    +0.000 C 
ATOM     20  C   UNL     1       5.201   6.311  16.840  0.00  0.00    +0.000 C 
ATOM     21  O   UNL     1       5.392   7.454  17.257  0.00  0.00    +0.000 OA
ATOM     22  N   UNL     1       4.133   5.482  17.222  0.00  0.00    +0.000 N 
ATOM     23  C   UNL     1       3.988   4.195  16.698  0.00  0.00    +0.000 C 
ATOM     24  C   UNL     1       3.124   3.292  17.174  0.00  0.00    +0.000 C 
ATOM     25  C   UNL     1       2.349   3.568  18.376  0.00  0.00    +0.000 A 
ATOM     26  C   UNL     1       1.670   2.518  19.016  0.00  0.00    +0.000 A 
ATOM     27  C   UNL     1       0.950   2.755  20.180  0.00  0.00    +0.000 A 
ATOM     28  C   UNL     1       0.931   4.036  20.719  0.00  0.00    +0.000 A 
ATOM     29  C   UNL     1       1.623   5.080  20.091  0.00  0.00    +0.000 A 
ATOM     30  C   UNL     1       2.324   4.877  18.891  0.00  0.00    +0.000 A 
ATOM     31  C   UNL     1       2.939   6.005  18.021  0.00  0.00    +0.000 C 
ENDBRANCH  18  31
ENDBRANCH   1  18
TORSDOF 6
ENDMDL
MODEL 6
REMARK VINA RESULT:      -7.8      3.487      7.894
REMARK  Name = 
REMARK  7 active torsions:
REMARK  status: ('A' for Active; 'I' for Inactive)
REMARK    1  A    between atoms: C_1  and  C_2
REMARK    2  A    between atoms: C_13  and  C_14
REMARK    3  A    between atoms: C_14  and  C_15
REMARK    4  A    between atoms: N_17  and  C_18
REMARK    5  A    between atoms: C_24  and  O_25
REMARK    6  A    between atoms: O_25  and  C_26
REMARK    7  A    between atoms: C_26  and  C_27
REMARK                            x       y       z     vdW  Elec       q    Type
REMARK                         _______ _______ _______ _____ _____    ______ ____
ROOT
ATOM      1  C   UNL     1       1.693   8.691  18.731  0.00  0.00    +0.000 C 
ATOM      2  O   UNL     1       1.566   8.750  19.949  0.00  0.00    +0.000 OA
ATOM      3  N   UNL     1       2.263   7.629  18.033  0.00  0.00    +0.000 N 
ATOM      4  H   UNL     1       2.293   7.663  17.018  0.00  0.00    +0.000 HD
ENDROOT
BRANCH   3   5
ATOM      5  C   UNL     1       2.751   6.434  18.636  0.00  0.00    +0.000 A 
ATOM      6  C   UNL     1       1.902   5.615  19.398  0.00  0.00    +0.000 A 
ATOM      7  C   UNL     1       2.353   4.417  19.933  0.00  0.00    +0.000 A 
ATOM      8  F   UNL     1       1.496   3.630  20.595  0.00  0.00    +0.000 F 
ATOM      9  C   UNL     1       3.668   4.027  19.785  0.00  0.00    +0.000 A 
ATOM     10  C   UNL     1       4.544   4.846  19.077  0.00  0.00    +0.000 A 
ATOM     11  C   UNL     1       4.096   6.031  18.457  0.00  0.00    +0.000 A 
BRANCH  11  12
ATOM     12  O   UNL     1       4.906   6.795  17.639  0.00  0.00    +0.000 OA
BRANCH  12  13
ATOM     13  C   UNL     1       5.969   6.061  16.990  0.00  0.00    +0.000 C 
BRANCH  13  14
ATOM     14  C   UNL     1       5.636   5.597  15.576  0.00  0.00    +0.000 C 
ATOM     15  F   UNL     1       4.865   4.493  15.548  0.00  0.00    +0.000 F 
ATOM     16  F   UNL     1       4.979   6.573  14.902  0.00  0.00    +0.000 F 
ATOM     17  F   UNL     1       6.767   5.331  14.880  0.00  0.00    +0.000 F 
ENDBRANCH  13  14
ENDBRANCH  12  13
ENDBRANCH  11  12
ENDBRANCH   3   5
BRANCH   1  18
ATOM     18  C   UNL     1       1.212   9.836  17.862  0.00  0.00    +0.000 C 
BRANCH  18  31
ATOM     19  C   UNL     1       2.503  14.029  18.924  0.00  0.00    +0.000 C 
ATOM     20  C   UNL     1       2.084  12.625  18.537  0.00  0.00    +0.000 C 
ATOM     21  O   UNL     1       2.941  11.903  18.027  0.00  0.00    +0.000 OA
ATOM     22  N   UNL     1       0.748  12.254  18.763  0.00  0.00    +0.000 N 
ATOM     23  C   UNL     1      -0.162  13.136  19.352  0.00  0.00    +0.000 C 
ATOM     24  C   UNL     1      -1.481  12.919  19.400  0.00  0.00    +0.000 C 
ATOM     25  C   UNL     1      -2.071  11.775  18.718  0.00  0.00    +0.000 A 
ATOM     26  C   UNL     1      -3.463  11.720  18.541  0.00  0.00    +0.000 A 
ATOM     27  C   UNL     1      -4.042  10.652  17.866  0.00  0.00    +0.000 A 
ATOM     28  C   UNL     1      -3.227   9.654  17.345  0.00  0.00    +0.000 A 
ATOM     29  C   UNL     1      -1.837   9.717  17.506  0.00  0.00    +0.000 A 
ATOM     30  C   UNL     1      -1.229  10.763  18.220  0.00  0.00    +0.000 A 
ATOM     31  C   UNL     1       0.267  10.809  18.626  0.00  0.00    +0.000 C 
ENDBRANCH  18  31
ENDBRANCH   1  18
TORSDOF 6
ENDMDL
MODEL 7
REMARK VINA RESULT:      -7.7      3.298      8.092
REMARK  Name = 
REMARK  7 active torsions:
REMARK  status: ('A' for Active; 'I' for Inactive)
REMARK    1  A    between atoms: C_1  and  C_2
REMARK    2  A    between atoms: C_13  and  C_14
REMARK    3  A    between atoms: C_14  and  C_15
REMARK    4  A    between atoms: N_17  and  C_18
REMARK    5  A    between atoms: C_24  and  O_25
REMARK    6  A    between atoms: O_25  and  C_26
REMARK    7  A    between atoms: C_26  and  C_27
REMARK                            x       y       z     vdW  Elec       q    Type
REMARK                         _______ _______ _______ _____ _____    ______ ____
ROOT
ATOM      1  C   UNL     1       1.227   8.958  19.854  0.00  0.00    +0.000 C 
ATOM      2  O   UNL     1       0.716   8.603  20.911  0.00  0.00    +0.000 OA
ATOM      3  N   UNL     1       2.072   8.178  19.070  0.00  0.00    +0.000 N 
ATOM      4  H   UNL     1       2.420   8.554  18.191  0.00  0.00    +0.000 HD
ENDROOT
BRANCH   3   5
ATOM      5  C   UNL     1       2.440   6.833  19.365  0.00  0.00    +0.000 A 
ATOM      6  C   UNL     1       1.706   6.075  20.293  0.00  0.00    +0.000 A 
ATOM      7  C   UNL     1       2.018   4.746  20.537  0.00  0.00    +0.000 A 
ATOM      8  F   UNL     1       1.253   4.036  21.376  0.00  0.00    +0.000 F 
ATOM      9  C   UNL     1       3.099   4.148  19.923  0.00  0.00    +0.000 A 
ATOM     10  C   UNL     1       3.876   4.893  19.038  0.00  0.00    +0.000 A 
ATOM     11  C   UNL     1       3.537   6.222  18.712  0.00  0.00    +0.000 A 
BRANCH  11  12
ATOM     12  O   UNL     1       4.205   6.943  17.741  0.00  0.00    +0.000 OA
BRANCH  12  13
ATOM     13  C   UNL     1       5.474   6.378  17.339  0.00  0.00    +0.000 C 
BRANCH  13  14
ATOM     14  C   UNL     1       5.490   5.824  15.919  0.00  0.00    +0.000 C 
ATOM     15  F   UNL     1       4.803   4.672  15.792  0.00  0.00    +0.000 F 
ATOM     16  F   UNL     1       4.950   6.721  15.056  0.00  0.00    +0.000 F 
ATOM     17  F   UNL     1       6.761   5.598  15.506  0.00  0.00    +0.000 F 
ENDBRANCH  13  14
ENDBRANCH  12  13
ENDBRANCH  11  12
ENDBRANCH   3   5
BRANCH   1  18
ATOM     18  C   UNL     1       0.955  10.344  19.308  0.00  0.00    +0.000 C 
BRANCH  18  31
ATOM     19  C   UNL     1       0.289  13.957  21.933  0.00  0.00    +0.000 C 
ATOM     20  C   UNL     1       0.538  12.761  21.036  0.00  0.00    +0.000 C 
ATOM     21  O   UNL     1       1.703  12.382  20.913  0.00  0.00    +0.000 OA
ATOM     22  N   UNL     1      -0.568  12.184  20.390  0.00  0.00    +0.000 N 
ATOM     23  C   UNL     1      -1.862  12.674  20.587  0.00  0.00    +0.000 C 
ATOM     24  C   UNL     1      -2.916  12.308  19.848  0.00  0.00    +0.000 C 
ATOM     25  C   UNL     1      -2.744  11.442  18.690  0.00  0.00    +0.000 A 
ATOM     26  C   UNL     1      -3.799  11.301  17.772  0.00  0.00    +0.000 A 
ATOM     27  C   UNL     1      -3.644  10.504  16.645  0.00  0.00    +0.000 A 
ATOM     28  C   UNL     1      -2.428   9.870  16.420  0.00  0.00    +0.000 A 
ATOM     29  C   UNL     1      -1.371  10.025  17.326  0.00  0.00    +0.000 A 
ATOM     30  C   UNL     1      -1.513  10.791  18.494  0.00  0.00    +0.000 A 
ATOM     31  C   UNL     1      -0.477  10.850  19.648  0.00  0.00    +0.000 C 
ENDBRANCH  18  31
ENDBRANCH   1  18
TORSDOF 6
ENDMDL
MODEL 8
REMARK VINA RESULT:      -7.6      1.102      1.387
REMARK  Name = 
REMARK  7 active torsions:
REMARK  status: ('A' for Active; 'I' for Inactive)
REMARK    1  A    between atoms: C_1  and  C_2
REMARK    2  A    between atoms: C_13  and  C_14
REMARK    3  A    between atoms: C_14  and  C_15
REMARK    4  A    between atoms: N_17  and  C_18
REMARK    5  A    between atoms: C_24  and  O_25
REMARK    6  A    between atoms: O_25  and  C_26
REMARK    7  A    between atoms: C_26  and  C_27
REMARK                            x       y       z     vdW  Elec       q    Type
REMARK                         _______ _______ _______ _____ _____    ______ ____
ROOT
ATOM      1  C   UNL     1       2.092   8.445  18.218  0.00  0.00    +0.000 C 
ATOM      2  O   UNL     1       2.304   8.874  17.089  0.00  0.00    +0.000 OA
ATOM      3  N   UNL     1       1.046   8.845  19.046  0.00  0.00    +0.000 N 
ATOM      4  H   UNL     1       0.938   8.404  19.956  0.00  0.00    +0.000 HD
ENDROOT
BRANCH   3   5
ATOM      5  C   UNL     1       0.042   9.790  18.684  0.00  0.00    +0.000 A 
ATOM      6  C   UNL     1      -0.744   9.598  17.536  0.00  0.00    +0.000 A 
ATOM      7  C   UNL     1      -1.766  10.479  17.214  0.00  0.00    +0.000 A 
ATOM      8  F   UNL     1      -2.539  10.226  16.150  0.00  0.00    +0.000 F 
ATOM      9  C   UNL     1      -1.997  11.605  17.977  0.00  0.00    +0.000 A 
ATOM     10  C   UNL     1      -1.197  11.846  19.092  0.00  0.00    +0.000 A 
ATOM     11  C   UNL     1      -0.202  10.929  19.488  0.00  0.00    +0.000 A 
BRANCH  11  12
ATOM     12  O   UNL     1       0.517  11.070  20.660  0.00  0.00    +0.000 OA
BRANCH  12  13
ATOM     13  C   UNL     1       0.115  12.192  21.479  0.00  0.00    +0.000 C 
BRANCH  13  14
ATOM     14  C   UNL     1      -0.853  11.831  22.602  0.00  0.00    +0.000 C 
ATOM     15  F   UNL     1      -0.489  10.726  23.280  0.00  0.00    +0.000 F 
ATOM     16  F   UNL     1      -0.942  12.849  23.493  0.00  0.00    +0.000 F 
ATOM     17  F   UNL     1      -2.099  11.626  22.112  0.00  0.00    +0.000 F 
ENDBRANCH  13  14
ENDBRANCH  12  13
ENDBRANCH  11  12
ENDBRANCH   3   5
BRANCH   1  18
ATOM     18  C   UNL     1       3.008   7.397  18.815  0.00  0.00    +0.000 C 
BRANCH  18  31
ATOM     19  C   UNL     1       6.085   5.878  15.882  0.00  0.00    +0.000 C 
ATOM     20  C   UNL     1       5.078   6.399  16.887  0.00  0.00    +0.000 C 
ATOM     21  O   UNL     1       5.235   7.549  17.296  0.00  0.00    +0.000 OA
ATOM     22  N   UNL     1       4.053   5.531  17.298  0.00  0.00    +0.000 N 
ATOM     23  C   UNL     1       3.944   4.238  16.780  0.00  0.00    +0.000 C 
ATOM     24  C   UNL     1       3.127   3.303  17.280  0.00  0.00    +0.000 C 
ATOM     25  C   UNL     1       2.372   3.554  18.500  0.00  0.00    +0.000 A 
ATOM     26  C   UNL     1       1.750   2.480  19.159  0.00  0.00    +0.000 A 
ATOM     27  C   UNL     1       1.051   2.694  20.340  0.00  0.00    +0.000 A 
ATOM     28  C   UNL     1       0.997   3.974  20.877  0.00  0.00    +0.000 A 
ATOM     29  C   UNL     1       1.631   5.042  20.230  0.00  0.00    +0.000 A 
ATOM     30  C   UNL     1       2.310   4.862  19.013  0.00  0.00    +0.000 A 
ATOM     31  C   UNL     1       2.859   6.010  18.125  0.00  0.00    +0.000 C 
ENDBRANCH  18  31
ENDBRANCH   1  18
TORSDOF 6
ENDMDL
MODEL 9
REMARK VINA RESULT:      -7.6      3.284      7.753
REMARK  Name = 
REMARK  7 active torsions:
REMARK  status: ('A' for Active; 'I' for Inactive)
REMARK    1  A    between atoms: C_1  and  C_2
REMARK    2  A    between atoms: C_13  and  C_14
REMARK    3  A    between atoms: C_14  and  C_15
REMARK    4  A    between atoms: N_17  and  C_18
REMARK    5  A    between atoms: C_24  and  O_25
REMARK    6  A    between atoms: O_25  and  C_26
REMARK    7  A    between atoms: C_26  and  C_27
REMARK                            x       y       z     vdW  Elec       q    Type
REMARK                         _______ _______ _______ _____ _____    ______ ____
ROOT
ATOM      1  C   UNL     1       1.659   8.708  18.921  0.00  0.00    +0.000 C 
ATOM      2  O   UNL     1       1.426   8.785  20.123  0.00  0.00    +0.000 OA
ATOM      3  N   UNL     1       2.225   7.608  18.282  0.00  0.00    +0.000 N 
ATOM      4  H   UNL     1       2.349   7.630  17.273  0.00  0.00    +0.000 HD
ENDROOT
BRANCH   3   5
ATOM      5  C   UNL     1       2.586   6.391  18.931  0.00  0.00    +0.000 A 
ATOM      6  C   UNL     1       1.652   5.689  19.711  0.00  0.00    +0.000 A 
ATOM      7  C   UNL     1       1.976   4.472  20.292  0.00  0.00    +0.000 A 
ATOM      8  F   UNL     1       1.038   3.799  20.971  0.00  0.00    +0.000 F 
ATOM      9  C   UNL     1       3.245   3.946  20.172  0.00  0.00    +0.000 A 
ATOM     10  C   UNL     1       4.205   4.647  19.446  0.00  0.00    +0.000 A 
ATOM     11  C   UNL     1       3.884   5.848  18.781  0.00  0.00    +0.000 A 
BRANCH  11  12
ATOM     12  O   UNL     1       4.773   6.498  17.946  0.00  0.00    +0.000 OA
BRANCH  12  13
ATOM     13  C   UNL     1       6.101   5.926  17.922  0.00  0.00    +0.000 C 
BRANCH  13  14
ATOM     14  C   UNL     1       7.205   6.925  17.590  0.00  0.00    +0.000 C 
ATOM     15  F   UNL     1       6.777   8.202  17.571  0.00  0.00    +0.000 F 
ATOM     16  F   UNL     1       8.205   6.843  18.503  0.00  0.00    +0.000 F 
ATOM     17  F   UNL     1       7.752   6.652  16.381  0.00  0.00    +0.000 F 
ENDBRANCH  13  14
ENDBRANCH  12  13
ENDBRANCH  11  12
ENDBRANCH   3   5
BRANCH   1  18
ATOM     18  C   UNL     1       1.327   9.870  18.009  0.00  0.00    +0.000 C 
BRANCH  18  31
ATOM     19  C   UNL     1       2.593  14.147  18.707  0.00  0.00    +0.000 C 
ATOM     20  C   UNL     1       2.182  12.712  18.442  0.00  0.00    +0.000 C 
ATOM     21  O   UNL     1       3.045  11.952  18.002  0.00  0.00    +0.000 OA
ATOM     22  N   UNL     1       0.847  12.355  18.692  0.00  0.00    +0.000 N 
ATOM     23  C   UNL     1      -0.071  13.281  19.195  0.00  0.00    +0.000 C 
ATOM     24  C   UNL     1      -1.390  13.063  19.255  0.00  0.00    +0.000 C 
ATOM     25  C   UNL     1      -1.970  11.861  18.672  0.00  0.00    +0.000 A 
ATOM     26  C   UNL     1      -3.361  11.784  18.492  0.00  0.00    +0.000 A 
ATOM     27  C   UNL     1      -3.931  10.659  17.909  0.00  0.00    +0.000 A 
ATOM     28  C   UNL     1      -3.109   9.623  17.483  0.00  0.00    +0.000 A 
ATOM     29  C   UNL     1      -1.720   9.707  17.646  0.00  0.00    +0.000 A 
ATOM     30  C   UNL     1      -1.121  10.814  18.269  0.00  0.00    +0.000 A 
ATOM     31  C   UNL     1       0.373  10.902  18.678  0.00  0.00    +0.000 C 
ENDBRANCH  18  31
ENDBRANCH   1  18
TORSDOF 6
ENDMDL
