MODEL 1
REMARK VINA RESULT:      -8.8      0.000      0.000
REMARK  Name = 
REMARK  6 active torsions:
REMARK  status: ('A' for Active; 'I' for Inactive)
REMARK    1  A    between atoms: C_2  and  C_5
REMARK    2  A    between atoms: C_5  and  C_6
REMARK    3  A    between atoms: C_10  and  N_11
REMARK    4  A    between atoms: N_11  and  C_12
REMARK    5  A    between atoms: C_12  and  C_13
REMARK    6  A    between atoms: C_16  and  C_17
REMARK                            x       y       z     vdW  Elec       q    Type
REMARK                         _______ _______ _______ _____ _____    ______ ____
ROOT
ATOM      1  C   UNL     1       7.884   7.244  18.213  0.00  0.00    +0.000 A 
ATOM      2  N   UNL     1       7.405   7.780  17.081  0.00  0.00    +0.000 NA
ATOM      3  O   UNL     1       7.780   9.126  17.173  0.00  0.00    +0.000 OA
ATOM      4  C   UNL     1       8.456   9.266  18.355  0.00  0.00    +0.000 A 
ATOM      5  N   UNL     1       8.549   8.138  19.028  0.00  0.00    +0.000 NA
ENDROOT
BRANCH   4   6
ATOM      6  C   UNL     1       9.090  10.590  18.645  0.00  0.00    +0.000 C 
ATOM      7  C   UNL     1       9.558  10.647  20.106  0.00  0.00    +0.000 C 
ATOM      8  O   UNL     1      10.620  11.556  20.415  0.00  0.00    +0.000 OA
ATOM      9  C   UNL     1      11.048  12.304  19.360  0.00  0.00    +0.000 A 
ATOM     10  C   UNL     1      11.766  13.458  19.666  0.00  0.00    +0.000 A 
ATOM     11  C   UNL     1      12.188  14.305  18.641  0.00  0.00    +0.000 A 
ATOM     12  C   UNL     1      11.922  13.976  17.312  0.00  0.00    +0.000 A 
ATOM     13  C   UNL     1      11.249  12.789  17.004  0.00  0.00    +0.000 A 
ATOM     14  C   UNL     1      10.804  11.962  18.033  0.00  0.00    +0.000 A 
ATOM     15  O   UNL     1      10.144  10.808  17.699  0.00  0.00    +0.000 OA
ENDBRANCH   4   6
BRANCH   1  16
ATOM     16  C   UNL     1       7.863   5.760  18.495  0.00  0.00    +0.000 C 
BRANCH  16  17
ATOM     17  N   UNL     1       6.783   5.204  19.332  0.00  0.00    +0.000 N 
ATOM     18  H   UNL     1       6.652   5.755  20.177  0.00  0.00    +0.000 HD
BRANCH  17  23
ATOM     19  C   UNL     1       3.145   4.458  18.963  0.00  0.00    +0.000 A 
ATOM     20  C   UNL     1       3.078   4.074  17.621  0.00  0.00    +0.000 A 
ATOM     21  C   UNL     1       4.225   4.053  16.842  0.00  0.00    +0.000 A 
ATOM     22  C   UNL     1       5.455   4.438  17.393  0.00  0.00    +0.000 A 
ATOM     23  C   UNL     1       5.559   4.882  18.717  0.00  0.00    +0.000 A 
ATOM     24  C   UNL     1       4.389   4.848  19.500  0.00  0.00    +0.000 A 
BRANCH  19  25
ATOM     25  C   UNL     1       1.894   4.450  19.810  0.00  0.00    +0.000 C 
BRANCH  25  27
ATOM     26  F   UNL     1       2.529   2.254  20.564  0.00  0.00    +0.000 F 
ATOM     27  C   UNL     1       1.843   3.371  20.884  0.00  0.00    +0.000 C 
ATOM     28  F   UNL     1       0.563   3.002  21.125  0.00  0.00    +0.000 F 
ATOM     29  F   UNL     1       2.350   3.834  22.052  0.00  0.00    +0.000 F 
ENDBRANCH  25  27
ENDBRANCH  19  25
ENDBRANCH  17  23
ENDBRANCH  16  17
ENDBRANCH   1  16
TORSDOF 6
ENDMDL
MODEL 2
REMARK VINA RESULT:      -8.6      1.546      2.064
REMARK  Name = 
REMARK  6 active torsions:
REMARK  status: ('A' for Active; 'I' for Inactive)
REMARK    1  A    between atoms: C_2  and  C_5
REMARK    2  A    between atoms: C_5  and  C_6
REMARK    3  A    between atoms: C_10  and  N_11
REMARK    4  A    between atoms: N_11  and  C_12
REMARK    5  A    between atoms: C_12  and  C_13
REMARK    6  A    between atoms: C_16  and  C_17
REMARK                            x       y       z     vdW  Elec       q    Type
REMARK                         _______ _______ _______ _____ _____    ______ ____
ROOT
ATOM      1  C   UNL     1       7.668   7.351  17.550  0.00  0.00    +0.000 A 
ATOM      2  N   UNL     1       8.232   6.974  18.708  0.00  0.00    +0.000 NA
ATOM      3  O   UNL     1       8.821   8.152  19.183  0.00  0.00    +0.000 OA
ATOM      4  C   UNL     1       8.546   9.128  18.263  0.00  0.00    +0.000 A 
ATOM      5  N   UNL     1       7.839   8.687  17.245  0.00  0.00    +0.000 NA
ENDROOT
BRANCH   4   6
ATOM      6  C   UNL     1       8.949  10.531  18.592  0.00  0.00    +0.000 C 
ATOM      7  C   UNL     1       9.325  10.642  20.077  0.00  0.00    +0.000 C 
ATOM      8  O   UNL     1      10.213  11.702  20.446  0.00  0.00    +0.000 OA
ATOM      9  C   UNL     1      10.574  12.521  19.419  0.00  0.00    +0.000 A 
ATOM     10  C   UNL     1      11.085  13.770  19.767  0.00  0.00    +0.000 A 
ATOM     11  C   UNL     1      11.423  14.685  18.770  0.00  0.00    +0.000 A 
ATOM     12  C   UNL     1      11.282  14.334  17.427  0.00  0.00    +0.000 A 
ATOM     13  C   UNL     1      10.821  13.060  17.079  0.00  0.00    +0.000 A 
ATOM     14  C   UNL     1      10.457  12.161  18.079  0.00  0.00    +0.000 A 
ATOM     15  O   UNL     1      10.004  10.922  17.705  0.00  0.00    +0.000 OA
ENDBRANCH   4   6
BRANCH   1  16
ATOM     16  C   UNL     1       6.770   6.448  16.739  0.00  0.00    +0.000 C 
BRANCH  16  17
ATOM     17  N   UNL     1       5.397   6.892  16.431  0.00  0.00    +0.000 N 
ATOM     18  H   UNL     1       5.231   6.905  15.427  0.00  0.00    +0.000 HD
BRANCH  17  23
ATOM     19  C   UNL     1       3.015   4.276  17.620  0.00  0.00    +0.000 A 
ATOM     20  C   UNL     1       2.111   5.043  18.358  0.00  0.00    +0.000 A 
ATOM     21  C   UNL     1       2.277   6.416  18.458  0.00  0.00    +0.000 A 
ATOM     22  C   UNL     1       3.369   7.038  17.837  0.00  0.00    +0.000 A 
ATOM     23  C   UNL     1       4.330   6.301  17.134  0.00  0.00    +0.000 A 
ATOM     24  C   UNL     1       4.111   4.916  17.006  0.00  0.00    +0.000 A 
BRANCH  19  25
ATOM     25  C   UNL     1       2.808   2.785  17.494  0.00  0.00    +0.000 C 
BRANCH  25  27
ATOM     26  F   UNL     1       3.754   0.766  18.404  0.00  0.00    +0.000 F 
ATOM     27  C   UNL     1       3.219   1.966  18.712  0.00  0.00    +0.000 C 
ATOM     28  F   UNL     1       2.151   1.738  19.512  0.00  0.00    +0.000 F 
ATOM     29  F   UNL     1       4.134   2.638  19.452  0.00  0.00    +0.000 F 
ENDBRANCH  25  27
ENDBRANCH  19  25
ENDBRANCH  17  23
ENDBRANCH  16  17
ENDBRANCH   1  16
TORSDOF 6
ENDMDL
MODEL 3
REMARK VINA RESULT:      -8.3      4.252      9.902
REMARK  Name = 
REMARK  6 active torsions:
REMARK  status: ('A' for Active; 'I' for Inactive)
REMARK    1  A    between atoms: C_2  and  C_5
REMARK    2  A    between atoms: C_5  and  C_6
REMARK    3  A    between atoms: C_10  and  N_11
REMARK    4  A    between atoms: N_11  and  C_12
REMARK    5  A    between atoms: C_12  and  C_13
REMARK    6  A    between atoms: C_16  and  C_17
REMARK                            x       y       z     vdW  Elec       q    Type
REMARK                         _______ _______ _______ _____ _____    ______ ____
ROOT
ATOM      1  C   UNL     1       7.266   7.394  17.389  0.00  0.00    +0.000 A 
ATOM      2  N   UNL     1       7.629   6.484  16.473  0.00  0.00    +0.000 NA
ATOM      3  O   UNL     1       6.592   5.544  16.519  0.00  0.00    +0.000 OA
ATOM      4  C   UNL     1       5.700   5.988  17.457  0.00  0.00    +0.000 A 
ATOM      5  N   UNL     1       6.068   7.121  18.017  0.00  0.00    +0.000 NA
ENDROOT
BRANCH   4   6
ATOM      6  C   UNL     1       4.417   5.233  17.615  0.00  0.00    +0.000 C 
ATOM      7  C   UNL     1       4.514   3.869  16.916  0.00  0.00    +0.000 C 
ATOM      8  O   UNL     1       3.649   2.832  17.390  0.00  0.00    +0.000 OA
ATOM      9  C   UNL     1       2.800   3.215  18.385  0.00  0.00    +0.000 A 
ATOM     10  C   UNL     1       1.688   2.403  18.602  0.00  0.00    +0.000 A 
ATOM     11  C   UNL     1       0.744   2.761  19.565  0.00  0.00    +0.000 A 
ATOM     12  C   UNL     1       0.934   3.911  20.332  0.00  0.00    +0.000 A 
ATOM     13  C   UNL     1       2.079   4.694  20.151  0.00  0.00    +0.000 A 
ATOM     14  C   UNL     1       3.003   4.348  19.167  0.00  0.00    +0.000 A 
ATOM     15  O   UNL     1       4.112   5.139  19.011  0.00  0.00    +0.000 OA
ENDBRANCH   4   6
BRANCH   1  16
ATOM     16  C   UNL     1       8.002   8.698  17.590  0.00  0.00    +0.000 C 
BRANCH  16  17
ATOM     17  N   UNL     1       8.804   8.887  18.814  0.00  0.00    +0.000 N 
ATOM     18  H   UNL     1       9.513   8.164  18.904  0.00  0.00    +0.000 HD
BRANCH  17  23
ATOM     19  C   UNL     1       9.600  12.011  20.694  0.00  0.00    +0.000 A 
ATOM     20  C   UNL     1      10.157  12.804  19.688  0.00  0.00    +0.000 A 
ATOM     21  C   UNL     1      10.264  12.317  18.394  0.00  0.00    +0.000 A 
ATOM     22  C   UNL     1       9.833  11.016  18.095  0.00  0.00    +0.000 A 
ATOM     23  C   UNL     1       9.319  10.169  19.084  0.00  0.00    +0.000 A 
ATOM     24  C   UNL     1       9.176  10.704  20.379  0.00  0.00    +0.000 A 
BRANCH  19  25
ATOM     25  C   UNL     1       9.462  12.562  22.094  0.00  0.00    +0.000 C 
BRANCH  25  27
ATOM     26  F   UNL     1       7.994  13.717  23.613  0.00  0.00    +0.000 F 
ATOM     27  C   UNL     1       8.047  12.951  22.503  0.00  0.00    +0.000 C 
ATOM     28  F   UNL     1       7.301  11.846  22.740  0.00  0.00    +0.000 F 
ATOM     29  F   UNL     1       7.434  13.639  21.510  0.00  0.00    +0.000 F 
ENDBRANCH  25  27
ENDBRANCH  19  25
ENDBRANCH  17  23
ENDBRANCH  16  17
ENDBRANCH   1  16
TORSDOF 6
ENDMDL
MODEL 4
REMARK VINA RESULT:      -8.3      1.093      1.341
REMARK  Name = 
REMARK  6 active torsions:
REMARK  status: ('A' for Active; 'I' for Inactive)
REMARK    1  A    between atoms: C_2  and  C_5
REMARK    2  A    between atoms: C_5  and  C_6
REMARK    3  A    between atoms: C_10  and  N_11
REMARK    4  A    between atoms: N_11  and  C_12
REMARK    5  A    between atoms: C_12  and  C_13
REMARK    6  A    between atoms: C_16  and  C_17
REMARK                            x       y       z     vdW  Elec       q    Type
REMARK                         _______ _______ _______ _____ _____    ______ ____
ROOT
ATOM      1  C   UNL     1       7.477   7.558  17.602  0.00  0.00    +0.000 A 
ATOM      2  N   UNL     1       8.197   7.088  18.632  0.00  0.00    +0.000 NA
ATOM      3  O   UNL     1       8.905   8.212  19.075  0.00  0.00    +0.000 OA
ATOM      4  C   UNL     1       8.533   9.253  18.268  0.00  0.00    +0.000 A 
ATOM      5  N   UNL     1       7.656   8.903  17.351  0.00  0.00    +0.000 NA
ENDROOT
BRANCH   4   6
ATOM      6  C   UNL     1       9.044  10.619  18.610  0.00  0.00    +0.000 C 
ATOM      7  C   UNL     1       9.444  10.682  20.091  0.00  0.00    +0.000 C 
ATOM      8  O   UNL     1      10.413  11.667  20.462  0.00  0.00    +0.000 OA
ATOM      9  C   UNL     1      10.822  12.470  19.440  0.00  0.00    +0.000 A 
ATOM     10  C   UNL     1      11.430  13.672  19.798  0.00  0.00    +0.000 A 
ATOM     11  C   UNL     1      11.824  14.572  18.808  0.00  0.00    +0.000 A 
ATOM     12  C   UNL     1      11.642  14.251  17.462  0.00  0.00    +0.000 A 
ATOM     13  C   UNL     1      11.083  13.020  17.104  0.00  0.00    +0.000 A 
ATOM     14  C   UNL     1      10.663  12.138  18.098  0.00  0.00    +0.000 A 
ATOM     15  O   UNL     1      10.115  10.941  17.715  0.00  0.00    +0.000 OA
ENDBRANCH   4   6
BRANCH   1  16
ATOM     16  C   UNL     1       6.424   6.740  16.893  0.00  0.00    +0.000 C 
BRANCH  16  17
ATOM     17  N   UNL     1       5.009   6.899  17.282  0.00  0.00    +0.000 N 
ATOM     18  H   UNL     1       4.544   7.591  16.700  0.00  0.00    +0.000 HD
BRANCH  17  23
ATOM     19  C   UNL     1       2.698   4.443  18.880  0.00  0.00    +0.000 A 
ATOM     20  C   UNL     1       2.761   3.378  17.978  0.00  0.00    +0.000 A 
ATOM     21  C   UNL     1       3.568   3.463  16.853  0.00  0.00    +0.000 A 
ATOM     22  C   UNL     1       4.306   4.628  16.604  0.00  0.00    +0.000 A 
ATOM     23  C   UNL     1       4.228   5.740  17.451  0.00  0.00    +0.000 A 
ATOM     24  C   UNL     1       3.441   5.611  18.612  0.00  0.00    +0.000 A 
BRANCH  19  25
ATOM     25  C   UNL     1       1.838   4.329  20.117  0.00  0.00    +0.000 C 
BRANCH  25  27
ATOM     26  F   UNL     1       1.432   2.086  20.889  0.00  0.00    +0.000 F 
ATOM     27  C   UNL     1       2.198   3.184  21.055  0.00  0.00    +0.000 C 
ATOM     28  F   UNL     1       2.072   3.571  22.347  0.00  0.00    +0.000 F 
ATOM     29  F   UNL     1       3.487   2.807  20.877  0.00  0.00    +0.000 F 
ENDBRANCH  25  27
ENDBRANCH  19  25
ENDBRANCH  17  23
ENDBRANCH  16  17
ENDBRANCH   1  16
TORSDOF 6
ENDMDL
MODEL 5
REMARK VINA RESULT:      -8.3      0.943      1.250
REMARK  Name = 
REMARK  6 active torsions:
REMARK  status: ('A' for Active; 'I' for Inactive)
REMARK    1  A    between atoms: C_2  and  C_5
REMARK    2  A    between atoms: C_5  and  C_6
REMARK    3  A    between atoms: C_10  and  N_11
REMARK    4  A    between atoms: N_11  and  C_12
REMARK    5  A    between atoms: C_12  and  C_13
REMARK    6  A    between atoms: C_16  and  C_17
REMARK                            x       y       z     vdW  Elec       q    Type
REMARK                         _______ _______ _______ _____ _____    ______ ____
ROOT
ATOM      1  C   UNL     1       7.771   7.200  18.099  0.00  0.00    +0.000 A 
ATOM      2  N   UNL     1       7.511   7.704  16.883  0.00  0.00    +0.000 NA
ATOM      3  O   UNL     1       7.932   9.036  16.986  0.00  0.00    +0.000 OA
ATOM      4  C   UNL     1       8.412   9.199  18.257  0.00  0.00    +0.000 A 
ATOM      5  N   UNL     1       8.338   8.100  18.978  0.00  0.00    +0.000 NA
ENDROOT
BRANCH   4   6
ATOM      6  C   UNL     1       9.055  10.507  18.598  0.00  0.00    +0.000 C 
ATOM      7  C   UNL     1       9.441  10.539  20.083  0.00  0.00    +0.000 C 
ATOM      8  O   UNL     1      10.501  11.422  20.462  0.00  0.00    +0.000 OA
ATOM      9  C   UNL     1      11.003  12.173  19.441  0.00  0.00    +0.000 A 
ATOM     10  C   UNL     1      11.726  13.309  19.801  0.00  0.00    +0.000 A 
ATOM     11  C   UNL     1      12.223  14.157  18.811  0.00  0.00    +0.000 A 
ATOM     12  C   UNL     1      12.026  13.847  17.465  0.00  0.00    +0.000 A 
ATOM     13  C   UNL     1      11.348  12.677  17.106  0.00  0.00    +0.000 A 
ATOM     14  C   UNL     1      10.828  11.849  18.099  0.00  0.00    +0.000 A 
ATOM     15  O   UNL     1      10.165  10.713  17.715  0.00  0.00    +0.000 OA
ENDBRANCH   4   6
BRANCH   1  16
ATOM     16  C   UNL     1       7.631   5.732  18.429  0.00  0.00    +0.000 C 
BRANCH  16  17
ATOM     17  N   UNL     1       6.442   5.000  17.952  0.00  0.00    +0.000 N 
ATOM     18  H   UNL     1       6.548   3.998  18.091  0.00  0.00    +0.000 HD
BRANCH  17  23
ATOM     19  C   UNL     1       3.221   5.183  19.827  0.00  0.00    +0.000 A 
ATOM     20  C   UNL     1       2.545   6.177  19.116  0.00  0.00    +0.000 A 
ATOM     21  C   UNL     1       3.141   6.779  18.018  0.00  0.00    +0.000 A 
ATOM     22  C   UNL     1       4.437   6.408  17.631  0.00  0.00    +0.000 A 
ATOM     23  C   UNL     1       5.172   5.457  18.349  0.00  0.00    +0.000 A 
ATOM     24  C   UNL     1       4.526   4.826  19.429  0.00  0.00    +0.000 A 
BRANCH  19  25
ATOM     25  C   UNL     1       2.551   4.514  21.004  0.00  0.00    +0.000 C 
BRANCH  25  27
ATOM     26  F   UNL     1       1.118   2.707  21.696  0.00  0.00    +0.000 F 
ATOM     27  C   UNL     1       1.512   3.458  20.647  0.00  0.00    +0.000 C 
ATOM     28  F   UNL     1       1.998   2.614  19.706  0.00  0.00    +0.000 F 
ATOM     29  F   UNL     1       0.402   4.037  20.126  0.00  0.00    +0.000 F 
ENDBRANCH  25  27
ENDBRANCH  19  25
ENDBRANCH  17  23
ENDBRANCH  16  17
ENDBRANCH   1  16
TORSDOF 6
ENDMDL
MODEL 6
REMARK VINA RESULT:      -8.2      5.263     10.533
REMARK  Name = 
REMARK  6 active torsions:
REMARK  status: ('A' for Active; 'I' for Inactive)
REMARK    1  A    between atoms: C_2  and  C_5
REMARK    2  A    between atoms: C_5  and  C_6
REMARK    3  A    between atoms: C_10  and  N_11
REMARK    4  A    between atoms: N_11  and  C_12
REMARK    5  A    between atoms: C_12  and  C_13
REMARK    6  A    between atoms: C_16  and  C_17
REMARK                            x       y       z     vdW  Elec       q    Type
REMARK                         _______ _______ _______ _____ _____    ______ ____
ROOT
ATOM      1  C   UNL     1       7.472   7.491  17.547  0.00  0.00    +0.000 A 
ATOM      2  N   UNL     1       7.629   6.767  16.429  0.00  0.00    +0.000 NA
ATOM      3  O   UNL     1       6.665   5.758  16.556  0.00  0.00    +0.000 OA
ATOM      4  C   UNL     1       6.017   5.981  17.740  0.00  0.00    +0.000 A 
ATOM      5  N   UNL     1       6.473   7.035  18.384  0.00  0.00    +0.000 NA
ENDROOT
BRANCH   4   6
ATOM      6  C   UNL     1       4.836   5.119  18.063  0.00  0.00    +0.000 C 
ATOM      7  C   UNL     1       5.261   3.647  18.150  0.00  0.00    +0.000 C 
ATOM      8  O   UNL     1       4.446   2.779  18.944  0.00  0.00    +0.000 OA
ATOM      9  C   UNL     1       3.348   3.376  19.487  0.00  0.00    +0.000 A 
ATOM     10  C   UNL     1       2.326   2.530  19.914  0.00  0.00    +0.000 A 
ATOM     11  C   UNL     1       1.147   3.071  20.428  0.00  0.00    +0.000 A 
ATOM     12  C   UNL     1       1.009   4.454  20.547  0.00  0.00    +0.000 A 
ATOM     13  C   UNL     1       2.057   5.299  20.169  0.00  0.00    +0.000 A 
ATOM     14  C   UNL     1       3.221   4.755  19.629  0.00  0.00    +0.000 A 
ATOM     15  O   UNL     1       4.228   5.610  19.264  0.00  0.00    +0.000 OA
ENDBRANCH   4   6
BRANCH   1  16
ATOM     16  C   UNL     1       8.192   8.797  17.791  0.00  0.00    +0.000 C 
BRANCH  16  17
ATOM     17  N   UNL     1       8.920   8.988  19.060  0.00  0.00    +0.000 N 
ATOM     18  H   UNL     1       9.648   8.287  19.175  0.00  0.00    +0.000 HD
BRANCH  17  23
ATOM     19  C   UNL     1      10.594  12.301  18.672  0.00  0.00    +0.000 A 
ATOM     20  C   UNL     1      10.491  12.815  19.967  0.00  0.00    +0.000 A 
ATOM     21  C   UNL     1       9.881  12.072  20.966  0.00  0.00    +0.000 A 
ATOM     22  C   UNL     1       9.344  10.810  20.676  0.00  0.00    +0.000 A 
ATOM     23  C   UNL     1       9.376  10.281  19.380  0.00  0.00    +0.000 A 
ATOM     24  C   UNL     1      10.044  11.033  18.394  0.00  0.00    +0.000 A 
BRANCH  19  25
ATOM     25  C   UNL     1      11.286  13.106  17.597  0.00  0.00    +0.000 C 
BRANCH  25  27
ATOM     26  F   UNL     1      11.112  15.113  16.278  0.00  0.00    +0.000 F 
ATOM     27  C   UNL     1      10.827  14.554  17.473  0.00  0.00    +0.000 C 
ATOM     28  F   UNL     1      11.409  15.320  18.425  0.00  0.00    +0.000 F 
ATOM     29  F   UNL     1       9.487  14.647  17.651  0.00  0.00    +0.000 F 
ENDBRANCH  25  27
ENDBRANCH  19  25
ENDBRANCH  17  23
ENDBRANCH  16  17
ENDBRANCH   1  16
TORSDOF 6
ENDMDL
MODEL 7
REMARK VINA RESULT:      -8.2      2.171      2.805
REMARK  Name = 
REMARK  6 active torsions:
REMARK  status: ('A' for Active; 'I' for Inactive)
REMARK    1  A    between atoms: C_2  and  C_5
REMARK    2  A    between atoms: C_5  and  C_6
REMARK    3  A    between atoms: C_10  and  N_11
REMARK    4  A    between atoms: N_11  and  C_12
REMARK    5  A    between atoms: C_12  and  C_13
REMARK    6  A    between atoms: C_16  and  C_17
REMARK                            x       y       z     vdW  Elec       q    Type
REMARK                         _______ _______ _______ _____ _____    ______ ____
ROOT
ATOM      1  C   UNL     1       7.766   7.596  17.625  0.00  0.00    +0.000 A 
ATOM      2  N   UNL     1       8.416   7.340  18.771  0.00  0.00    +0.000 NA
ATOM      3  O   UNL     1       8.917   8.592  19.148  0.00  0.00    +0.000 OA
ATOM      4  C   UNL     1       8.512   9.482  18.191  0.00  0.00    +0.000 A 
ATOM      5  N   UNL     1       7.800   8.920  17.237  0.00  0.00    +0.000 NA
ENDROOT
BRANCH   4   6
ATOM      6  C   UNL     1       8.801  10.933  18.419  0.00  0.00    +0.000 C 
ATOM      7  C   UNL     1      10.300  11.212  18.237  0.00  0.00    +0.000 C 
ATOM      8  O   UNL     1      10.676  12.547  17.887  0.00  0.00    +0.000 OA
ATOM      9  C   UNL     1       9.637  13.426  17.812  0.00  0.00    +0.000 A 
ATOM     10  C   UNL     1       9.960  14.780  17.880  0.00  0.00    +0.000 A 
ATOM     11  C   UNL     1       8.945  15.737  17.866  0.00  0.00    +0.000 A 
ATOM     12  C   UNL     1       7.613  15.338  17.748  0.00  0.00    +0.000 A 
ATOM     13  C   UNL     1       7.296  13.981  17.624  0.00  0.00    +0.000 A 
ATOM     14  C   UNL     1       8.311  13.028  17.668  0.00  0.00    +0.000 A 
ATOM     15  O   UNL     1       7.967  11.707  17.549  0.00  0.00    +0.000 OA
ENDBRANCH   4   6
BRANCH   1  16
ATOM     16  C   UNL     1       6.916   6.570  16.914  0.00  0.00    +0.000 C 
BRANCH  16  17
ATOM     17  N   UNL     1       5.559   6.944  16.473  0.00  0.00    +0.000 N 
ATOM     18  H   UNL     1       5.472   6.888  15.461  0.00  0.00    +0.000 HD
BRANCH  17  23
ATOM     19  C   UNL     1       3.115   4.345  17.570  0.00  0.00    +0.000 A 
ATOM     20  C   UNL     1       2.180   5.121  18.259  0.00  0.00    +0.000 A 
ATOM     21  C   UNL     1       2.347   6.494  18.356  0.00  0.00    +0.000 A 
ATOM     22  C   UNL     1       3.468   7.108  17.782  0.00  0.00    +0.000 A 
ATOM     23  C   UNL     1       4.458   6.363  17.130  0.00  0.00    +0.000 A 
ATOM     24  C   UNL     1       4.241   4.977  17.003  0.00  0.00    +0.000 A 
BRANCH  19  25
ATOM     25  C   UNL     1       2.909   2.854  17.446  0.00  0.00    +0.000 C 
BRANCH  25  27
ATOM     26  F   UNL     1       2.160   1.819  19.487  0.00  0.00    +0.000 F 
ATOM     27  C   UNL     1       3.231   2.047  18.697  0.00  0.00    +0.000 C 
ATOM     28  F   UNL     1       4.157   2.687  19.450  0.00  0.00    +0.000 F 
ATOM     29  F   UNL     1       3.752   0.840  18.367  0.00  0.00    +0.000 F 
ENDBRANCH  25  27
ENDBRANCH  19  25
ENDBRANCH  17  23
ENDBRANCH  16  17
ENDBRANCH   1  16
TORSDOF 6
ENDMDL
MODEL 8
REMARK VINA RESULT:      -8.2      6.010      8.387
REMARK  Name = 
REMARK  6 active torsions:
REMARK  status: ('A' for Active; 'I' for Inactive)
REMARK    1  A    between atoms: C_2  and  C_5
REMARK    2  A    between atoms: C_5  and  C_6
REMARK    3  A    between atoms: C_10  and  N_11
REMARK    4  A    between atoms: N_11  and  C_12
REMARK    5  A    between atoms: C_12  and  C_13
REMARK    6  A    between atoms: C_16  and  C_17
REMARK                            x       y       z     vdW  Elec       q    Type
REMARK                         _______ _______ _______ _____ _____    ______ ____
ROOT
ATOM      1  C   UNL     1       2.898   5.787  19.245  0.00  0.00    +0.000 A 
ATOM      2  N   UNL     1       3.887   5.023  19.730  0.00  0.00    +0.000 NA
ATOM      3  O   UNL     1       4.725   4.832  18.624  0.00  0.00    +0.000 OA
ATOM      4  C   UNL     1       4.157   5.510  17.580  0.00  0.00    +0.000 A 
ATOM      5  N   UNL     1       3.036   6.115  17.911  0.00  0.00    +0.000 NA
ENDROOT
BRANCH   4   6
ATOM      6  C   UNL     1       4.923   5.585  16.296  0.00  0.00    +0.000 C 
ATOM      7  C   UNL     1       6.338   6.121  16.552  0.00  0.00    +0.000 C 
ATOM      8  O   UNL     1       7.350   5.768  15.603  0.00  0.00    +0.000 OA
ATOM      9  C   UNL     1       6.902   5.031  14.547  0.00  0.00    +0.000 A 
ATOM     10  C   UNL     1       7.716   5.004  13.417  0.00  0.00    +0.000 A 
ATOM     11  C   UNL     1       7.298   4.318  12.277  0.00  0.00    +0.000 A 
ATOM     12  C   UNL     1       6.084   3.631  12.284  0.00  0.00    +0.000 A 
ATOM     13  C   UNL     1       5.294   3.614  13.438  0.00  0.00    +0.000 A 
ATOM     14  C   UNL     1       5.702   4.325  14.564  0.00  0.00    +0.000 A 
ATOM     15  O   UNL     1       4.904   4.292  15.678  0.00  0.00    +0.000 OA
ENDBRANCH   4   6
BRANCH   1  16
ATOM     16  C   UNL     1       1.822   6.393  20.116  0.00  0.00    +0.000 C 
BRANCH  16  17
ATOM     17  N   UNL     1       2.121   7.624  20.872  0.00  0.00    +0.000 N 
ATOM     18  H   UNL     1       3.034   7.997  20.622  0.00  0.00    +0.000 HD
BRANCH  17  23
ATOM     19  C   UNL     1      -0.136  10.373  19.742  0.00  0.00    +0.000 A 
ATOM     20  C   UNL     1      -0.695  10.786  20.954  0.00  0.00    +0.000 A 
ATOM     21  C   UNL     1      -0.325  10.170  22.140  0.00  0.00    +0.000 A 
ATOM     22  C   UNL     1       0.596   9.112  22.124  0.00  0.00    +0.000 A 
ATOM     23  C   UNL     1       1.137   8.630  20.927  0.00  0.00    +0.000 A 
ATOM     24  C   UNL     1       0.784   9.304  19.743  0.00  0.00    +0.000 A 
BRANCH  19  25
ATOM     25  C   UNL     1      -0.525  11.070  18.459  0.00  0.00    +0.000 C 
BRANCH  25  27
ATOM     26  F   UNL     1      -2.752  11.550  17.681  0.00  0.00    +0.000 F 
ATOM     27  C   UNL     1      -1.821  10.584  17.822  0.00  0.00    +0.000 C 
ATOM     28  F   UNL     1      -2.374   9.597  18.565  0.00  0.00    +0.000 F 
ATOM     29  F   UNL     1      -1.584  10.070  16.590  0.00  0.00    +0.000 F 
ENDBRANCH  25  27
ENDBRANCH  19  25
ENDBRANCH  17  23
ENDBRANCH  16  17
ENDBRANCH   1  16
TORSDOF 6
ENDMDL
MODEL 9
REMARK VINA RESULT:      -8.2      5.892      8.297
REMARK  Name = 
REMARK  6 active torsions:
REMARK  status: ('A' for Active; 'I' for Inactive)
REMARK    1  A    between atoms: C_2  and  C_5
REMARK    2  A    between atoms: C_5  and  C_6
REMARK    3  A    between atoms: C_10  and  N_11
REMARK    4  A    between atoms: N_11  and  C_12
REMARK    5  A    between atoms: C_12  and  C_13
REMARK    6  A    between atoms: C_16  and  C_17
REMARK                            x       y       z     vdW  Elec       q    Type
REMARK                         _______ _______ _______ _____ _____    ______ ____
ROOT
ATOM      1  C   UNL     1       3.054   4.181  19.470  0.00  0.00    +0.000 A 
ATOM      2  N   UNL     1       2.208   4.365  18.445  0.00  0.00    +0.000 NA
ATOM      3  O   UNL     1       1.668   5.634  18.691  0.00  0.00    +0.000 OA
ATOM      4  C   UNL     1       2.251   6.092  19.842  0.00  0.00    +0.000 A 
ATOM      5  N   UNL     1       3.111   5.238  20.356  0.00  0.00    +0.000 NA
ENDROOT
BRANCH   4   6
ATOM      6  C   UNL     1       1.950   7.496  20.266  0.00  0.00    +0.000 C 
ATOM      7  C   UNL     1       1.899   8.422  19.042  0.00  0.00    +0.000 C 
ATOM      8  O   UNL     1       1.127   9.620  19.164  0.00  0.00    +0.000 OA
ATOM      9  C   UNL     1       0.570   9.811  20.394  0.00  0.00    +0.000 A 
ATOM     10  C   UNL     1       0.165  11.109  20.699  0.00  0.00    +0.000 A 
ATOM     11  C   UNL     1      -0.362  11.393  21.959  0.00  0.00    +0.000 A 
ATOM     12  C   UNL     1      -0.515  10.371  22.897  0.00  0.00    +0.000 A 
ATOM     13  C   UNL     1      -0.158   9.059  22.568  0.00  0.00    +0.000 A 
ATOM     14  C   UNL     1       0.395   8.786  21.319  0.00  0.00    +0.000 A 
ATOM     15  O   UNL     1       0.738   7.491  21.030  0.00  0.00    +0.000 OA
ENDBRANCH   4   6
BRANCH   1  16
ATOM     16  C   UNL     1       4.000   3.007  19.556  0.00  0.00    +0.000 C 
BRANCH  16  17
ATOM     17  N   UNL     1       5.443   3.230  19.342  0.00  0.00    +0.000 N 
ATOM     18  H   UNL     1       5.905   2.379  19.032  0.00  0.00    +0.000 HD
BRANCH  17  23
ATOM     19  C   UNL     1       5.953   5.458  16.391  0.00  0.00    +0.000 A 
ATOM     20  C   UNL     1       6.745   6.468  16.943  0.00  0.00    +0.000 A 
ATOM     21  C   UNL     1       7.117   6.413  18.277  0.00  0.00    +0.000 A 
ATOM     22  C   UNL     1       6.681   5.354  19.086  0.00  0.00    +0.000 A 
ATOM     23  C   UNL     1       5.841   4.351  18.589  0.00  0.00    +0.000 A 
ATOM     24  C   UNL     1       5.518   4.402  17.219  0.00  0.00    +0.000 A 
BRANCH  19  25
ATOM     25  C   UNL     1       5.577   5.512  14.929  0.00  0.00    +0.000 C 
BRANCH  25  27
ATOM     26  F   UNL     1       7.242   4.914  13.296  0.00  0.00    +0.000 F 
ATOM     27  C   UNL     1       6.225   4.449  14.051  0.00  0.00    +0.000 C 
ATOM     28  F   UNL     1       5.314   3.908  13.209  0.00  0.00    +0.000 F 
ATOM     29  F   UNL     1       6.716   3.438  14.809  0.00  0.00    +0.000 F 
ENDBRANCH  25  27
ENDBRANCH  19  25
ENDBRANCH  17  23
ENDBRANCH  16  17
ENDBRANCH   1  16
TORSDOF 6
ENDMDL
