MODEL 1
REMARK VINA RESULT:      -8.9      0.000      0.000
REMARK  Name = 
REMARK  4 active torsions:
REMARK  status: ('A' for Active; 'I' for Inactive)
REMARK    1  A    between atoms: C_2  and  C_3
REMARK    2  A    between atoms: C_6  and  N_7
REMARK    3  A    between atoms: C_10  and  C_11
REMARK    4  A    between atoms: C_23  and  O_24
REMARK                            x       y       z     vdW  Elec       q    Type
REMARK                         _______ _______ _______ _____ _____    ______ ____
ROOT
ATOM      1  C   UNL     1       6.850   6.239  17.816  0.00  0.00    +0.000 A 
ATOM      2  C   UNL     1       7.871   6.375  18.763  0.00  0.00    +0.000 A 
ATOM      3  C   UNL     1       8.536   7.592  18.932  0.00  0.00    +0.000 A 
ATOM      4  C   UNL     1       8.112   8.722  18.229  0.00  0.00    +0.000 A 
ATOM      5  C   UNL     1       7.012   8.619  17.361  0.00  0.00    +0.000 A 
ATOM      6  C   UNL     1       6.393   7.380  17.147  0.00  0.00    +0.000 A 
ENDROOT
BRANCH   1   8
ATOM      7  O   UNL     1       6.819   4.179  16.698  0.00  0.00    +0.000 OA
ATOM      8  C   UNL     1       6.240   4.909  17.496  0.00  0.00    +0.000 C 
ATOM      9  N   UNL     1       5.073   4.539  18.145  0.00  0.00    +0.000 N 
ATOM     10  C   UNL     1       4.448   3.234  17.906  0.00  0.00    +0.000 C 
ATOM     11  C   UNL     1       3.096   3.386  18.595  0.00  0.00    +0.000 C 
ATOM     12  C   UNL     1       2.332   2.150  19.038  0.00  0.00    +0.000 C 
ATOM     13  C   UNL     1       1.060   2.586  19.794  0.00  0.00    +0.000 C 
ATOM     14  C   UNL     1       1.316   3.600  20.926  0.00  0.00    +0.000 C 
ATOM     15  C   UNL     1       2.221   4.761  20.498  0.00  0.00    +0.000 C 
ATOM     16  C   UNL     1       3.471   4.217  19.824  0.00  0.00    +0.000 C 
ATOM     17  C   UNL     1       4.404   5.250  19.233  0.00  0.00    +0.000 C 
BRANCH  14  18
ATOM     18  O   UNL     1       1.898   2.940  22.049  0.00  0.00    +0.000 OA
ATOM     19  H   UNL     1       1.670   1.996  22.015  0.00  0.00    +0.000 HD
ENDBRANCH  14  18
ENDBRANCH   1   8
BRANCH   4  20
ATOM     20  N   UNL     1       8.763   9.971  18.413  0.00  0.00    +0.000 N 
ATOM     21  C   UNL     1       8.815  11.036  17.540  0.00  0.00    +0.000 A 
ATOM     22  C   UNL     1       9.617  11.993  18.111  0.00  0.00    +0.000 A 
ATOM     23  C   UNL     1      10.017  11.447  19.355  0.00  0.00    +0.000 A 
ATOM     24  N   UNL     1       9.458  10.236  19.548  0.00  0.00    +0.000 NA
BRANCH  23  25
ATOM     25  C   UNL     1      10.938  12.088  20.358  0.00  0.00    +0.000 C 
ATOM     26  F   UNL     1      12.185  11.545  20.310  0.00  0.00    +0.000 F 
ATOM     27  F   UNL     1      11.089  13.421  20.150  0.00  0.00    +0.000 F 
ATOM     28  F   UNL     1      10.501  11.928  21.636  0.00  0.00    +0.000 F 
ENDBRANCH  23  25
ENDBRANCH   4  20
TORSDOF 4
ENDMDL
MODEL 2
REMARK VINA RESULT:      -8.8      1.177      1.576
REMARK  Name = 
REMARK  4 active torsions:
REMARK  status: ('A' for Active; 'I' for Inactive)
REMARK    1  A    between atoms: C_2  and  C_3
REMARK    2  A    between atoms: C_6  and  N_7
REMARK    3  A    between atoms: C_10  and  C_11
REMARK    4  A    between atoms: C_23  and  O_24
REMARK                            x       y       z     vdW  Elec       q    Type
REMARK                         _______ _______ _______ _____ _____    ______ ____
ROOT
ATOM      1  C   UNL     1       6.906   6.202  17.707  0.00  0.00    +0.000 A 
ATOM      2  C   UNL     1       7.808   6.214  18.777  0.00  0.00    +0.000 A 
ATOM      3  C   UNL     1       8.524   7.368  19.101  0.00  0.00    +0.000 A 
ATOM      4  C   UNL     1       8.264   8.562  18.424  0.00  0.00    +0.000 A 
ATOM      5  C   UNL     1       7.277   8.586  17.425  0.00  0.00    +0.000 A 
ATOM      6  C   UNL     1       6.610   7.407  17.060  0.00  0.00    +0.000 A 
ENDROOT
BRANCH   1   8
ATOM      7  O   UNL     1       6.859   4.242  16.422  0.00  0.00    +0.000 OA
ATOM      8  C   UNL     1       6.257   4.938  17.233  0.00  0.00    +0.000 C 
ATOM      9  N   UNL     1       5.026   4.585  17.760  0.00  0.00    +0.000 N 
ATOM     10  C   UNL     1       4.355   3.341  17.368  0.00  0.00    +0.000 C 
ATOM     11  C   UNL     1       2.963   3.515  17.964  0.00  0.00    +0.000 C 
ATOM     12  C   UNL     1       2.105   2.293  18.245  0.00  0.00    +0.000 C 
ATOM     13  C   UNL     1       0.801   2.740  18.938  0.00  0.00    +0.000 C 
ATOM     14  C   UNL     1       1.019   3.645  20.167  0.00  0.00    +0.000 C 
ATOM     15  C   UNL     1       2.011   4.783  19.905  0.00  0.00    +0.000 C 
ATOM     16  C   UNL     1       3.282   4.223  19.283  0.00  0.00    +0.000 C 
ATOM     17  C   UNL     1       4.309   5.245  18.850  0.00  0.00    +0.000 C 
BRANCH  14  18
ATOM     18  O   UNL     1       1.476   2.866  21.271  0.00  0.00    +0.000 OA
ATOM     19  H   UNL     1       1.630   3.452  22.030  0.00  0.00    +0.000 HD
ENDBRANCH  14  18
ENDBRANCH   1   8
BRANCH   4  20
ATOM     20  N   UNL     1       8.966   9.750  18.763  0.00  0.00    +0.000 N 
ATOM     21  C   UNL     1       9.320  10.195  20.019  0.00  0.00    +0.000 A 
ATOM     22  C   UNL     1       9.916  11.422  19.864  0.00  0.00    +0.000 A 
ATOM     23  C   UNL     1       9.905  11.665  18.469  0.00  0.00    +0.000 A 
ATOM     24  N   UNL     1       9.364  10.624  17.806  0.00  0.00    +0.000 NA
BRANCH  23  25
ATOM     25  C   UNL     1      10.413  12.899  17.773  0.00  0.00    +0.000 C 
ATOM     26  F   UNL     1      11.046  12.592  16.607  0.00  0.00    +0.000 F 
ATOM     27  F   UNL     1       9.416  13.765  17.454  0.00  0.00    +0.000 F 
ATOM     28  F   UNL     1      11.314  13.584  18.527  0.00  0.00    +0.000 F 
ENDBRANCH  23  25
ENDBRANCH   4  20
TORSDOF 4
ENDMDL
MODEL 3
REMARK VINA RESULT:      -8.8      1.095      1.811
REMARK  Name = 
REMARK  4 active torsions:
REMARK  status: ('A' for Active; 'I' for Inactive)
REMARK    1  A    between atoms: C_2  and  C_3
REMARK    2  A    between atoms: C_6  and  N_7
REMARK    3  A    between atoms: C_10  and  C_11
REMARK    4  A    between atoms: C_23  and  O_24
REMARK                            x       y       z     vdW  Elec       q    Type
REMARK                         _______ _______ _______ _____ _____    ______ ____
ROOT
ATOM      1  C   UNL     1       6.884   6.060  17.567  0.00  0.00    +0.000 A 
ATOM      2  C   UNL     1       6.697   7.245  16.847  0.00  0.00    +0.000 A 
ATOM      3  C   UNL     1       7.302   8.436  17.255  0.00  0.00    +0.000 A 
ATOM      4  C   UNL     1       8.194   8.433  18.330  0.00  0.00    +0.000 A 
ATOM      5  C   UNL     1       8.475   7.223  18.987  0.00  0.00    +0.000 A 
ATOM      6  C   UNL     1       7.813   6.045  18.614  0.00  0.00    +0.000 A 
ENDROOT
BRANCH   1   8
ATOM      7  O   UNL     1       6.548   4.065  16.383  0.00  0.00    +0.000 OA
ATOM      8  C   UNL     1       6.115   4.814  17.253  0.00  0.00    +0.000 C 
ATOM      9  N   UNL     1       4.973   4.534  17.986  0.00  0.00    +0.000 N 
ATOM     10  C   UNL     1       4.198   3.312  17.755  0.00  0.00    +0.000 C 
ATOM     11  C   UNL     1       2.930   3.568  18.562  0.00  0.00    +0.000 C 
ATOM     12  C   UNL     1       2.081   2.397  19.025  0.00  0.00    +0.000 C 
ATOM     13  C   UNL     1       0.926   2.925  19.902  0.00  0.00    +0.000 C 
ATOM     14  C   UNL     1       1.379   3.857  21.044  0.00  0.00    +0.000 C 
ATOM     15  C   UNL     1       2.361   4.938  20.582  0.00  0.00    +0.000 C 
ATOM     16  C   UNL     1       3.488   4.301  19.784  0.00  0.00    +0.000 C 
ATOM     17  C   UNL     1       4.472   5.260  19.152  0.00  0.00    +0.000 C 
BRANCH  14  18
ATOM     18  O   UNL     1       1.978   3.092  22.089  0.00  0.00    +0.000 OA
ATOM     19  H   UNL     1       2.820   3.505  22.341  0.00  0.00    +0.000 HD
ENDBRANCH  14  18
ENDBRANCH   1   8
BRANCH   4  20
ATOM     20  N   UNL     1       8.836   9.634  18.736  0.00  0.00    +0.000 N 
ATOM     21  C   UNL     1       9.121  10.049  20.020  0.00  0.00    +0.000 A 
ATOM     22  C   UNL     1       9.676  11.301  19.928  0.00  0.00    +0.000 A 
ATOM     23  C   UNL     1       9.714  11.590  18.543  0.00  0.00    +0.000 A 
ATOM     24  N   UNL     1       9.241  10.553  17.825  0.00  0.00    +0.000 NA
BRANCH  23  25
ATOM     25  C   UNL     1      10.203  12.864  17.908  0.00  0.00    +0.000 C 
ATOM     26  F   UNL     1      10.954  13.598  18.773  0.00  0.00    +0.000 F 
ATOM     27  F   UNL     1      10.982  12.638  16.818  0.00  0.00    +0.000 F 
ATOM     28  F   UNL     1       9.181  13.669  17.511  0.00  0.00    +0.000 F 
ENDBRANCH  23  25
ENDBRANCH   4  20
TORSDOF 4
ENDMDL
MODEL 4
REMARK VINA RESULT:      -8.6      0.274      1.205
REMARK  Name = 
REMARK  4 active torsions:
REMARK  status: ('A' for Active; 'I' for Inactive)
REMARK    1  A    between atoms: C_2  and  C_3
REMARK    2  A    between atoms: C_6  and  N_7
REMARK    3  A    between atoms: C_10  and  C_11
REMARK    4  A    between atoms: C_23  and  O_24
REMARK                            x       y       z     vdW  Elec       q    Type
REMARK                         _______ _______ _______ _____ _____    ______ ____
ROOT
ATOM      1  C   UNL     1       7.018   6.161  17.628  0.00  0.00    +0.000 A 
ATOM      2  C   UNL     1       6.699   7.267  16.831  0.00  0.00    +0.000 A 
ATOM      3  C   UNL     1       7.189   8.538  17.137  0.00  0.00    +0.000 A 
ATOM      4  C   UNL     1       8.097   8.701  18.187  0.00  0.00    +0.000 A 
ATOM      5  C   UNL     1       8.511   7.577  18.920  0.00  0.00    +0.000 A 
ATOM      6  C   UNL     1       7.963   6.315  18.648  0.00  0.00    +0.000 A 
ENDROOT
BRANCH   1   8
ATOM      7  O   UNL     1       6.921   4.021  16.679  0.00  0.00    +0.000 OA
ATOM      8  C   UNL     1       6.371   4.826  17.423  0.00  0.00    +0.000 C 
ATOM      9  N   UNL     1       5.206   4.538  18.114  0.00  0.00    +0.000 N 
ATOM     10  C   UNL     1       4.545   3.235  17.989  0.00  0.00    +0.000 C 
ATOM     11  C   UNL     1       3.208   3.475  18.681  0.00  0.00    +0.000 C 
ATOM     12  C   UNL     1       2.422   2.298  19.231  0.00  0.00    +0.000 C 
ATOM     13  C   UNL     1       1.171   2.825  19.966  0.00  0.00    +0.000 C 
ATOM     14  C   UNL     1       1.469   3.920  21.010  0.00  0.00    +0.000 C 
ATOM     15  C   UNL     1       2.395   5.019  20.479  0.00  0.00    +0.000 C 
ATOM     16  C   UNL     1       3.621   4.392  19.835  0.00  0.00    +0.000 C 
ATOM     17  C   UNL     1       4.570   5.350  19.151  0.00  0.00    +0.000 C 
BRANCH  14  18
ATOM     18  O   UNL     1       2.051   3.336  22.175  0.00  0.00    +0.000 OA
ATOM     19  H   UNL     1       2.990   3.579  22.215  0.00  0.00    +0.000 HD
ENDBRANCH  14  18
ENDBRANCH   1   8
BRANCH   4  20
ATOM     20  N   UNL     1       8.624   9.986  18.490  0.00  0.00    +0.000 N 
ATOM     21  C   UNL     1       8.472  11.154  17.774  0.00  0.00    +0.000 A 
ATOM     22  C   UNL     1       9.218  12.118  18.405  0.00  0.00    +0.000 A 
ATOM     23  C   UNL     1       9.797  11.468  19.521  0.00  0.00    +0.000 A 
ATOM     24  N   UNL     1       9.396  10.183  19.587  0.00  0.00    +0.000 NA
BRANCH  23  25
ATOM     25  C   UNL     1      10.739  12.079  20.523  0.00  0.00    +0.000 C 
ATOM     26  F   UNL     1      10.918  13.409  20.295  0.00  0.00    +0.000 F 
ATOM     27  F   UNL     1      10.290  11.963  21.799  0.00  0.00    +0.000 F 
ATOM     28  F   UNL     1      11.977  11.516  20.479  0.00  0.00    +0.000 F 
ENDBRANCH  23  25
ENDBRANCH   4  20
TORSDOF 4
ENDMDL
MODEL 5
REMARK VINA RESULT:      -8.3      6.949      8.804
REMARK  Name = 
REMARK  4 active torsions:
REMARK  status: ('A' for Active; 'I' for Inactive)
REMARK    1  A    between atoms: C_2  and  C_3
REMARK    2  A    between atoms: C_6  and  N_7
REMARK    3  A    between atoms: C_10  and  C_11
REMARK    4  A    between atoms: C_23  and  O_24
REMARK                            x       y       z     vdW  Elec       q    Type
REMARK                         _______ _______ _______ _____ _____    ______ ____
ROOT
ATOM      1  C   UNL     1       1.562   8.882  19.327  0.00  0.00    +0.000 A 
ATOM      2  C   UNL     1       1.812   7.751  20.112  0.00  0.00    +0.000 A 
ATOM      3  C   UNL     1       2.504   6.655  19.593  0.00  0.00    +0.000 A 
ATOM      4  C   UNL     1       3.054   6.721  18.311  0.00  0.00    +0.000 A 
ATOM      5  C   UNL     1       2.906   7.899  17.559  0.00  0.00    +0.000 A 
ATOM      6  C   UNL     1       2.152   8.969  18.061  0.00  0.00    +0.000 A 
ENDROOT
BRANCH   1   8
ATOM      7  O   UNL     1       1.056  10.675  20.749  0.00  0.00    +0.000 OA
ATOM      8  C   UNL     1       0.678   9.994  19.801  0.00  0.00    +0.000 C 
ATOM      9  N   UNL     1      -0.506  10.237  19.125  0.00  0.00    +0.000 N 
ATOM     10  C   UNL     1      -1.396  11.335  19.514  0.00  0.00    +0.000 C 
ATOM     11  C   UNL     1      -2.653  11.045  18.701  0.00  0.00    +0.000 C 
ATOM     12  C   UNL     1      -3.631  12.167  18.397  0.00  0.00    +0.000 C 
ATOM     13  C   UNL     1      -4.748  11.628  17.480  0.00  0.00    +0.000 C 
ATOM     14  C   UNL     1      -4.235  10.890  16.227  0.00  0.00    +0.000 C 
ATOM     15  C   UNL     1      -3.135   9.871  16.540  0.00  0.00    +0.000 C 
ATOM     16  C   UNL     1      -2.057  10.524  17.391  0.00  0.00    +0.000 C 
ATOM     17  C   UNL     1      -0.962   9.606  17.888  0.00  0.00    +0.000 C 
BRANCH  14  18
ATOM     18  O   UNL     1      -3.747  11.833  15.273  0.00  0.00    +0.000 OA
ATOM     19  H   UNL     1      -3.963  12.730  15.575  0.00  0.00    +0.000 HD
ENDBRANCH  14  18
ENDBRANCH   1   8
BRANCH   4  20
ATOM     20  N   UNL     1       3.784   5.623  17.782  0.00  0.00    +0.000 N 
ATOM     21  C   UNL     1       3.636   4.285  18.081  0.00  0.00    +0.000 A 
ATOM     22  C   UNL     1       4.606   3.604  17.389  0.00  0.00    +0.000 A 
ATOM     23  C   UNL     1       5.314   4.595  16.668  0.00  0.00    +0.000 A 
ATOM     24  N   UNL     1       4.779   5.814  16.881  0.00  0.00    +0.000 NA
BRANCH  23  25
ATOM     25  C   UNL     1       6.505   4.374  15.776  0.00  0.00    +0.000 C 
ATOM     26  F   UNL     1       7.653   4.246  16.496  0.00  0.00    +0.000 F 
ATOM     27  F   UNL     1       6.393   3.247  15.027  0.00  0.00    +0.000 F 
ATOM     28  F   UNL     1       6.707   5.409  14.916  0.00  0.00    +0.000 F 
ENDBRANCH  23  25
ENDBRANCH   4  20
TORSDOF 4
ENDMDL
MODEL 6
REMARK VINA RESULT:      -8.1      7.029      8.849
REMARK  Name = 
REMARK  4 active torsions:
REMARK  status: ('A' for Active; 'I' for Inactive)
REMARK    1  A    between atoms: C_2  and  C_3
REMARK    2  A    between atoms: C_6  and  N_7
REMARK    3  A    between atoms: C_10  and  C_11
REMARK    4  A    between atoms: C_23  and  O_24
REMARK                            x       y       z     vdW  Elec       q    Type
REMARK                         _______ _______ _______ _____ _____    ______ ____
ROOT
ATOM      1  C   UNL     1       1.340   9.305  19.445  0.00  0.00    +0.000 A 
ATOM      2  C   UNL     1       1.805   9.338  18.126  0.00  0.00    +0.000 A 
ATOM      3  C   UNL     1       2.610   8.315  17.621  0.00  0.00    +0.000 A 
ATOM      4  C   UNL     1       2.871   7.185  18.401  0.00  0.00    +0.000 A 
ATOM      5  C   UNL     1       2.312   7.092  19.686  0.00  0.00    +0.000 A 
ATOM      6  C   UNL     1       1.560   8.154  20.209  0.00  0.00    +0.000 A 
ENDROOT
BRANCH   1   8
ATOM      7  O   UNL     1       1.226  11.164  20.866  0.00  0.00    +0.000 OA
ATOM      8  C   UNL     1       0.621  10.466  20.060  0.00  0.00    +0.000 C 
ATOM      9  N   UNL     1      -0.679  10.730  19.662  0.00  0.00    +0.000 N 
ATOM     10  C   UNL     1      -1.424  11.874  20.197  0.00  0.00    +0.000 C 
ATOM     11  C   UNL     1      -2.841  11.604  19.705  0.00  0.00    +0.000 C 
ATOM     12  C   UNL     1      -3.830  12.751  19.584  0.00  0.00    +0.000 C 
ATOM     13  C   UNL     1      -5.143  12.224  18.971  0.00  0.00    +0.000 C 
ATOM     14  C   UNL     1      -4.953  11.425  17.666  0.00  0.00    +0.000 C 
ATOM     15  C   UNL     1      -3.840  10.375  17.763  0.00  0.00    +0.000 C 
ATOM     16  C   UNL     1      -2.577  11.016  18.317  0.00  0.00    +0.000 C 
ATOM     17  C   UNL     1      -1.425  10.074  18.590  0.00  0.00    +0.000 C 
BRANCH  14  18
ATOM     18  O   UNL     1      -4.669  12.314  16.587  0.00  0.00    +0.000 OA
ATOM     19  H   UNL     1      -4.579  13.216  16.935  0.00  0.00    +0.000 HD
ENDBRANCH  14  18
ENDBRANCH   1   8
BRANCH   4  20
ATOM     20  N   UNL     1       3.667   6.125  17.888  0.00  0.00    +0.000 N 
ATOM     21  C   UNL     1       3.309   4.805  17.717  0.00  0.00    +0.000 A 
ATOM     22  C   UNL     1       4.420   4.137  17.267  0.00  0.00    +0.000 A 
ATOM     23  C   UNL     1       5.432   5.122  17.171  0.00  0.00    +0.000 A 
ATOM     24  N   UNL     1       4.952   6.335  17.510  0.00  0.00    +0.000 NA
BRANCH  23  25
ATOM     25  C   UNL     1       6.861   4.900  16.755  0.00  0.00    +0.000 C 
ATOM     26  F   UNL     1       7.480   6.072  16.444  0.00  0.00    +0.000 F 
ATOM     27  F   UNL     1       7.604   4.319  17.732  0.00  0.00    +0.000 F 
ATOM     28  F   UNL     1       6.961   4.111  15.651  0.00  0.00    +0.000 F 
ENDBRANCH  23  25
ENDBRANCH   4  20
TORSDOF 4
ENDMDL
MODEL 7
REMARK VINA RESULT:      -8.1      7.174      9.070
REMARK  Name = 
REMARK  4 active torsions:
REMARK  status: ('A' for Active; 'I' for Inactive)
REMARK    1  A    between atoms: C_2  and  C_3
REMARK    2  A    between atoms: C_6  and  N_7
REMARK    3  A    between atoms: C_10  and  C_11
REMARK    4  A    between atoms: C_23  and  O_24
REMARK                            x       y       z     vdW  Elec       q    Type
REMARK                         _______ _______ _______ _____ _____    ______ ____
ROOT
ATOM      1  C   UNL     1       1.385   9.309  19.648  0.00  0.00    +0.000 A 
ATOM      2  C   UNL     1       1.637   8.148  20.386  0.00  0.00    +0.000 A 
ATOM      3  C   UNL     1       2.204   7.022  19.784  0.00  0.00    +0.000 A 
ATOM      4  C   UNL     1       2.627   7.082  18.454  0.00  0.00    +0.000 A 
ATOM      5  C   UNL     1       2.481   8.283  17.739  0.00  0.00    +0.000 A 
ATOM      6  C   UNL     1       1.852   9.387  18.331  0.00  0.00    +0.000 A 
ENDROOT
BRANCH   1   8
ATOM      7  O   UNL     1       1.185  11.173  21.054  0.00  0.00    +0.000 OA
ATOM      8  C   UNL     1       0.626  10.464  20.225  0.00  0.00    +0.000 C 
ATOM      9  N   UNL     1      -0.659  10.710  19.768  0.00  0.00    +0.000 N 
ATOM     10  C   UNL     1      -1.440  11.848  20.263  0.00  0.00    +0.000 C 
ATOM     11  C   UNL     1      -2.831  11.558  19.710  0.00  0.00    +0.000 C 
ATOM     12  C   UNL     1      -3.826  12.693  19.539  0.00  0.00    +0.000 C 
ATOM     13  C   UNL     1      -5.105  12.147  18.869  0.00  0.00    +0.000 C 
ATOM     14  C   UNL     1      -4.846  11.345  17.579  0.00  0.00    +0.000 C 
ATOM     15  C   UNL     1      -3.727  10.310  17.730  0.00  0.00    +0.000 C 
ATOM     16  C   UNL     1      -2.497  10.968  18.338  0.00  0.00    +0.000 C 
ATOM     17  C   UNL     1      -1.348  10.041  18.666  0.00  0.00    +0.000 C 
BRANCH  14  18
ATOM     18  O   UNL     1      -4.525  12.233  16.509  0.00  0.00    +0.000 OA
ATOM     19  H   UNL     1      -4.207  11.714  15.751  0.00  0.00    +0.000 HD
ENDBRANCH  14  18
ENDBRANCH   1   8
BRANCH   4  20
ATOM     20  N   UNL     1       3.230   5.952  17.838  0.00  0.00    +0.000 N 
ATOM     21  C   UNL     1       2.768   4.653  17.815  0.00  0.00    +0.000 A 
ATOM     22  C   UNL     1       3.715   3.896  17.172  0.00  0.00    +0.000 A 
ATOM     23  C   UNL     1       4.737   4.807  16.812  0.00  0.00    +0.000 A 
ATOM     24  N   UNL     1       4.413   6.061  17.184  0.00  0.00    +0.000 NA
BRANCH  23  25
ATOM     25  C   UNL     1       6.027   4.473  16.113  0.00  0.00    +0.000 C 
ATOM     26  F   UNL     1       6.342   5.404  15.171  0.00  0.00    +0.000 F 
ATOM     27  F   UNL     1       7.083   4.415  16.965  0.00  0.00    +0.000 F 
ATOM     28  F   UNL     1       5.969   3.279  15.464  0.00  0.00    +0.000 F 
ENDBRANCH  23  25
ENDBRANCH   4  20
TORSDOF 4
ENDMDL
MODEL 8
REMARK VINA RESULT:      -8.1      6.142      8.053
REMARK  Name = 
REMARK  4 active torsions:
REMARK  status: ('A' for Active; 'I' for Inactive)
REMARK    1  A    between atoms: C_2  and  C_3
REMARK    2  A    between atoms: C_6  and  N_7
REMARK    3  A    between atoms: C_10  and  C_11
REMARK    4  A    between atoms: C_23  and  O_24
REMARK                            x       y       z     vdW  Elec       q    Type
REMARK                         _______ _______ _______ _____ _____    ______ ____
ROOT
ATOM      1  C   UNL     1       3.154   5.218  19.202  0.00  0.00    +0.000 A 
ATOM      2  C   UNL     1       2.658   4.564  18.068  0.00  0.00    +0.000 A 
ATOM      3  C   UNL     1       3.455   4.386  16.936  0.00  0.00    +0.000 A 
ATOM      4  C   UNL     1       4.799   4.764  16.963  0.00  0.00    +0.000 A 
ATOM      5  C   UNL     1       5.335   5.317  18.138  0.00  0.00    +0.000 A 
ATOM      6  C   UNL     1       4.511   5.554  19.248  0.00  0.00    +0.000 A 
ENDROOT
BRANCH   1   8
ATOM      7  O   UNL     1       2.107   4.738  21.243  0.00  0.00    +0.000 OA
ATOM      8  C   UNL     1       2.272   5.573  20.359  0.00  0.00    +0.000 C 
ATOM      9  N   UNL     1       1.716   6.840  20.408  0.00  0.00    +0.000 N 
ATOM     10  C   UNL     1       0.876   7.263  21.533  0.00  0.00    +0.000 C 
ATOM     11  C   UNL     1       0.287   8.576  21.029  0.00  0.00    +0.000 C 
ATOM     12  C   UNL     1      -0.226   9.603  22.024  0.00  0.00    +0.000 C 
ATOM     13  C   UNL     1      -0.668  10.869  21.260  0.00  0.00    +0.000 C 
ATOM     14  C   UNL     1       0.393  11.419  20.286  0.00  0.00    +0.000 C 
ATOM     15  C   UNL     1       1.011  10.334  19.398  0.00  0.00    +0.000 C 
ATOM     16  C   UNL     1       1.469   9.166  20.257  0.00  0.00    +0.000 C 
ATOM     17  C   UNL     1       1.988   7.959  19.507  0.00  0.00    +0.000 C 
BRANCH  14  18
ATOM     18  O   UNL     1       1.428  12.078  21.014  0.00  0.00    +0.000 OA
ATOM     19  H   UNL     1       2.289  11.802  20.660  0.00  0.00    +0.000 HD
ENDBRANCH  14  18
ENDBRANCH   1   8
BRANCH   4  20
ATOM     20  N   UNL     1       5.628   4.562  15.825  0.00  0.00    +0.000 N 
ATOM     21  C   UNL     1       6.960   4.885  15.680  0.00  0.00    +0.000 A 
ATOM     22  C   UNL     1       7.315   4.575  14.391  0.00  0.00    +0.000 A 
ATOM     23  C   UNL     1       6.142   4.049  13.799  0.00  0.00    +0.000 A 
ATOM     24  N   UNL     1       5.134   4.006  14.691  0.00  0.00    +0.000 NA
BRANCH  23  25
ATOM     25  C   UNL     1       5.988   3.590  12.374  0.00  0.00    +0.000 C 
ATOM     26  F   UNL     1       6.213   2.253  12.252  0.00  0.00    +0.000 F 
ATOM     27  F   UNL     1       4.742   3.818  11.884  0.00  0.00    +0.000 F 
ATOM     28  F   UNL     1       6.868   4.202  11.536  0.00  0.00    +0.000 F 
ENDBRANCH  23  25
ENDBRANCH   4  20
TORSDOF 4
ENDMDL
MODEL 9
REMARK VINA RESULT:      -8.0      7.047      8.765
REMARK  Name = 
REMARK  4 active torsions:
REMARK  status: ('A' for Active; 'I' for Inactive)
REMARK    1  A    between atoms: C_2  and  C_3
REMARK    2  A    between atoms: C_6  and  N_7
REMARK    3  A    between atoms: C_10  and  C_11
REMARK    4  A    between atoms: C_23  and  O_24
REMARK                            x       y       z     vdW  Elec       q    Type
REMARK                         _______ _______ _______ _____ _____    ______ ____
ROOT
ATOM      1  C   UNL     1       1.606   8.801  19.165  0.00  0.00    +0.000 A 
ATOM      2  C   UNL     1       2.233   8.926  17.921  0.00  0.00    +0.000 A 
ATOM      3  C   UNL     1       3.201   8.008  17.509  0.00  0.00    +0.000 A 
ATOM      4  C   UNL     1       3.475   6.885  18.294  0.00  0.00    +0.000 A 
ATOM      5  C   UNL     1       2.765   6.692  19.491  0.00  0.00    +0.000 A 
ATOM      6  C   UNL     1       1.844   7.653  19.930  0.00  0.00    +0.000 A 
ENDROOT
BRANCH   1   8
ATOM      7  O   UNL     1       1.052  10.490  20.694  0.00  0.00    +0.000 OA
ATOM      8  C   UNL     1       0.695   9.862  19.702  0.00  0.00    +0.000 C 
ATOM      9  N   UNL     1      -0.491  10.122  19.034  0.00  0.00    +0.000 N 
ATOM     10  C   UNL     1      -1.407  11.173  19.485  0.00  0.00    +0.000 C 
ATOM     11  C   UNL     1      -2.652  10.908  18.646  0.00  0.00    +0.000 C 
ATOM     12  C   UNL     1      -3.652  12.026  18.405  0.00  0.00    +0.000 C 
ATOM     13  C   UNL     1      -4.752  11.522  17.447  0.00  0.00    +0.000 C 
ATOM     14  C   UNL     1      -4.215  10.877  16.154  0.00  0.00    +0.000 C 
ATOM     15  C   UNL     1      -3.094   9.864  16.411  0.00  0.00    +0.000 C 
ATOM     16  C   UNL     1      -2.036  10.485  17.310  0.00  0.00    +0.000 C 
ATOM     17  C   UNL     1      -0.925   9.561  17.756  0.00  0.00    +0.000 C 
BRANCH  14  18
ATOM     18  O   UNL     1      -3.742  11.888  15.266  0.00  0.00    +0.000 OA
ATOM     19  H   UNL     1      -3.909  12.760  15.660  0.00  0.00    +0.000 HD
ENDBRANCH  14  18
ENDBRANCH   1   8
BRANCH   4  20
ATOM     20  N   UNL     1       4.437   5.928  17.871  0.00  0.00    +0.000 N 
ATOM     21  C   UNL     1       5.303   5.195  18.655  0.00  0.00    +0.000 A 
ATOM     22  C   UNL     1       6.095   4.460  17.808  0.00  0.00    +0.000 A 
ATOM     23  C   UNL     1       5.647   4.785  16.505  0.00  0.00    +0.000 A 
ATOM     24  N   UNL     1       4.611   5.646  16.556  0.00  0.00    +0.000 NA
BRANCH  23  25
ATOM     25  C   UNL     1       6.215   4.271  15.210  0.00  0.00    +0.000 C 
ATOM     26  F   UNL     1       5.441   4.627  14.148  0.00  0.00    +0.000 F 
ATOM     27  F   UNL     1       7.460   4.753  14.959  0.00  0.00    +0.000 F 
ATOM     28  F   UNL     1       6.298   2.914  15.184  0.00  0.00    +0.000 F 
ENDBRANCH  23  25
ENDBRANCH   4  20
TORSDOF 4
ENDMDL
