MODEL 1
REMARK VINA RESULT:      -8.3      0.000      0.000
REMARK  Name = 
REMARK  4 active torsions:
REMARK  status: ('A' for Active; 'I' for Inactive)
REMARK    1  A    between atoms: C_1  and  C_2
REMARK    2  A    between atoms: C_2  and  N_3
REMARK    3  A    between atoms: C_4  and  C_5
REMARK    4  A    between atoms: C_5  and  N_6
REMARK                            x       y       z     vdW  Elec       q    Type
REMARK                         _______ _______ _______ _____ _____    ______ ____
ROOT
ATOM      1  C   UNL     1       4.888   4.068  17.601  0.00  0.00    +0.000 C 
ENDROOT
BRANCH   1   2
ATOM      2  N   UNL     1       3.682   4.867  17.683  0.00  0.00    +0.000 N 
ATOM      3  C   UNL     1       3.715   5.831  18.665  0.00  0.00    +0.000 A 
ATOM      4  N   UNL     1       3.023   5.769  19.758  0.00  0.00    +0.000 NA
ATOM      5  C   UNL     1       2.265   4.599  19.933  0.00  0.00    +0.000 A 
ATOM      6  C   UNL     1       1.986   4.145  21.217  0.00  0.00    +0.000 A 
ATOM      7  C   UNL     1       1.387   2.899  21.390  0.00  0.00    +0.000 A 
ATOM      8  F   UNL     1       1.228   2.414  22.628  0.00  0.00    +0.000 F 
ATOM      9  C   UNL     1       1.001   2.116  20.301  0.00  0.00    +0.000 A 
ATOM     10  C   UNL     1       1.243   2.572  19.011  0.00  0.00    +0.000 A 
ATOM     11  C   UNL     1       1.905   3.790  18.848  0.00  0.00    +0.000 A 
ATOM     12  C   UNL     1       2.527   4.115  17.555  0.00  0.00    +0.000 A 
ATOM     13  O   UNL     1       2.112   3.623  16.514  0.00  0.00    +0.000 OA
ENDBRANCH   1   2
BRANCH   1  15
ATOM     14  N   UNL     1       6.676   4.963  16.082  0.00  0.00    +0.000 N 
ATOM     15  C   UNL     1       5.572   4.157  16.285  0.00  0.00    +0.000 A 
ATOM     16  N   UNL     1       5.196   3.579  15.164  0.00  0.00    +0.000 NA
ATOM     17  C   UNL     1       6.078   4.008  14.204  0.00  0.00    +0.000 A 
ATOM     18  C   UNL     1       6.127   3.732  12.829  0.00  0.00    +0.000 A 
ATOM     19  F   UNL     1       5.229   2.919  12.254  0.00  0.00    +0.000 F 
ATOM     20  C   UNL     1       7.104   4.338  12.040  0.00  0.00    +0.000 A 
ATOM     21  C   UNL     1       8.042   5.197  12.612  0.00  0.00    +0.000 A 
ATOM     22  C   UNL     1       8.027   5.478  13.984  0.00  0.00    +0.000 A 
ATOM     23  C   UNL     1       7.023   4.875  14.752  0.00  0.00    +0.000 A 
BRANCH  14  25
ATOM     24  C   UNL     1       6.613   7.245  17.082  0.00  0.00    +0.000 C 
ATOM     25  C   UNL     1       7.271   5.877  17.044  0.00  0.00    +0.000 C 
ENDBRANCH  14  25
ENDBRANCH   1  15
TORSDOF 3
ENDMDL
MODEL 2
REMARK VINA RESULT:      -7.5      3.229      7.519
REMARK  Name = 
REMARK  4 active torsions:
REMARK  status: ('A' for Active; 'I' for Inactive)
REMARK    1  A    between atoms: C_1  and  C_2
REMARK    2  A    between atoms: C_2  and  N_3
REMARK    3  A    between atoms: C_4  and  C_5
REMARK    4  A    between atoms: C_5  and  N_6
REMARK                            x       y       z     vdW  Elec       q    Type
REMARK                         _______ _______ _______ _____ _____    ______ ____
ROOT
ATOM      1  C   UNL     1       2.983   5.567  17.742  0.00  0.00    +0.000 C 
ENDROOT
BRANCH   1   2
ATOM      2  N   UNL     1       4.215   4.994  18.246  0.00  0.00    +0.000 N 
ATOM      3  C   UNL     1       5.198   5.922  18.507  0.00  0.00    +0.000 A 
ATOM      4  N   UNL     1       6.266   6.059  17.789  0.00  0.00    +0.000 NA
ATOM      5  C   UNL     1       6.344   5.239  16.650  0.00  0.00    +0.000 A 
ATOM      6  C   UNL     1       7.062   5.668  15.540  0.00  0.00    +0.000 A 
ATOM      7  C   UNL     1       6.997   4.938  14.356  0.00  0.00    +0.000 A 
ATOM      8  F   UNL     1       7.593   5.417  13.256  0.00  0.00    +0.000 F 
ATOM      9  C   UNL     1       6.275   3.747  14.270  0.00  0.00    +0.000 A 
ATOM     10  C   UNL     1       5.579   3.287  15.382  0.00  0.00    +0.000 A 
ATOM     11  C   UNL     1       5.596   4.061  16.544  0.00  0.00    +0.000 A 
ATOM     12  C   UNL     1       4.581   3.834  17.585  0.00  0.00    +0.000 A 
ATOM     13  O   UNL     1       4.039   2.744  17.711  0.00  0.00    +0.000 OA
ENDBRANCH   1   2
BRANCH   1  15
ATOM     14  N   UNL     1       2.163   6.573  19.892  0.00  0.00    +0.000 N 
ATOM     15  C   UNL     1       2.482   6.706  18.553  0.00  0.00    +0.000 A 
ATOM     16  N   UNL     1       2.205   7.917  18.120  0.00  0.00    +0.000 NA
ATOM     17  C   UNL     1       1.701   8.598  19.199  0.00  0.00    +0.000 A 
ATOM     18  C   UNL     1       1.215   9.911  19.296  0.00  0.00    +0.000 A 
ATOM     19  F   UNL     1       1.210  10.729  18.233  0.00  0.00    +0.000 F 
ATOM     20  C   UNL     1       0.699  10.366  20.510  0.00  0.00    +0.000 A 
ATOM     21  C   UNL     1       0.682   9.532  21.627  0.00  0.00    +0.000 A 
ATOM     22  C   UNL     1       1.174   8.222  21.563  0.00  0.00    +0.000 A 
ATOM     23  C   UNL     1       1.668   7.781  20.328  0.00  0.00    +0.000 A 
BRANCH  14  25
ATOM     24  C   UNL     1       0.984   4.442  20.421  0.00  0.00    +0.000 C 
ATOM     25  C   UNL     1       2.181   5.345  20.670  0.00  0.00    +0.000 C 
ENDBRANCH  14  25
ENDBRANCH   1  15
TORSDOF 3
ENDMDL
MODEL 3
REMARK VINA RESULT:      -7.4      5.697      7.928
REMARK  Name = 
REMARK  4 active torsions:
REMARK  status: ('A' for Active; 'I' for Inactive)
REMARK    1  A    between atoms: C_1  and  C_2
REMARK    2  A    between atoms: C_2  and  N_3
REMARK    3  A    between atoms: C_4  and  C_5
REMARK    4  A    between atoms: C_5  and  N_6
REMARK                            x       y       z     vdW  Elec       q    Type
REMARK                         _______ _______ _______ _____ _____    ______ ____
ROOT
ATOM      1  C   UNL     1       1.344   8.538  18.083  0.00  0.00    +0.000 C 
ENDROOT
BRANCH   1   2
ATOM      2  N   UNL     1       2.531   7.938  18.658  0.00  0.00    +0.000 N 
ATOM      3  C   UNL     1       3.353   7.328  17.737  0.00  0.00    +0.000 A 
ATOM      4  N   UNL     1       3.491   6.044  17.636  0.00  0.00    +0.000 NA
ATOM      5  C   UNL     1       2.682   5.276  18.490  0.00  0.00    +0.000 A 
ATOM      6  C   UNL     1       2.292   3.999  18.103  0.00  0.00    +0.000 A 
ATOM      7  C   UNL     1       1.354   3.307  18.867  0.00  0.00    +0.000 A 
ATOM      8  F   UNL     1       0.892   2.129  18.429  0.00  0.00    +0.000 F 
ATOM      9  C   UNL     1       0.839   3.838  20.050  0.00  0.00    +0.000 A 
ATOM     10  C   UNL     1       1.246   5.100  20.467  0.00  0.00    +0.000 A 
ATOM     11  C   UNL     1       2.134   5.813  19.660  0.00  0.00    +0.000 A 
ATOM     12  C   UNL     1       2.278   7.266  19.842  0.00  0.00    +0.000 A 
ATOM     13  O   UNL     1       2.039   7.794  20.920  0.00  0.00    +0.000 OA
ENDBRANCH   1   2
BRANCH   1  15
ATOM     14  N   UNL     1       0.034  10.628  18.552  0.00  0.00    +0.000 N 
ATOM     15  C   UNL     1       1.243  10.001  18.319  0.00  0.00    +0.000 A 
ATOM     16  N   UNL     1       2.225  10.875  18.260  0.00  0.00    +0.000 NA
ATOM     17  C   UNL     1       1.649  12.103  18.469  0.00  0.00    +0.000 A 
ATOM     18  C   UNL     1       2.223  13.384  18.477  0.00  0.00    +0.000 A 
ATOM     19  F   UNL     1       3.538  13.555  18.279  0.00  0.00    +0.000 F 
ATOM     20  C   UNL     1       1.410  14.502  18.663  0.00  0.00    +0.000 A 
ATOM     21  C   UNL     1       0.037  14.352  18.860  0.00  0.00    +0.000 A 
ATOM     22  C   UNL     1      -0.561  13.084  18.870  0.00  0.00    +0.000 A 
ATOM     23  C   UNL     1       0.274  11.979  18.661  0.00  0.00    +0.000 A 
BRANCH  14  25
ATOM     24  C   UNL     1      -1.943  10.037  17.155  0.00  0.00    +0.000 C 
ATOM     25  C   UNL     1      -1.283  10.010  18.523  0.00  0.00    +0.000 C 
ENDBRANCH  14  25
ENDBRANCH   1  15
TORSDOF 3
ENDMDL
MODEL 4
REMARK VINA RESULT:      -7.2      3.060      4.618
REMARK  Name = 
REMARK  4 active torsions:
REMARK  status: ('A' for Active; 'I' for Inactive)
REMARK    1  A    between atoms: C_1  and  C_2
REMARK    2  A    between atoms: C_2  and  N_3
REMARK    3  A    between atoms: C_4  and  C_5
REMARK    4  A    between atoms: C_5  and  N_6
REMARK                            x       y       z     vdW  Elec       q    Type
REMARK                         _______ _______ _______ _____ _____    ______ ____
ROOT
ATOM      1  C   UNL     1       4.142   2.311  18.270  0.00  0.00    +0.000 C 
ENDROOT
BRANCH   1   2
ATOM      2  N   UNL     1       2.787   2.552  18.722  0.00  0.00    +0.000 N 
ATOM      3  C   UNL     1       1.879   2.725  17.702  0.00  0.00    +0.000 A 
ATOM      4  N   UNL     1       1.337   3.864  17.406  0.00  0.00    +0.000 NA
ATOM      5  C   UNL     1       1.789   4.965  18.153  0.00  0.00    +0.000 A 
ATOM      6  C   UNL     1       1.768   6.235  17.589  0.00  0.00    +0.000 A 
ATOM      7  C   UNL     1       2.373   7.295  18.261  0.00  0.00    +0.000 A 
ATOM      8  F   UNL     1       2.455   8.490  17.662  0.00  0.00    +0.000 F 
ATOM      9  C   UNL     1       2.948   7.129  19.521  0.00  0.00    +0.000 A 
ATOM     10  C   UNL     1       2.946   5.871  20.113  0.00  0.00    +0.000 A 
ATOM     11  C   UNL     1       2.398   4.802  19.403  0.00  0.00    +0.000 A 
ATOM     12  C   UNL     1       2.723   3.422  19.797  0.00  0.00    +0.000 A 
ATOM     13  O   UNL     1       3.044   3.153  20.947  0.00  0.00    +0.000 OA
ENDBRANCH   1   2
BRANCH   1  15
ATOM     14  N   UNL     1       5.104   4.363  17.188  0.00  0.00    +0.000 N 
ATOM     15  C   UNL     1       4.998   3.525  18.282  0.00  0.00    +0.000 A 
ATOM     16  N   UNL     1       5.801   3.910  19.251  0.00  0.00    +0.000 NA
ATOM     17  C   UNL     1       6.441   5.032  18.788  0.00  0.00    +0.000 A 
ATOM     18  C   UNL     1       7.424   5.830  19.393  0.00  0.00    +0.000 A 
ATOM     19  F   UNL     1       7.874   5.559  20.626  0.00  0.00    +0.000 F 
ATOM     20  C   UNL     1       7.966   6.905  18.689  0.00  0.00    +0.000 A 
ATOM     21  C   UNL     1       7.524   7.202  17.400  0.00  0.00    +0.000 A 
ATOM     22  C   UNL     1       6.533   6.431  16.777  0.00  0.00    +0.000 A 
ATOM     23  C   UNL     1       6.019   5.344  17.496  0.00  0.00    +0.000 A 
BRANCH  14  25
ATOM     24  C   UNL     1       5.500   3.973  14.759  0.00  0.00    +0.000 C 
ATOM     25  C   UNL     1       4.495   4.165  15.882  0.00  0.00    +0.000 C 
ENDBRANCH  14  25
ENDBRANCH   1  15
TORSDOF 3
ENDMDL
MODEL 5
REMARK VINA RESULT:      -7.1      1.701      7.407
REMARK  Name = 
REMARK  4 active torsions:
REMARK  status: ('A' for Active; 'I' for Inactive)
REMARK    1  A    between atoms: C_1  and  C_2
REMARK    2  A    between atoms: C_2  and  N_3
REMARK    3  A    between atoms: C_4  and  C_5
REMARK    4  A    between atoms: C_5  and  N_6
REMARK                            x       y       z     vdW  Elec       q    Type
REMARK                         _______ _______ _______ _____ _____    ______ ____
ROOT
ATOM      1  C   UNL     1       4.663   5.462  16.393  0.00  0.00    +0.000 C 
ENDROOT
BRANCH   1   2
ATOM      2  N   UNL     1       5.947   4.790  16.415  0.00  0.00    +0.000 N 
ATOM      3  C   UNL     1       7.026   5.644  16.412  0.00  0.00    +0.000 A 
ATOM      4  N   UNL     1       7.811   5.809  15.396  0.00  0.00    +0.000 NA
ATOM      5  C   UNL     1       7.456   5.105  14.233  0.00  0.00    +0.000 A 
ATOM      6  C   UNL     1       7.805   5.613  12.987  0.00  0.00    +0.000 A 
ATOM      7  C   UNL     1       7.307   5.009  11.834  0.00  0.00    +0.000 A 
ATOM      8  F   UNL     1       7.548   5.570  10.643  0.00  0.00    +0.000 F 
ATOM      9  C   UNL     1       6.512   3.864  11.895  0.00  0.00    +0.000 A 
ATOM     10  C   UNL     1       6.182   3.324  13.132  0.00  0.00    +0.000 A 
ATOM     11  C   UNL     1       6.630   3.976  14.283  0.00  0.00    +0.000 A 
ATOM     12  C   UNL     1       5.994   3.688  15.578  0.00  0.00    +0.000 A 
ATOM     13  O   UNL     1       5.444   2.615  15.787  0.00  0.00    +0.000 OA
ENDBRANCH   1   2
BRANCH   1  15
ATOM     14  N   UNL     1       3.091   5.797  18.323  0.00  0.00    +0.000 N 
ATOM     15  C   UNL     1       3.711   4.958  17.416  0.00  0.00    +0.000 A 
ATOM     16  N   UNL     1       3.401   3.700  17.648  0.00  0.00    +0.000 NA
ATOM     17  C   UNL     1       2.552   3.713  18.726  0.00  0.00    +0.000 A 
ATOM     18  C   UNL     1       1.944   2.652  19.415  0.00  0.00    +0.000 A 
ATOM     19  F   UNL     1       2.139   1.380  19.038  0.00  0.00    +0.000 F 
ATOM     20  C   UNL     1       1.151   2.920  20.530  0.00  0.00    +0.000 A 
ATOM     21  C   UNL     1       0.943   4.234  20.950  0.00  0.00    +0.000 A 
ATOM     22  C   UNL     1       1.525   5.313  20.273  0.00  0.00    +0.000 A 
ATOM     23  C   UNL     1       2.334   5.018  19.168  0.00  0.00    +0.000 A 
BRANCH  14  25
ATOM     24  C   UNL     1       2.228   8.090  17.870  0.00  0.00    +0.000 C 
ATOM     25  C   UNL     1       3.318   7.225  18.478  0.00  0.00    +0.000 C 
ENDBRANCH  14  25
ENDBRANCH   1  15
TORSDOF 3
ENDMDL
MODEL 6
REMARK VINA RESULT:      -6.9      3.186      5.163
REMARK  Name = 
REMARK  4 active torsions:
REMARK  status: ('A' for Active; 'I' for Inactive)
REMARK    1  A    between atoms: C_1  and  C_2
REMARK    2  A    between atoms: C_2  and  N_3
REMARK    3  A    between atoms: C_4  and  C_5
REMARK    4  A    between atoms: C_5  and  N_6
REMARK                            x       y       z     vdW  Elec       q    Type
REMARK                         _______ _______ _______ _____ _____    ______ ____
ROOT
ATOM      1  C   UNL     1       5.609   4.425  18.925  0.00  0.00    +0.000 C 
ENDROOT
BRANCH   1   2
ATOM      2  N   UNL     1       5.117   3.105  18.585  0.00  0.00    +0.000 N 
ATOM      3  C   UNL     1       4.397   3.060  17.412  0.00  0.00    +0.000 A 
ATOM      4  N   UNL     1       3.114   2.889  17.362  0.00  0.00    +0.000 NA
ATOM      5  C   UNL     1       2.460   2.819  18.604  0.00  0.00    +0.000 A 
ATOM      6  C   UNL     1       1.135   3.227  18.707  0.00  0.00    +0.000 A 
ATOM      7  C   UNL     1       0.542   3.321  19.964  0.00  0.00    +0.000 A 
ATOM      8  F   UNL     1      -0.694   3.825  20.070  0.00  0.00    +0.000 F 
ATOM      9  C   UNL     1       1.226   2.956  21.125  0.00  0.00    +0.000 A 
ATOM     10  C   UNL     1       2.541   2.515  21.033  0.00  0.00    +0.000 A 
ATOM     11  C   UNL     1       3.148   2.488  19.777  0.00  0.00    +0.000 A 
ATOM     12  C   UNL     1       4.614   2.419  19.677  0.00  0.00    +0.000 A 
ATOM     13  O   UNL     1       5.285   1.923  20.573  0.00  0.00    +0.000 OA
ENDBRANCH   1   2
BRANCH   1  15
ATOM     14  N   UNL     1       4.548   6.434  17.856  0.00  0.00    +0.000 N 
ATOM     15  C   UNL     1       4.568   5.483  18.858  0.00  0.00    +0.000 A 
ATOM     16  N   UNL     1       3.618   5.706  19.740  0.00  0.00    +0.000 NA
ATOM     17  C   UNL     1       2.952   6.824  19.303  0.00  0.00    +0.000 A 
ATOM     18  C   UNL     1       1.877   7.520  19.876  0.00  0.00    +0.000 A 
ATOM     19  F   UNL     1       1.319   7.111  21.025  0.00  0.00    +0.000 F 
ATOM     20  C   UNL     1       1.400   8.677  19.260  0.00  0.00    +0.000 A 
ATOM     21  C   UNL     1       1.971   9.132  18.071  0.00  0.00    +0.000 A 
ATOM     22  C   UNL     1       3.036   8.448  17.469  0.00  0.00    +0.000 A 
ATOM     23  C   UNL     1       3.511   7.300  18.118  0.00  0.00    +0.000 A 
BRANCH  14  25
ATOM     24  C   UNL     1       5.213   5.846  15.527  0.00  0.00    +0.000 C 
ATOM     25  C   UNL     1       5.536   6.605  16.802  0.00  0.00    +0.000 C 
ENDBRANCH  14  25
ENDBRANCH   1  15
TORSDOF 3
ENDMDL
MODEL 7
REMARK VINA RESULT:      -6.9      5.457      7.868
REMARK  Name = 
REMARK  4 active torsions:
REMARK  status: ('A' for Active; 'I' for Inactive)
REMARK    1  A    between atoms: C_1  and  C_2
REMARK    2  A    between atoms: C_2  and  N_3
REMARK    3  A    between atoms: C_4  and  C_5
REMARK    4  A    between atoms: C_5  and  N_6
REMARK                            x       y       z     vdW  Elec       q    Type
REMARK                         _______ _______ _______ _____ _____    ______ ____
ROOT
ATOM      1  C   UNL     1       1.440   8.410  18.272  0.00  0.00    +0.000 C 
ENDROOT
BRANCH   1   2
ATOM      2  N   UNL     1       2.622   7.720  18.748  0.00  0.00    +0.000 N 
ATOM      3  C   UNL     1       3.348   7.103  17.754  0.00  0.00    +0.000 A 
ATOM      4  N   UNL     1       3.402   5.819  17.594  0.00  0.00    +0.000 NA
ATOM      5  C   UNL     1       2.602   5.062  18.467  0.00  0.00    +0.000 A 
ATOM      6  C   UNL     1       2.113   3.827  18.057  0.00  0.00    +0.000 A 
ATOM      7  C   UNL     1       1.183   3.159  18.851  0.00  0.00    +0.000 A 
ATOM      8  F   UNL     1       0.626   2.029  18.398  0.00  0.00    +0.000 F 
ATOM      9  C   UNL     1       0.774   3.669  20.084  0.00  0.00    +0.000 A 
ATOM     10  C   UNL     1       1.281   4.886  20.523  0.00  0.00    +0.000 A 
ATOM     11  C   UNL     1       2.160   5.581  19.690  0.00  0.00    +0.000 A 
ATOM     12  C   UNL     1       2.401   7.014  19.918  0.00  0.00    +0.000 A 
ATOM     13  O   UNL     1       2.261   7.509  21.029  0.00  0.00    +0.000 OA
ENDBRANCH   1   2
BRANCH   1  15
ATOM     14  N   UNL     1       0.529  10.343  19.592  0.00  0.00    +0.000 N 
ATOM     15  C   UNL     1       1.403   9.848  18.643  0.00  0.00    +0.000 A 
ATOM     16  N   UNL     1       2.100  10.819  18.092  0.00  0.00    +0.000 NA
ATOM     17  C   UNL     1       1.680  11.977  18.699  0.00  0.00    +0.000 A 
ATOM     18  C   UNL     1       2.063  13.308  18.475  0.00  0.00    +0.000 A 
ATOM     19  F   UNL     1       2.991  13.618  17.557  0.00  0.00    +0.000 F 
ATOM     20  C   UNL     1       1.446  14.331  19.194  0.00  0.00    +0.000 A 
ATOM     21  C   UNL     1       0.469  14.037  20.145  0.00  0.00    +0.000 A 
ATOM     22  C   UNL     1       0.078  12.716  20.400  0.00  0.00    +0.000 A 
ATOM     23  C   UNL     1       0.697  11.708  19.650  0.00  0.00    +0.000 A 
BRANCH  14  25
ATOM     24  C   UNL     1      -0.251   9.437  21.779  0.00  0.00    +0.000 C 
ATOM     25  C   UNL     1      -0.506   9.596  20.290  0.00  0.00    +0.000 C 
ENDBRANCH  14  25
ENDBRANCH   1  15
TORSDOF 3
ENDMDL
MODEL 8
REMARK VINA RESULT:      -6.9      4.855      7.403
REMARK  Name = 
REMARK  4 active torsions:
REMARK  status: ('A' for Active; 'I' for Inactive)
REMARK    1  A    between atoms: C_1  and  C_2
REMARK    2  A    between atoms: C_2  and  N_3
REMARK    3  A    between atoms: C_4  and  C_5
REMARK    4  A    between atoms: C_5  and  N_6
REMARK                            x       y       z     vdW  Elec       q    Type
REMARK                         _______ _______ _______ _____ _____    ______ ____
ROOT
ATOM      1  C   UNL     1       2.424   7.932  19.732  0.00  0.00    +0.000 C 
ENDROOT
BRANCH   1   2
ATOM      2  N   UNL     1       1.310   8.582  19.069  0.00  0.00    +0.000 N 
ATOM      3  C   UNL     1       1.589   9.003  17.789  0.00  0.00    +0.000 A 
ATOM      4  N   UNL     1       1.728  10.247  17.454  0.00  0.00    +0.000 NA
ATOM      5  C   UNL     1       1.648  11.173  18.508  0.00  0.00    +0.000 A 
ATOM      6  C   UNL     1       2.334  12.379  18.419  0.00  0.00    +0.000 A 
ATOM      7  C   UNL     1       2.395  13.218  19.529  0.00  0.00    +0.000 A 
ATOM      8  F   UNL     1       3.154  14.320  19.477  0.00  0.00    +0.000 F 
ATOM      9  C   UNL     1       1.732  12.908  20.717  0.00  0.00    +0.000 A 
ATOM     10  C   UNL     1       1.015  11.722  20.811  0.00  0.00    +0.000 A 
ATOM     11  C   UNL     1       1.015  10.856  19.716  0.00  0.00    +0.000 A 
ATOM     12  C   UNL     1       0.621   9.450  19.898  0.00  0.00    +0.000 A 
ATOM     13  O   UNL     1      -0.131   9.118  20.805  0.00  0.00    +0.000 OA
ENDBRANCH   1   2
BRANCH   1  15
ATOM     14  N   UNL     1       3.144   5.839  18.547  0.00  0.00    +0.000 N 
ATOM     15  C   UNL     1       2.438   6.457  19.561  0.00  0.00    +0.000 A 
ATOM     16  N   UNL     1       1.750   5.579  20.260  0.00  0.00    +0.000 NA
ATOM     17  C   UNL     1       2.018   4.356  19.699  0.00  0.00    +0.000 A 
ATOM     18  C   UNL     1       1.527   3.082  20.024  0.00  0.00    +0.000 A 
ATOM     19  F   UNL     1       0.667   2.909  21.038  0.00  0.00    +0.000 F 
ATOM     20  C   UNL     1       1.914   1.980  19.261  0.00  0.00    +0.000 A 
ATOM     21  C   UNL     1       2.798   2.135  18.194  0.00  0.00    +0.000 A 
ATOM     22  C   UNL     1       3.315   3.393  17.856  0.00  0.00    +0.000 A 
ATOM     23  C   UNL     1       2.896   4.487  18.623  0.00  0.00    +0.000 A 
BRANCH  14  25
ATOM     24  C   UNL     1       5.393   6.362  17.608  0.00  0.00    +0.000 C 
ATOM     25  C   UNL     1       3.885   6.495  17.481  0.00  0.00    +0.000 C 
ENDBRANCH  14  25
ENDBRANCH   1  15
TORSDOF 3
ENDMDL
MODEL 9
REMARK VINA RESULT:      -6.7      1.664      1.940
REMARK  Name = 
REMARK  4 active torsions:
REMARK  status: ('A' for Active; 'I' for Inactive)
REMARK    1  A    between atoms: C_1  and  C_2
REMARK    2  A    between atoms: C_2  and  N_3
REMARK    3  A    between atoms: C_4  and  C_5
REMARK    4  A    between atoms: C_5  and  N_6
REMARK                            x       y       z     vdW  Elec       q    Type
REMARK                         _______ _______ _______ _____ _____    ______ ____
ROOT
ATOM      1  C   UNL     1       5.300   3.627  17.514  0.00  0.00    +0.000 C 
ENDROOT
BRANCH   1   2
ATOM      2  N   UNL     1       4.055   2.886  17.500  0.00  0.00    +0.000 N 
ATOM      3  C   UNL     1       3.058   3.479  16.759  0.00  0.00    +0.000 A 
ATOM      4  N   UNL     1       2.014   4.042  17.279  0.00  0.00    +0.000 NA
ATOM      5  C   UNL     1       1.980   4.084  18.683  0.00  0.00    +0.000 A 
ATOM      6  C   UNL     1       1.297   5.110  19.325  0.00  0.00    +0.000 A 
ATOM      7  C   UNL     1       1.407   5.249  20.707  0.00  0.00    +0.000 A 
ATOM      8  F   UNL     1       0.846   6.306  21.307  0.00  0.00    +0.000 F 
ATOM      9  C   UNL     1       2.139   4.343  21.477  0.00  0.00    +0.000 A 
ATOM     10  C   UNL     1       2.799   3.292  20.852  0.00  0.00    +0.000 A 
ATOM     11  C   UNL     1       2.738   3.201  19.460  0.00  0.00    +0.000 A 
ATOM     12  C   UNL     1       3.718   2.372  18.741  0.00  0.00    +0.000 A 
ATOM     13  O   UNL     1       4.262   1.421  19.286  0.00  0.00    +0.000 OA
ENDBRANCH   1   2
BRANCH   1  15
ATOM     14  N   UNL     1       6.774   4.867  15.903  0.00  0.00    +0.000 N 
ATOM     15  C   UNL     1       5.872   3.852  16.162  0.00  0.00    +0.000 A 
ATOM     16  N   UNL     1       5.558   3.207  15.059  0.00  0.00    +0.000 NA
ATOM     17  C   UNL     1       6.275   3.806  14.054  0.00  0.00    +0.000 A 
ATOM     18  C   UNL     1       6.298   3.543  12.675  0.00  0.00    +0.000 A 
ATOM     19  F   UNL     1       5.553   2.563  12.144  0.00  0.00    +0.000 F 
ATOM     20  C   UNL     1       7.083   4.335  11.837  0.00  0.00    +0.000 A 
ATOM     21  C   UNL     1       7.858   5.369  12.362  0.00  0.00    +0.000 A 
ATOM     22  C   UNL     1       7.866   5.644  13.736  0.00  0.00    +0.000 A 
ATOM     23  C   UNL     1       7.053   4.849  14.555  0.00  0.00    +0.000 A 
BRANCH  14  25
ATOM     24  C   UNL     1       6.237   7.020  17.036  0.00  0.00    +0.000 C 
ATOM     25  C   UNL     1       7.226   5.885  16.838  0.00  0.00    +0.000 C 
ENDBRANCH  14  25
ENDBRANCH   1  15
TORSDOF 3
ENDMDL
