MODEL 1
REMARK VINA RESULT:      -8.7      0.000      0.000
REMARK  Name = 
REMARK  6 active torsions:
REMARK  status: ('A' for Active; 'I' for Inactive)
REMARK    1  A    between atoms: C_1  and  C_2
REMARK    2  A    between atoms: C_2  and  C_3
REMARK    3  A    between atoms: C_7  and  N_8
REMARK    4  A    between atoms: C_9  and  C_11
REMARK    5  A    between atoms: C_11  and  C_12
REMARK    6  A    between atoms: C_17  and  O_18
REMARK                            x       y       z     vdW  Elec       q    Type
REMARK                         _______ _______ _______ _____ _____    ______ ____
ROOT
ATOM      1  C   UNL     1       4.908   5.438  17.180  0.00  0.00    +0.000 A 
ATOM      2  C   UNL     1       4.247   4.206  17.030  0.00  0.00    +0.000 A 
ATOM      3  C   UNL     1       2.915   4.058  17.397  0.00  0.00    +0.000 A 
ATOM      4  C   UNL     1       2.233   5.122  17.977  0.00  0.00    +0.000 A 
ATOM      5  C   UNL     1       2.876   6.335  18.227  0.00  0.00    +0.000 A 
ATOM      6  C   UNL     1       4.199   6.502  17.785  0.00  0.00    +0.000 A 
ENDROOT
BRANCH   1   8
ATOM      7  C   UNL     1       6.710   4.641  15.607  0.00  0.00    +0.000 C 
ATOM      8  C   UNL     1       6.378   5.572  16.769  0.00  0.00    +0.000 C 
ATOM      9  N   UNL     1       6.723   6.951  16.459  0.00  0.00    +0.000 N 
ATOM     10  C   UNL     1       7.452   7.549  17.455  0.00  0.00    +0.000 C 
ATOM     11  O   UNL     1       7.740   8.731  17.493  0.00  0.00    +0.000 OA
ATOM     12  N   UNL     1       7.814   6.603  18.347  0.00  0.00    +0.000 N 
ATOM     13  C   UNL     1       7.349   5.382  17.961  0.00  0.00    +0.000 C 
ATOM     14  O   UNL     1       7.643   4.328  18.508  0.00  0.00    +0.000 OA
ATOM     15  H   UNL     1       6.315   7.513  15.726  0.00  0.00    +0.000 HD
ATOM     16  H   UNL     1       8.436   6.770  19.118  0.00  0.00    +0.000 HD
ENDBRANCH   1   8
BRANCH   5  17
ATOM     17  N   UNL     1       2.248   7.388  18.933  0.00  0.00    +0.000 N 
ATOM     18  C   UNL     1       1.946   8.636  18.401  0.00  0.00    +0.000 C 
ATOM     19  O   UNL     1       2.140   8.996  17.240  0.00  0.00    +0.000 OA
ATOM     20  H   UNL     1       1.808   7.161  19.820  0.00  0.00    +0.000 HD
BRANCH  18  21
ATOM     21  C   UNL     1       1.289   9.585  19.381  0.00  0.00    +0.000 C 
BRANCH  21  22
ATOM     22  C   UNL     1       0.156  10.357  18.756  0.00  0.00    +0.000 A 
ATOM     23  C   UNL     1      -0.883   9.676  18.105  0.00  0.00    +0.000 A 
ATOM     24  C   UNL     1      -1.938  10.376  17.521  0.00  0.00    +0.000 A 
ATOM     25  C   UNL     1      -1.969  11.769  17.585  0.00  0.00    +0.000 A 
ATOM     26  C   UNL     1      -0.954  12.458  18.248  0.00  0.00    +0.000 A 
ATOM     27  C   UNL     1       0.094  11.750  18.835  0.00  0.00    +0.000 A 
BRANCH  27  28
ATOM     28  O   UNL     1       1.092  12.411  19.497  0.00  0.00    +0.000 OA
ATOM     29  H   UNL     1       1.919  12.273  19.005  0.00  0.00    +0.000 HD
ENDBRANCH  27  28
ENDBRANCH  21  22
ENDBRANCH  18  21
ENDBRANCH   5  17
TORSDOF 5
ENDMDL
MODEL 2
REMARK VINA RESULT:      -8.7      4.163      8.083
REMARK  Name = 
REMARK  6 active torsions:
REMARK  status: ('A' for Active; 'I' for Inactive)
REMARK    1  A    between atoms: C_1  and  C_2
REMARK    2  A    between atoms: C_2  and  C_3
REMARK    3  A    between atoms: C_7  and  N_8
REMARK    4  A    between atoms: C_9  and  C_11
REMARK    5  A    between atoms: C_11  and  C_12
REMARK    6  A    between atoms: C_17  and  O_18
REMARK                            x       y       z     vdW  Elec       q    Type
REMARK                         _______ _______ _______ _____ _____    ______ ____
ROOT
ATOM      1  C   UNL     1       2.802   4.218  18.682  0.00  0.00    +0.000 A 
ATOM      2  C   UNL     1       2.247   5.358  19.290  0.00  0.00    +0.000 A 
ATOM      3  C   UNL     1       2.601   6.636  18.874  0.00  0.00    +0.000 A 
ATOM      4  C   UNL     1       3.563   6.802  17.883  0.00  0.00    +0.000 A 
ATOM      5  C   UNL     1       4.205   5.701  17.316  0.00  0.00    +0.000 A 
ATOM      6  C   UNL     1       3.789   4.411  17.687  0.00  0.00    +0.000 A 
ENDROOT
BRANCH   1   8
ATOM      7  C   UNL     1       3.111   1.737  18.360  0.00  0.00    +0.000 C 
ATOM      8  C   UNL     1       2.397   2.821  19.162  0.00  0.00    +0.000 C 
ATOM      9  N   UNL     1       2.621   2.659  20.590  0.00  0.00    +0.000 N 
ATOM     10  C   UNL     1       1.460   2.714  21.316  0.00  0.00    +0.000 C 
ATOM     11  O   UNL     1       1.399   2.742  22.532  0.00  0.00    +0.000 OA
ATOM     12  N   UNL     1       0.418   2.694  20.459  0.00  0.00    +0.000 N 
ATOM     13  C   UNL     1       0.861   2.617  19.173  0.00  0.00    +0.000 C 
ATOM     14  O   UNL     1       0.135   2.448  18.202  0.00  0.00    +0.000 OA
ATOM     15  H   UNL     1       3.513   2.721  21.060  0.00  0.00    +0.000 HD
ATOM     16  H   UNL     1      -0.542   2.628  20.747  0.00  0.00    +0.000 HD
ENDBRANCH   1   8
BRANCH   5  17
ATOM     17  N   UNL     1       5.277   5.843  16.404  0.00  0.00    +0.000 N 
ATOM     18  C   UNL     1       6.527   5.252  16.545  0.00  0.00    +0.000 C 
ATOM     19  O   UNL     1       6.874   4.496  17.453  0.00  0.00    +0.000 OA
ATOM     20  H   UNL     1       5.066   6.232  15.490  0.00  0.00    +0.000 HD
BRANCH  18  21
ATOM     21  C   UNL     1       7.498   5.582  15.431  0.00  0.00    +0.000 C 
BRANCH  21  22
ATOM     22  C   UNL     1       7.140   4.893  14.140  0.00  0.00    +0.000 A 
ATOM     23  C   UNL     1       6.072   3.984  14.101  0.00  0.00    +0.000 A 
ATOM     24  C   UNL     1       5.729   3.338  12.914  0.00  0.00    +0.000 A 
ATOM     25  C   UNL     1       6.448   3.596  11.748  0.00  0.00    +0.000 A 
ATOM     26  C   UNL     1       7.499   4.513  11.767  0.00  0.00    +0.000 A 
ATOM     27  C   UNL     1       7.832   5.160  12.956  0.00  0.00    +0.000 A 
BRANCH  27  28
ATOM     28  O   UNL     1       8.853   6.070  12.988  0.00  0.00    +0.000 OA
ATOM     29  H   UNL     1       8.492   6.933  12.725  0.00  0.00    +0.000 HD
ENDBRANCH  27  28
ENDBRANCH  21  22
ENDBRANCH  18  21
ENDBRANCH   5  17
TORSDOF 5
ENDMDL
MODEL 3
REMARK VINA RESULT:      -8.5      3.857      7.828
REMARK  Name = 
REMARK  6 active torsions:
REMARK  status: ('A' for Active; 'I' for Inactive)
REMARK    1  A    between atoms: C_1  and  C_2
REMARK    2  A    between atoms: C_2  and  C_3
REMARK    3  A    between atoms: C_7  and  N_8
REMARK    4  A    between atoms: C_9  and  C_11
REMARK    5  A    between atoms: C_11  and  C_12
REMARK    6  A    between atoms: C_17  and  O_18
REMARK                            x       y       z     vdW  Elec       q    Type
REMARK                         _______ _______ _______ _____ _____    ______ ____
ROOT
ATOM      1  C   UNL     1       2.670   5.077  19.288  0.00  0.00    +0.000 A 
ATOM      2  C   UNL     1       2.080   6.304  19.640  0.00  0.00    +0.000 A 
ATOM      3  C   UNL     1       2.415   7.477  18.974  0.00  0.00    +0.000 A 
ATOM      4  C   UNL     1       3.391   7.458  17.984  0.00  0.00    +0.000 A 
ATOM      5  C   UNL     1       4.067   6.281  17.665  0.00  0.00    +0.000 A 
ATOM      6  C   UNL     1       3.671   5.084  18.288  0.00  0.00    +0.000 A 
ENDROOT
BRANCH   1   8
ATOM      7  C   UNL     1       2.359   4.008  21.550  0.00  0.00    +0.000 C 
ATOM      8  C   UNL     1       2.285   3.800  20.040  0.00  0.00    +0.000 C 
ATOM      9  N   UNL     1       0.974   3.315  19.637  0.00  0.00    +0.000 N 
ATOM     10  C   UNL     1       1.046   2.225  18.809  0.00  0.00    +0.000 C 
ATOM     11  O   UNL     1       0.099   1.726  18.230  0.00  0.00    +0.000 OA
ATOM     12  N   UNL     1       2.324   1.792  18.782  0.00  0.00    +0.000 N 
ATOM     13  C   UNL     1       3.106   2.568  19.583  0.00  0.00    +0.000 C 
ATOM     14  O   UNL     1       4.275   2.324  19.853  0.00  0.00    +0.000 OA
ATOM     15  H   UNL     1       0.101   3.813  19.739  0.00  0.00    +0.000 HD
ATOM     16  H   UNL     1       2.620   0.949  18.324  0.00  0.00    +0.000 HD
ENDBRANCH   1   8
BRANCH   5  17
ATOM     17  N   UNL     1       5.153   6.257  16.758  0.00  0.00    +0.000 N 
ATOM     18  C   UNL     1       6.206   5.350  16.799  0.00  0.00    +0.000 C 
ATOM     19  O   UNL     1       6.332   4.421  17.596  0.00  0.00    +0.000 OA
ATOM     20  H   UNL     1       5.063   6.801  15.905  0.00  0.00    +0.000 HD
BRANCH  18  21
ATOM     21  C   UNL     1       7.245   5.560  15.718  0.00  0.00    +0.000 C 
BRANCH  21  22
ATOM     22  C   UNL     1       6.875   4.872  14.430  0.00  0.00    +0.000 A 
ATOM     23  C   UNL     1       5.726   4.070  14.367  0.00  0.00    +0.000 A 
ATOM     24  C   UNL     1       5.370   3.425  13.182  0.00  0.00    +0.000 A 
ATOM     25  C   UNL     1       6.159   3.579  12.043  0.00  0.00    +0.000 A 
ATOM     26  C   UNL     1       7.293   4.390  12.085  0.00  0.00    +0.000 A 
ATOM     27  C   UNL     1       7.638   5.036  13.272  0.00  0.00    +0.000 A 
BRANCH  27  28
ATOM     28  O   UNL     1       8.741   5.843  13.326  0.00  0.00    +0.000 OA
ATOM     29  H   UNL     1       8.552   6.566  13.947  0.00  0.00    +0.000 HD
ENDBRANCH  27  28
ENDBRANCH  21  22
ENDBRANCH  18  21
ENDBRANCH   5  17
TORSDOF 5
ENDMDL
MODEL 4
REMARK VINA RESULT:      -8.5      0.968      1.446
REMARK  Name = 
REMARK  6 active torsions:
REMARK  status: ('A' for Active; 'I' for Inactive)
REMARK    1  A    between atoms: C_1  and  C_2
REMARK    2  A    between atoms: C_2  and  C_3
REMARK    3  A    between atoms: C_7  and  N_8
REMARK    4  A    between atoms: C_9  and  C_11
REMARK    5  A    between atoms: C_11  and  C_12
REMARK    6  A    between atoms: C_17  and  O_18
REMARK                            x       y       z     vdW  Elec       q    Type
REMARK                         _______ _______ _______ _____ _____    ______ ____
ROOT
ATOM      1  C   UNL     1       4.932   5.625  17.213  0.00  0.00    +0.000 A 
ATOM      2  C   UNL     1       4.267   4.407  16.983  0.00  0.00    +0.000 A 
ATOM      3  C   UNL     1       2.940   4.235  17.361  0.00  0.00    +0.000 A 
ATOM      4  C   UNL     1       2.270   5.254  18.028  0.00  0.00    +0.000 A 
ATOM      5  C   UNL     1       2.919   6.444  18.355  0.00  0.00    +0.000 A 
ATOM      6  C   UNL     1       4.236   6.642  17.906  0.00  0.00    +0.000 A 
ENDROOT
BRANCH   1   8
ATOM      7  C   UNL     1       6.698   4.973  15.535  0.00  0.00    +0.000 C 
ATOM      8  C   UNL     1       6.395   5.788  16.790  0.00  0.00    +0.000 C 
ATOM      9  N   UNL     1       6.748   7.187  16.609  0.00  0.00    +0.000 N 
ATOM     10  C   UNL     1       7.500   7.680  17.644  0.00  0.00    +0.000 C 
ATOM     11  O   UNL     1       7.800   8.851  17.793  0.00  0.00    +0.000 OA
ATOM     12  N   UNL     1       7.870   6.649  18.433  0.00  0.00    +0.000 N 
ATOM     13  C   UNL     1       7.387   5.475  17.938  0.00  0.00    +0.000 C 
ATOM     14  O   UNL     1       7.680   4.370  18.375  0.00  0.00    +0.000 OA
ATOM     15  H   UNL     1       6.332   7.822  15.942  0.00  0.00    +0.000 HD
ATOM     16  H   UNL     1       8.507   6.735  19.204  0.00  0.00    +0.000 HD
ENDBRANCH   1   8
BRANCH   5  17
ATOM     17  N   UNL     1       2.305   7.443  19.147  0.00  0.00    +0.000 N 
ATOM     18  C   UNL     1       1.806   8.648  18.665  0.00  0.00    +0.000 C 
ATOM     19  O   UNL     1       1.789   9.006  17.488  0.00  0.00    +0.000 OA
ATOM     20  H   UNL     1       2.026   7.188  20.090  0.00  0.00    +0.000 HD
BRANCH  18  21
ATOM     21  C   UNL     1       1.214   9.544  19.733  0.00  0.00    +0.000 C 
BRANCH  21  22
ATOM     22  C   UNL     1       0.731  10.856  19.172  0.00  0.00    +0.000 A 
ATOM     23  C   UNL     1       1.625  11.925  19.013  0.00  0.00    +0.000 A 
ATOM     24  C   UNL     1       1.192  13.146  18.496  0.00  0.00    +0.000 A 
ATOM     25  C   UNL     1      -0.143  13.311  18.126  0.00  0.00    +0.000 A 
ATOM     26  C   UNL     1      -1.038  12.250  18.259  0.00  0.00    +0.000 A 
ATOM     27  C   UNL     1      -0.596  11.031  18.771  0.00  0.00    +0.000 A 
BRANCH  27  28
ATOM     28  O   UNL     1      -1.460   9.978  18.897  0.00  0.00    +0.000 OA
ATOM     29  H   UNL     1      -1.862  10.027  19.781  0.00  0.00    +0.000 HD
ENDBRANCH  27  28
ENDBRANCH  21  22
ENDBRANCH  18  21
ENDBRANCH   5  17
TORSDOF 5
ENDMDL
MODEL 5
REMARK VINA RESULT:      -8.4      4.063      5.192
REMARK  Name = 
REMARK  6 active torsions:
REMARK  status: ('A' for Active; 'I' for Inactive)
REMARK    1  A    between atoms: C_1  and  C_2
REMARK    2  A    between atoms: C_2  and  C_3
REMARK    3  A    between atoms: C_7  and  N_8
REMARK    4  A    between atoms: C_9  and  C_11
REMARK    5  A    between atoms: C_11  and  C_12
REMARK    6  A    between atoms: C_17  and  O_18
REMARK                            x       y       z     vdW  Elec       q    Type
REMARK                         _______ _______ _______ _____ _____    ______ ____
ROOT
ATOM      1  C   UNL     1       2.412   5.579  19.297  0.00  0.00    +0.000 A 
ATOM      2  C   UNL     1       2.457   6.185  18.029  0.00  0.00    +0.000 A 
ATOM      3  C   UNL     1       2.290   7.557  17.885  0.00  0.00    +0.000 A 
ATOM      4  C   UNL     1       2.015   8.343  18.998  0.00  0.00    +0.000 A 
ATOM      5  C   UNL     1       1.874   7.772  20.262  0.00  0.00    +0.000 A 
ATOM      6  C   UNL     1       2.118   6.396  20.413  0.00  0.00    +0.000 A 
ENDROOT
BRANCH   1   8
ATOM      7  C   UNL     1       3.817   3.590  18.644  0.00  0.00    +0.000 C 
ATOM      8  C   UNL     1       2.597   4.064  19.427  0.00  0.00    +0.000 C 
ATOM      9  N   UNL     1       2.670   3.651  20.820  0.00  0.00    +0.000 N 
ATOM     10  C   UNL     1       1.513   3.058  21.256  0.00  0.00    +0.000 C 
ATOM     11  O   UNL     1       1.278   2.754  22.412  0.00  0.00    +0.000 OA
ATOM     12  N   UNL     1       0.714   2.842  20.190  0.00  0.00    +0.000 N 
ATOM     13  C   UNL     1       1.320   3.273  19.048  0.00  0.00    +0.000 C 
ATOM     14  O   UNL     1       0.884   3.080  17.921  0.00  0.00    +0.000 OA
ATOM     15  H   UNL     1       3.370   3.941  21.489  0.00  0.00    +0.000 HD
ATOM     16  H   UNL     1      -0.149   2.332  20.231  0.00  0.00    +0.000 HD
ENDBRANCH   1   8
BRANCH   5  17
ATOM     17  N   UNL     1       1.466   8.526  21.388  0.00  0.00    +0.000 N 
ATOM     18  C   UNL     1       0.165   8.593  21.874  0.00  0.00    +0.000 C 
ATOM     19  O   UNL     1      -0.808   7.985  21.428  0.00  0.00    +0.000 OA
ATOM     20  H   UNL     1       2.193   8.881  22.002  0.00  0.00    +0.000 HD
BRANCH  18  21
ATOM     21  C   UNL     1       0.002   9.488  23.084  0.00  0.00    +0.000 C 
BRANCH  21  22
ATOM     22  C   UNL     1      -0.649  10.802  22.738  0.00  0.00    +0.000 A 
ATOM     23  C   UNL     1      -1.899  11.132  23.283  0.00  0.00    +0.000 A 
ATOM     24  C   UNL     1      -2.515  12.344  22.971  0.00  0.00    +0.000 A 
ATOM     25  C   UNL     1      -1.885  13.245  22.113  0.00  0.00    +0.000 A 
ATOM     26  C   UNL     1      -0.632  12.939  21.581  0.00  0.00    +0.000 A 
ATOM     27  C   UNL     1      -0.020  11.728  21.903  0.00  0.00    +0.000 A 
BRANCH  27  28
ATOM     28  O   UNL     1       1.213  11.419  21.397  0.00  0.00    +0.000 OA
ATOM     29  H   UNL     1       1.504  10.587  21.807  0.00  0.00    +0.000 HD
ENDBRANCH  27  28
ENDBRANCH  21  22
ENDBRANCH  18  21
ENDBRANCH   5  17
TORSDOF 5
ENDMDL
MODEL 6
REMARK VINA RESULT:      -8.4      1.578      2.180
REMARK  Name = 
REMARK  6 active torsions:
REMARK  status: ('A' for Active; 'I' for Inactive)
REMARK    1  A    between atoms: C_1  and  C_2
REMARK    2  A    between atoms: C_2  and  C_3
REMARK    3  A    between atoms: C_7  and  N_8
REMARK    4  A    between atoms: C_9  and  C_11
REMARK    5  A    between atoms: C_11  and  C_12
REMARK    6  A    between atoms: C_17  and  O_18
REMARK                            x       y       z     vdW  Elec       q    Type
REMARK                         _______ _______ _______ _____ _____    ______ ____
ROOT
ATOM      1  C   UNL     1       5.197   6.002  17.644  0.00  0.00    +0.000 A 
ATOM      2  C   UNL     1       4.724   4.886  18.357  0.00  0.00    +0.000 A 
ATOM      3  C   UNL     1       3.401   4.812  18.777  0.00  0.00    +0.000 A 
ATOM      4  C   UNL     1       2.539   5.879  18.545  0.00  0.00    +0.000 A 
ATOM      5  C   UNL     1       2.989   7.042  17.921  0.00  0.00    +0.000 A 
ATOM      6  C   UNL     1       4.306   7.081  17.432  0.00  0.00    +0.000 A 
ENDROOT
BRANCH   1   8
ATOM      7  C   UNL     1       6.917   5.101  16.036  0.00  0.00    +0.000 C 
ATOM      8  C   UNL     1       6.660   6.060  17.195  0.00  0.00    +0.000 C 
ATOM      9  N   UNL     1       7.065   7.416  16.860  0.00  0.00    +0.000 N 
ATOM     10  C   UNL     1       7.847   7.988  17.829  0.00  0.00    +0.000 C 
ATOM     11  O   UNL     1       8.195   9.155  17.846  0.00  0.00    +0.000 OA
ATOM     12  N   UNL     1       8.186   7.035  18.723  0.00  0.00    +0.000 N 
ATOM     13  C   UNL     1       7.652   5.835  18.364  0.00  0.00    +0.000 C 
ATOM     14  O   UNL     1       7.907   4.773  18.917  0.00  0.00    +0.000 OA
ATOM     15  H   UNL     1       6.667   7.990  16.130  0.00  0.00    +0.000 HD
ATOM     16  H   UNL     1       8.835   7.180  19.476  0.00  0.00    +0.000 HD
ENDBRANCH   1   8
BRANCH   5  17
ATOM     17  N   UNL     1       2.173   8.190  17.790  0.00  0.00    +0.000 N 
ATOM     18  C   UNL     1       1.536   8.839  18.841  0.00  0.00    +0.000 C 
ATOM     19  O   UNL     1       1.615   8.541  20.033  0.00  0.00    +0.000 OA
ATOM     20  H   UNL     1       2.212   8.694  16.909  0.00  0.00    +0.000 HD
BRANCH  18  21
ATOM     21  C   UNL     1       0.709  10.036  18.419  0.00  0.00    +0.000 C 
BRANCH  21  22
ATOM     22  C   UNL     1       1.203  11.318  19.037  0.00  0.00    +0.000 A 
ATOM     23  C   UNL     1       0.736  11.715  20.299  0.00  0.00    +0.000 A 
ATOM     24  C   UNL     1       1.184  12.899  20.884  0.00  0.00    +0.000 A 
ATOM     25  C   UNL     1       2.109  13.700  20.215  0.00  0.00    +0.000 A 
ATOM     26  C   UNL     1       2.598  13.306  18.969  0.00  0.00    +0.000 A 
ATOM     27  C   UNL     1       2.150  12.117  18.394  0.00  0.00    +0.000 A 
BRANCH  27  28
ATOM     28  O   UNL     1       2.628  11.713  17.178  0.00  0.00    +0.000 OA
ATOM     29  H   UNL     1       2.018  12.039  16.495  0.00  0.00    +0.000 HD
ENDBRANCH  27  28
ENDBRANCH  21  22
ENDBRANCH  18  21
ENDBRANCH   5  17
TORSDOF 5
ENDMDL
MODEL 7
REMARK VINA RESULT:      -8.3      3.025      4.662
REMARK  Name = 
REMARK  6 active torsions:
REMARK  status: ('A' for Active; 'I' for Inactive)
REMARK    1  A    between atoms: C_1  and  C_2
REMARK    2  A    between atoms: C_2  and  C_3
REMARK    3  A    between atoms: C_7  and  N_8
REMARK    4  A    between atoms: C_9  and  C_11
REMARK    5  A    between atoms: C_11  and  C_12
REMARK    6  A    between atoms: C_17  and  O_18
REMARK                            x       y       z     vdW  Elec       q    Type
REMARK                         _______ _______ _______ _____ _____    ______ ____
ROOT
ATOM      1  C   UNL     1       3.235   4.495  18.499  0.00  0.00    +0.000 A 
ATOM      2  C   UNL     1       4.450   4.653  17.810  0.00  0.00    +0.000 A 
ATOM      3  C   UNL     1       4.861   5.902  17.359  0.00  0.00    +0.000 A 
ATOM      4  C   UNL     1       4.038   7.008  17.536  0.00  0.00    +0.000 A 
ATOM      5  C   UNL     1       2.785   6.881  18.135  0.00  0.00    +0.000 A 
ATOM      6  C   UNL     1       2.407   5.632  18.655  0.00  0.00    +0.000 A 
ENDROOT
BRANCH   1   8
ATOM      7  C   UNL     1       3.429   2.009  18.126  0.00  0.00    +0.000 C 
ATOM      8  C   UNL     1       2.804   3.106  18.982  0.00  0.00    +0.000 C 
ATOM      9  N   UNL     1       3.104   2.913  20.393  0.00  0.00    +0.000 N 
ATOM     10  C   UNL     1       1.990   3.000  21.186  0.00  0.00    +0.000 C 
ATOM     11  O   UNL     1       2.000   3.011  22.404  0.00  0.00    +0.000 OA
ATOM     12  N   UNL     1       0.899   3.032  20.391  0.00  0.00    +0.000 N 
ATOM     13  C   UNL     1       1.265   2.960  19.081  0.00  0.00    +0.000 C 
ATOM     14  O   UNL     1       0.478   2.834  18.151  0.00  0.00    +0.000 OA
ATOM     15  H   UNL     1       4.023   2.934  20.811  0.00  0.00    +0.000 HD
ATOM     16  H   UNL     1      -0.044   2.998  20.733  0.00  0.00    +0.000 HD
ENDBRANCH   1   8
BRANCH   5  17
ATOM     17  N   UNL     1       1.873   7.961  18.210  0.00  0.00    +0.000 N 
ATOM     18  C   UNL     1       1.471   8.585  19.386  0.00  0.00    +0.000 C 
ATOM     19  O   UNL     1       1.870   8.321  20.520  0.00  0.00    +0.000 OA
ATOM     20  H   UNL     1       1.649   8.446  17.346  0.00  0.00    +0.000 HD
BRANCH  18  21
ATOM     21  C   UNL     1       0.472   9.705  19.182  0.00  0.00    +0.000 C 
BRANCH  21  22
ATOM     22  C   UNL     1       1.089  11.064  19.386  0.00  0.00    +0.000 A 
ATOM     23  C   UNL     1       0.807  11.796  20.549  0.00  0.00    +0.000 A 
ATOM     24  C   UNL     1       1.370  13.056  20.753  0.00  0.00    +0.000 A 
ATOM     25  C   UNL     1       2.228  13.597  19.796  0.00  0.00    +0.000 A 
ATOM     26  C   UNL     1       2.534  12.871  18.645  0.00  0.00    +0.000 A 
ATOM     27  C   UNL     1       1.972  11.610  18.452  0.00  0.00    +0.000 A 
BRANCH  27  28
ATOM     28  O   UNL     1       2.271  10.882  17.333  0.00  0.00    +0.000 OA
ATOM     29  H   UNL     1       1.734  11.226  16.601  0.00  0.00    +0.000 HD
ENDBRANCH  27  28
ENDBRANCH  21  22
ENDBRANCH  18  21
ENDBRANCH   5  17
TORSDOF 5
ENDMDL
MODEL 8
REMARK VINA RESULT:      -8.3      2.883      4.290
REMARK  Name = 
REMARK  6 active torsions:
REMARK  status: ('A' for Active; 'I' for Inactive)
REMARK    1  A    between atoms: C_1  and  C_2
REMARK    2  A    between atoms: C_2  and  C_3
REMARK    3  A    between atoms: C_7  and  N_8
REMARK    4  A    between atoms: C_9  and  C_11
REMARK    5  A    between atoms: C_11  and  C_12
REMARK    6  A    between atoms: C_17  and  O_18
REMARK                            x       y       z     vdW  Elec       q    Type
REMARK                         _______ _______ _______ _____ _____    ______ ____
ROOT
ATOM      1  C   UNL     1       3.034   4.609  18.538  0.00  0.00    +0.000 A 
ATOM      2  C   UNL     1       3.975   4.824  17.516  0.00  0.00    +0.000 A 
ATOM      3  C   UNL     1       4.327   6.111  17.125  0.00  0.00    +0.000 A 
ATOM      4  C   UNL     1       3.701   7.208  17.706  0.00  0.00    +0.000 A 
ATOM      5  C   UNL     1       2.697   7.039  18.660  0.00  0.00    +0.000 A 
ATOM      6  C   UNL     1       2.399   5.739  19.105  0.00  0.00    +0.000 A 
ENDROOT
BRANCH   1   8
ATOM      7  C   UNL     1       3.298   2.158  18.010  0.00  0.00    +0.000 C 
ATOM      8  C   UNL     1       2.662   3.180  18.947  0.00  0.00    +0.000 C 
ATOM      9  N   UNL     1       3.009   2.913  20.335  0.00  0.00    +0.000 N 
ATOM     10  C   UNL     1       1.915   2.915  21.161  0.00  0.00    +0.000 C 
ATOM     11  O   UNL     1       1.960   2.854  22.377  0.00  0.00    +0.000 OA
ATOM     12  N   UNL     1       0.802   2.958  20.399  0.00  0.00    +0.000 N 
ATOM     13  C   UNL     1       1.132   2.976  19.077  0.00  0.00    +0.000 C 
ATOM     14  O   UNL     1       0.324   2.879  18.163  0.00  0.00    +0.000 OA
ATOM     15  H   UNL     1       3.938   2.940  20.729  0.00  0.00    +0.000 HD
ATOM     16  H   UNL     1      -0.130   2.871  20.763  0.00  0.00    +0.000 HD
ENDBRANCH   1   8
BRANCH   5  17
ATOM     17  N   UNL     1       1.953   8.128  19.172  0.00  0.00    +0.000 N 
ATOM     18  C   UNL     1       1.674   9.299  18.476  0.00  0.00    +0.000 C 
ATOM     19  O   UNL     1       1.995   9.547  17.314  0.00  0.00    +0.000 OA
ATOM     20  H   UNL     1       1.417   7.972  20.020  0.00  0.00    +0.000 HD
BRANCH  18  21
ATOM     21  C   UNL     1       0.870  10.311  19.266  0.00  0.00    +0.000 C 
BRANCH  21  22
ATOM     22  C   UNL     1      -0.501  10.531  18.683  0.00  0.00    +0.000 A 
ATOM     23  C   UNL     1      -0.970   9.699  17.656  0.00  0.00    +0.000 A 
ATOM     24  C   UNL     1      -2.237   9.890  17.105  0.00  0.00    +0.000 A 
ATOM     25  C   UNL     1      -3.054  10.916  17.579  0.00  0.00    +0.000 A 
ATOM     26  C   UNL     1      -2.609  11.738  18.614  0.00  0.00    +0.000 A 
ATOM     27  C   UNL     1      -1.344  11.536  19.164  0.00  0.00    +0.000 A 
BRANCH  27  28
ATOM     28  O   UNL     1      -0.898  12.328  20.186  0.00  0.00    +0.000 OA
ATOM     29  H   UNL     1      -1.673  12.634  20.686  0.00  0.00    +0.000 HD
ENDBRANCH  27  28
ENDBRANCH  21  22
ENDBRANCH  18  21
ENDBRANCH   5  17
TORSDOF 5
ENDMDL
MODEL 9
REMARK VINA RESULT:      -8.3      1.607      2.239
REMARK  Name = 
REMARK  6 active torsions:
REMARK  status: ('A' for Active; 'I' for Inactive)
REMARK    1  A    between atoms: C_1  and  C_2
REMARK    2  A    between atoms: C_2  and  C_3
REMARK    3  A    between atoms: C_7  and  N_8
REMARK    4  A    between atoms: C_9  and  C_11
REMARK    5  A    between atoms: C_11  and  C_12
REMARK    6  A    between atoms: C_17  and  O_18
REMARK                            x       y       z     vdW  Elec       q    Type
REMARK                         _______ _______ _______ _____ _____    ______ ____
ROOT
ATOM      1  C   UNL     1       5.149   6.025  17.486  0.00  0.00    +0.000 A 
ATOM      2  C   UNL     1       4.623   4.876  18.103  0.00  0.00    +0.000 A 
ATOM      3  C   UNL     1       3.286   4.813  18.479  0.00  0.00    +0.000 A 
ATOM      4  C   UNL     1       2.462   5.918  18.299  0.00  0.00    +0.000 A 
ATOM      5  C   UNL     1       2.963   7.108  17.773  0.00  0.00    +0.000 A 
ATOM      6  C   UNL     1       4.296   7.142  17.327  0.00  0.00    +0.000 A 
ENDROOT
BRANCH   1   8
ATOM      7  C   UNL     1       6.898   5.161  15.889  0.00  0.00    +0.000 C 
ATOM      8  C   UNL     1       6.626   6.070  17.085  0.00  0.00    +0.000 C 
ATOM      9  N   UNL     1       7.071   7.431  16.827  0.00  0.00    +0.000 N 
ATOM     10  C   UNL     1       7.834   7.938  17.846  0.00  0.00    +0.000 C 
ATOM     11  O   UNL     1       8.206   9.095  17.930  0.00  0.00    +0.000 OA
ATOM     12  N   UNL     1       8.125   6.937  18.704  0.00  0.00    +0.000 N 
ATOM     13  C   UNL     1       7.576   5.767  18.271  0.00  0.00    +0.000 C 
ATOM     14  O   UNL     1       7.791   4.675  18.780  0.00  0.00    +0.000 OA
ATOM     15  H   UNL     1       6.707   8.048  16.115  0.00  0.00    +0.000 HD
ATOM     16  H   UNL     1       8.752   7.031  19.482  0.00  0.00    +0.000 HD
ENDBRANCH   1   8
BRANCH   5  17
ATOM     17  N   UNL     1       2.184   8.288  17.702  0.00  0.00    +0.000 N 
ATOM     18  C   UNL     1       1.565   8.901  18.785  0.00  0.00    +0.000 C 
ATOM     19  O   UNL     1       1.632   8.538  19.959  0.00  0.00    +0.000 OA
ATOM     20  H   UNL     1       2.241   8.836  16.849  0.00  0.00    +0.000 HD
BRANCH  18  21
ATOM     21  C   UNL     1       0.777  10.143  18.425  0.00  0.00    +0.000 C 
BRANCH  21  22
ATOM     22  C   UNL     1       1.458  11.404  18.889  0.00  0.00    +0.000 A 
ATOM     23  C   UNL     1       2.308  12.104  18.020  0.00  0.00    +0.000 A 
ATOM     24  C   UNL     1       2.946  13.273  18.435  0.00  0.00    +0.000 A 
ATOM     25  C   UNL     1       2.738  13.760  19.725  0.00  0.00    +0.000 A 
ATOM     26  C   UNL     1       1.879  13.085  20.592  0.00  0.00    +0.000 A 
ATOM     27  C   UNL     1       1.240  11.921  20.168  0.00  0.00    +0.000 A 
BRANCH  27  28
ATOM     28  O   UNL     1       0.386  11.255  21.004  0.00  0.00    +0.000 OA
ATOM     29  H   UNL     1       0.527  11.592  21.905  0.00  0.00    +0.000 HD
ENDBRANCH  27  28
ENDBRANCH  21  22
ENDBRANCH  18  21
ENDBRANCH   5  17
TORSDOF 5
ENDMDL
