MODEL 1
REMARK VINA RESULT:      -8.3      0.000      0.000
REMARK  Name = 
REMARK  8 active torsions:
REMARK  status: ('A' for Active; 'I' for Inactive)
REMARK    1  A    between atoms: C_1  and  C_2
REMARK    2  A    between atoms: C_2  and  C_3
REMARK    3  A    between atoms: C_8  and  N_9
REMARK    4  A    between atoms: C_10  and  C_12
REMARK    5  A    between atoms: C_14  and  C_15
REMARK    6  A    between atoms: C_15  and  N_16
REMARK    7  A    between atoms: C_29  and  O_30
REMARK    8  A    between atoms: O_30  and  C_31
REMARK                            x       y       z     vdW  Elec       q    Type
REMARK                         _______ _______ _______ _____ _____    ______ ____
ROOT
ATOM      1  C   UNL     1       3.278   4.431  19.274  0.00  0.00    +0.000 A 
ATOM      2  C   UNL     1       2.920   5.543  20.046  0.00  0.00    +0.000 A 
ATOM      3  C   UNL     1       1.615   5.668  20.536  0.00  0.00    +0.000 A 
ATOM      4  C   UNL     1       0.715   4.612  20.396  0.00  0.00    +0.000 A 
ATOM      5  C   UNL     1       1.091   3.468  19.703  0.00  0.00    +0.000 A 
ATOM      6  C   UNL     1       2.354   3.379  19.099  0.00  0.00    +0.000 A 
ENDROOT
BRANCH   1   8
ATOM      7  N   UNL     1       4.548   5.009  17.263  0.00  0.00    +0.000 N 
ATOM      8  C   UNL     1       4.591   4.454  18.547  0.00  0.00    +0.000 C 
ATOM      9  O   UNL     1       5.591   4.007  19.095  0.00  0.00    +0.000 OA
ATOM     10  H   UNL     1       3.696   5.482  16.984  0.00  0.00    +0.000 HD
BRANCH   7  16
ATOM     11  C   UNL     1       6.550   5.845  16.124  0.00  0.00    +0.000 A 
ATOM     12  C   UNL     1       7.400   5.799  15.000  0.00  0.00    +0.000 A 
ATOM     13  C   UNL     1       7.272   4.800  14.039  0.00  0.00    +0.000 A 
ATOM     14  C   UNL     1       6.297   3.825  14.190  0.00  0.00    +0.000 A 
ATOM     15  C   UNL     1       5.419   3.874  15.275  0.00  0.00    +0.000 A 
ATOM     16  C   UNL     1       5.517   4.888  16.242  0.00  0.00    +0.000 A 
BRANCH  11  18
ATOM     17  C   UNL     1       7.782   6.411  18.277  0.00  0.00    +0.000 C 
ATOM     18  C   UNL     1       6.864   6.898  17.167  0.00  0.00    +0.000 C 
ENDBRANCH  11  18
ENDBRANCH   7  16
ENDBRANCH   1   8
BRANCH   6  19
ATOM     19  O   UNL     1       2.717   2.314  18.316  0.00  0.00    +0.000 OA
ATOM     20  C   UNL     1       3.469   1.282  18.947  0.00  0.00    +0.000 C 
ENDBRANCH   6  19
BRANCH   3  21
ATOM     21  C   UNL     1       1.103   6.991  20.997  0.00  0.00    +0.000 C 
BRANCH  21  22
ATOM     22  N   UNL     1       1.857   8.176  20.657  0.00  0.00    +0.000 N 
ATOM     23  C   UNL     1       1.502   9.207  21.505  0.00  0.00    +0.000 C 
ATOM     24  O   UNL     1       1.685   9.303  22.704  0.00  0.00    +0.000 OA
ATOM     25  C   UNL     1       0.629  10.086  20.737  0.00  0.00    +0.000 A 
ATOM     26  C   UNL     1      -0.470  10.782  21.207  0.00  0.00    +0.000 A 
ATOM     27  C   UNL     1      -1.419  11.174  20.259  0.00  0.00    +0.000 A 
ATOM     28  C   UNL     1      -1.234  10.891  18.888  0.00  0.00    +0.000 A 
ATOM     29  C   UNL     1      -0.119  10.174  18.445  0.00  0.00    +0.000 A 
ATOM     30  C   UNL     1       0.779   9.756  19.409  0.00  0.00    +0.000 A 
ATOM     31  C   UNL     1       1.674   8.600  19.353  0.00  0.00    +0.000 C 
ATOM     32  O   UNL     1       2.002   8.053  18.318  0.00  0.00    +0.000 OA
ENDBRANCH  21  22
ENDBRANCH   3  21
TORSDOF 6
ENDMDL
MODEL 2
REMARK VINA RESULT:      -8.1      2.701      8.485
REMARK  Name = 
REMARK  8 active torsions:
REMARK  status: ('A' for Active; 'I' for Inactive)
REMARK    1  A    between atoms: C_1  and  C_2
REMARK    2  A    between atoms: C_2  and  C_3
REMARK    3  A    between atoms: C_8  and  N_9
REMARK    4  A    between atoms: C_10  and  C_12
REMARK    5  A    between atoms: C_14  and  C_15
REMARK    6  A    between atoms: C_15  and  N_16
REMARK    7  A    between atoms: C_29  and  O_30
REMARK    8  A    between atoms: O_30  and  C_31
REMARK                            x       y       z     vdW  Elec       q    Type
REMARK                         _______ _______ _______ _____ _____    ______ ____
ROOT
ATOM      1  C   UNL     1       1.018   9.257  19.303  0.00  0.00    +0.000 A 
ATOM      2  C   UNL     1       1.828   8.462  18.483  0.00  0.00    +0.000 A 
ATOM      3  C   UNL     1       2.474   7.338  19.009  0.00  0.00    +0.000 A 
ATOM      4  C   UNL     1       2.188   6.915  20.306  0.00  0.00    +0.000 A 
ATOM      5  C   UNL     1       1.318   7.652  21.101  0.00  0.00    +0.000 A 
ATOM      6  C   UNL     1       0.758   8.849  20.629  0.00  0.00    +0.000 A 
ENDROOT
BRANCH   1   8
ATOM      7  N   UNL     1       1.177  11.698  19.372  0.00  0.00    +0.000 N 
ATOM      8  C   UNL     1       0.558  10.588  18.785  0.00  0.00    +0.000 C 
ATOM      9  O   UNL     1      -0.298  10.631  17.911  0.00  0.00    +0.000 OA
ATOM     10  H   UNL     1       1.975  11.529  19.972  0.00  0.00    +0.000 HD
BRANCH   7  16
ATOM     11  C   UNL     1       1.616  14.053  18.853  0.00  0.00    +0.000 A 
ATOM     12  C   UNL     1       1.229  15.403  18.978  0.00  0.00    +0.000 A 
ATOM     13  C   UNL     1      -0.011  15.752  19.508  0.00  0.00    +0.000 A 
ATOM     14  C   UNL     1      -0.887  14.757  19.914  0.00  0.00    +0.000 A 
ATOM     15  C   UNL     1      -0.508  13.414  19.836  0.00  0.00    +0.000 A 
ATOM     16  C   UNL     1       0.747  13.044  19.326  0.00  0.00    +0.000 A 
BRANCH  11  18
ATOM     17  C   UNL     1       3.707  15.047  17.796  0.00  0.00    +0.000 C 
ATOM     18  C   UNL     1       2.929  13.788  18.145  0.00  0.00    +0.000 C 
ENDBRANCH  11  18
ENDBRANCH   7  16
ENDBRANCH   1   8
BRANCH   6  19
ATOM     19  O   UNL     1      -0.014   9.658  21.422  0.00  0.00    +0.000 OA
ATOM     20  C   UNL     1       0.098   9.471  22.829  0.00  0.00    +0.000 C 
ENDBRANCH   6  19
BRANCH   3  21
ATOM     21  C   UNL     1       3.632   6.726  18.294  0.00  0.00    +0.000 C 
BRANCH  21  22
ATOM     22  N   UNL     1       3.952   5.343  18.562  0.00  0.00    +0.000 N 
ATOM     23  C   UNL     1       5.314   5.214  18.752  0.00  0.00    +0.000 C 
ATOM     24  O   UNL     1       6.003   5.660  19.650  0.00  0.00    +0.000 OA
ATOM     25  C   UNL     1       5.845   4.632  17.525  0.00  0.00    +0.000 A 
ATOM     26  C   UNL     1       7.059   4.916  16.929  0.00  0.00    +0.000 A 
ATOM     27  C   UNL     1       7.175   4.626  15.567  0.00  0.00    +0.000 A 
ATOM     28  C   UNL     1       6.104   4.044  14.856  0.00  0.00    +0.000 A 
ATOM     29  C   UNL     1       4.882   3.781  15.483  0.00  0.00    +0.000 A 
ATOM     30  C   UNL     1       4.779   4.122  16.818  0.00  0.00    +0.000 A 
ATOM     31  C   UNL     1       3.566   4.474  17.557  0.00  0.00    +0.000 C 
ATOM     32  O   UNL     1       2.446   4.179  17.190  0.00  0.00    +0.000 OA
ENDBRANCH  21  22
ENDBRANCH   3  21
TORSDOF 6
ENDMDL
MODEL 3
REMARK VINA RESULT:      -8.1      1.878      8.695
REMARK  Name = 
REMARK  8 active torsions:
REMARK  status: ('A' for Active; 'I' for Inactive)
REMARK    1  A    between atoms: C_1  and  C_2
REMARK    2  A    between atoms: C_2  and  C_3
REMARK    3  A    between atoms: C_8  and  N_9
REMARK    4  A    between atoms: C_10  and  C_12
REMARK    5  A    between atoms: C_14  and  C_15
REMARK    6  A    between atoms: C_15  and  N_16
REMARK    7  A    between atoms: C_29  and  O_30
REMARK    8  A    between atoms: O_30  and  C_31
REMARK                            x       y       z     vdW  Elec       q    Type
REMARK                         _______ _______ _______ _____ _____    ______ ____
ROOT
ATOM      1  C   UNL     1       1.963   8.244  18.696  0.00  0.00    +0.000 A 
ATOM      2  C   UNL     1       2.757   7.827  17.620  0.00  0.00    +0.000 A 
ATOM      3  C   UNL     1       3.643   6.755  17.773  0.00  0.00    +0.000 A 
ATOM      4  C   UNL     1       3.623   5.997  18.942  0.00  0.00    +0.000 A 
ATOM      5  C   UNL     1       2.776   6.353  19.985  0.00  0.00    +0.000 A 
ATOM      6  C   UNL     1       1.972   7.499  19.895  0.00  0.00    +0.000 A 
ENDROOT
BRANCH   1   8
ATOM      7  N   UNL     1      -0.039   9.566  19.177  0.00  0.00    +0.000 N 
ATOM      8  C   UNL     1       1.229   9.547  18.584  0.00  0.00    +0.000 C 
ATOM      9  O   UNL     1       1.757  10.488  18.005  0.00  0.00    +0.000 OA
ATOM     10  H   UNL     1      -0.299   8.777  19.756  0.00  0.00    +0.000 HD
BRANCH   7  16
ATOM     11  C   UNL     1      -1.340  11.494  19.949  0.00  0.00    +0.000 A 
ATOM     12  C   UNL     1      -2.478  12.313  19.799  0.00  0.00    +0.000 A 
ATOM     13  C   UNL     1      -3.303  12.205  18.683  0.00  0.00    +0.000 A 
ATOM     14  C   UNL     1      -2.999  11.282  17.693  0.00  0.00    +0.000 A 
ATOM     15  C   UNL     1      -1.899  10.433  17.840  0.00  0.00    +0.000 A 
ATOM     16  C   UNL     1      -1.069  10.511  18.971  0.00  0.00    +0.000 A 
BRANCH  11  18
ATOM     17  C   UNL     1      -0.911  11.141  22.432  0.00  0.00    +0.000 C 
ATOM     18  C   UNL     1      -0.446  11.788  21.136  0.00  0.00    +0.000 C 
ENDBRANCH  11  18
ENDBRANCH   7  16
ENDBRANCH   1   8
BRANCH   6  19
ATOM     19  O   UNL     1       1.208   7.942  20.944  0.00  0.00    +0.000 OA
ATOM     20  C   UNL     1       1.882   8.677  21.960  0.00  0.00    +0.000 C 
ENDBRANCH   6  19
BRANCH   3  21
ATOM     21  C   UNL     1       4.763   6.555  16.807  0.00  0.00    +0.000 C 
BRANCH  21  22
ATOM     22  N   UNL     1       5.654   5.436  17.011  0.00  0.00    +0.000 N 
ATOM     23  C   UNL     1       6.891   5.728  16.469  0.00  0.00    +0.000 C 
ATOM     24  O   UNL     1       7.695   6.571  16.818  0.00  0.00    +0.000 OA
ATOM     25  C   UNL     1       6.973   4.988  15.216  0.00  0.00    +0.000 A 
ATOM     26  C   UNL     1       7.578   5.403  14.044  0.00  0.00    +0.000 A 
ATOM     27  C   UNL     1       7.155   4.785  12.864  0.00  0.00    +0.000 A 
ATOM     28  C   UNL     1       6.177   3.768  12.888  0.00  0.00    +0.000 A 
ATOM     29  C   UNL     1       5.573   3.379  14.088  0.00  0.00    +0.000 A 
ATOM     30  C   UNL     1       5.974   4.039  15.233  0.00  0.00    +0.000 A 
ATOM     31  C   UNL     1       5.202   4.252  16.457  0.00  0.00    +0.000 C 
ATOM     32  O   UNL     1       4.236   3.583  16.767  0.00  0.00    +0.000 OA
ENDBRANCH  21  22
ENDBRANCH   3  21
TORSDOF 6
ENDMDL
MODEL 4
REMARK VINA RESULT:      -8.1      1.730      7.382
REMARK  Name = 
REMARK  8 active torsions:
REMARK  status: ('A' for Active; 'I' for Inactive)
REMARK    1  A    between atoms: C_1  and  C_2
REMARK    2  A    between atoms: C_2  and  C_3
REMARK    3  A    between atoms: C_8  and  N_9
REMARK    4  A    between atoms: C_10  and  C_12
REMARK    5  A    between atoms: C_14  and  C_15
REMARK    6  A    between atoms: C_15  and  N_16
REMARK    7  A    between atoms: C_29  and  O_30
REMARK    8  A    between atoms: O_30  and  C_31
REMARK                            x       y       z     vdW  Elec       q    Type
REMARK                         _______ _______ _______ _____ _____    ______ ____
ROOT
ATOM      1  C   UNL     1       2.913   5.374  19.474  0.00  0.00    +0.000 A 
ATOM      2  C   UNL     1       4.208   5.905  19.429  0.00  0.00    +0.000 A 
ATOM      3  C   UNL     1       5.294   5.085  19.105  0.00  0.00    +0.000 A 
ATOM      4  C   UNL     1       5.074   3.779  18.669  0.00  0.00    +0.000 A 
ATOM      5  C   UNL     1       3.782   3.269  18.630  0.00  0.00    +0.000 A 
ATOM      6  C   UNL     1       2.695   4.039  19.070  0.00  0.00    +0.000 A 
ENDROOT
BRANCH   1   8
ATOM      7  N   UNL     1       1.887   7.571  19.799  0.00  0.00    +0.000 N 
ATOM      8  C   UNL     1       1.818   6.202  20.078  0.00  0.00    +0.000 C 
ATOM      9  O   UNL     1       0.954   5.657  20.754  0.00  0.00    +0.000 OA
ATOM     10  H   UNL     1       2.558   7.876  19.105  0.00  0.00    +0.000 HD
BRANCH   7  16
ATOM     11  C   UNL     1       0.635   9.677  19.721  0.00  0.00    +0.000 A 
ATOM     12  C   UNL     1       0.116  10.792  20.411  0.00  0.00    +0.000 A 
ATOM     13  C   UNL     1       0.109  10.840  21.803  0.00  0.00    +0.000 A 
ATOM     14  C   UNL     1       0.615   9.772  22.528  0.00  0.00    +0.000 A 
ATOM     15  C   UNL     1       1.170   8.675  21.865  0.00  0.00    +0.000 A 
ATOM     16  C   UNL     1       1.208   8.618  20.462  0.00  0.00    +0.000 A 
BRANCH  11  18
ATOM     17  C   UNL     1      -0.922  10.062  17.746  0.00  0.00    +0.000 C 
ATOM     18  C   UNL     1       0.473   9.677  18.215  0.00  0.00    +0.000 C 
ENDBRANCH  11  18
ENDBRANCH   7  16
ENDBRANCH   1   8
BRANCH   6  19
ATOM     19  O   UNL     1       1.424   3.532  19.149  0.00  0.00    +0.000 OA
ATOM     20  C   UNL     1       1.254   2.167  18.780  0.00  0.00    +0.000 C 
ENDBRANCH   6  19
BRANCH   3  21
ATOM     21  C   UNL     1       6.687   5.505  19.438  0.00  0.00    +0.000 C 
BRANCH  21  22
ATOM     22  N   UNL     1       7.571   5.872  18.356  0.00  0.00    +0.000 N 
ATOM     23  C   UNL     1       6.949   6.806  17.550  0.00  0.00    +0.000 C 
ATOM     24  O   UNL     1       6.628   7.948  17.818  0.00  0.00    +0.000 OA
ATOM     25  C   UNL     1       6.514   6.092  16.357  0.00  0.00    +0.000 A 
ATOM     26  C   UNL     1       5.354   6.310  15.635  0.00  0.00    +0.000 A 
ATOM     27  C   UNL     1       4.900   5.255  14.840  0.00  0.00    +0.000 A 
ATOM     28  C   UNL     1       5.617   4.042  14.765  0.00  0.00    +0.000 A 
ATOM     29  C   UNL     1       6.780   3.846  15.518  0.00  0.00    +0.000 A 
ATOM     30  C   UNL     1       7.180   4.887  16.333  0.00  0.00    +0.000 A 
ATOM     31  C   UNL     1       7.961   4.805  17.567  0.00  0.00    +0.000 C 
ATOM     32  O   UNL     1       8.658   3.852  17.859  0.00  0.00    +0.000 OA
ENDBRANCH  21  22
ENDBRANCH   3  21
TORSDOF 6
ENDMDL
MODEL 5
REMARK VINA RESULT:      -8.0      1.740      2.758
REMARK  Name = 
REMARK  8 active torsions:
REMARK  status: ('A' for Active; 'I' for Inactive)
REMARK    1  A    between atoms: C_1  and  C_2
REMARK    2  A    between atoms: C_2  and  C_3
REMARK    3  A    between atoms: C_8  and  N_9
REMARK    4  A    between atoms: C_10  and  C_12
REMARK    5  A    between atoms: C_14  and  C_15
REMARK    6  A    between atoms: C_15  and  N_16
REMARK    7  A    between atoms: C_29  and  O_30
REMARK    8  A    between atoms: O_30  and  C_31
REMARK                            x       y       z     vdW  Elec       q    Type
REMARK                         _______ _______ _______ _____ _____    ______ ____
ROOT
ATOM      1  C   UNL     1       2.679   5.895  18.954  0.00  0.00    +0.000 A 
ATOM      2  C   UNL     1       2.523   7.276  18.780  0.00  0.00    +0.000 A 
ATOM      3  C   UNL     1       1.736   8.013  19.672  0.00  0.00    +0.000 A 
ATOM      4  C   UNL     1       1.238   7.407  20.825  0.00  0.00    +0.000 A 
ATOM      5  C   UNL     1       1.460   6.054  21.048  0.00  0.00    +0.000 A 
ATOM      6  C   UNL     1       2.142   5.274  20.102  0.00  0.00    +0.000 A 
ENDROOT
BRANCH   1   8
ATOM      7  N   UNL     1       4.665   5.327  17.642  0.00  0.00    +0.000 N 
ATOM      8  C   UNL     1       3.300   5.097  17.846  0.00  0.00    +0.000 C 
ATOM      9  O   UNL     1       2.607   4.317  17.204  0.00  0.00    +0.000 OA
ATOM     10  H   UNL     1       5.157   5.879  18.334  0.00  0.00    +0.000 HD
BRANCH   7  16
ATOM     11  C   UNL     1       6.760   5.453  16.376  0.00  0.00    +0.000 A 
ATOM     12  C   UNL     1       7.445   5.235  15.163  0.00  0.00    +0.000 A 
ATOM     13  C   UNL     1       6.861   4.517  14.123  0.00  0.00    +0.000 A 
ATOM     14  C   UNL     1       5.584   3.998  14.281  0.00  0.00    +0.000 A 
ATOM     15  C   UNL     1       4.872   4.236  15.459  0.00  0.00    +0.000 A 
ATOM     16  C   UNL     1       5.435   4.978  16.510  0.00  0.00    +0.000 A 
BRANCH  11  18
ATOM     17  C   UNL     1       7.458   7.652  17.450  0.00  0.00    +0.000 C 
ATOM     18  C   UNL     1       7.540   6.133  17.482  0.00  0.00    +0.000 C 
ENDBRANCH  11  18
ENDBRANCH   7  16
ENDBRANCH   1   8
BRANCH   6  19
ATOM     19  O   UNL     1       2.282   3.917  20.237  0.00  0.00    +0.000 OA
ATOM     20  C   UNL     1       1.083   3.153  20.312  0.00  0.00    +0.000 C 
ENDBRANCH   6  19
BRANCH   3  21
ATOM     21  C   UNL     1       1.229   9.365  19.295  0.00  0.00    +0.000 C 
BRANCH  21  22
ATOM     22  N   UNL     1       0.065   9.878  19.982  0.00  0.00    +0.000 N 
ATOM     23  C   UNL     1      -0.768  10.499  19.072  0.00  0.00    +0.000 C 
ATOM     24  O   UNL     1      -1.394  10.005  18.153  0.00  0.00    +0.000 OA
ATOM     25  C   UNL     1      -0.582  11.932  19.258  0.00  0.00    +0.000 A 
ATOM     26  C   UNL     1      -0.590  12.906  18.276  0.00  0.00    +0.000 A 
ATOM     27  C   UNL     1       0.054  14.109  18.576  0.00  0.00    +0.000 A 
ATOM     28  C   UNL     1       0.655  14.315  19.836  0.00  0.00    +0.000 A 
ATOM     29  C   UNL     1       0.660  13.306  20.805  0.00  0.00    +0.000 A 
ATOM     30  C   UNL     1       0.058  12.110  20.465  0.00  0.00    +0.000 A 
ATOM     31  C   UNL     1       0.361  10.778  20.989  0.00  0.00    +0.000 C 
ATOM     32  O   UNL     1       0.938  10.585  22.041  0.00  0.00    +0.000 OA
ENDBRANCH  21  22
ENDBRANCH   3  21
TORSDOF 6
ENDMDL
MODEL 6
REMARK VINA RESULT:      -8.0      1.382      2.184
REMARK  Name = 
REMARK  8 active torsions:
REMARK  status: ('A' for Active; 'I' for Inactive)
REMARK    1  A    between atoms: C_1  and  C_2
REMARK    2  A    between atoms: C_2  and  C_3
REMARK    3  A    between atoms: C_8  and  N_9
REMARK    4  A    between atoms: C_10  and  C_12
REMARK    5  A    between atoms: C_14  and  C_15
REMARK    6  A    between atoms: C_15  and  N_16
REMARK    7  A    between atoms: C_29  and  O_30
REMARK    8  A    between atoms: O_30  and  C_31
REMARK                            x       y       z     vdW  Elec       q    Type
REMARK                         _______ _______ _______ _____ _____    ______ ____
ROOT
ATOM      1  C   UNL     1       3.280   4.986  19.439  0.00  0.00    +0.000 A 
ATOM      2  C   UNL     1       3.211   6.296  19.931  0.00  0.00    +0.000 A 
ATOM      3  C   UNL     1       2.020   6.778  20.484  0.00  0.00    +0.000 A 
ATOM      4  C   UNL     1       0.950   5.909  20.695  0.00  0.00    +0.000 A 
ATOM      5  C   UNL     1       1.040   4.584  20.285  0.00  0.00    +0.000 A 
ATOM      6  C   UNL     1       2.182   4.118  19.618  0.00  0.00    +0.000 A 
ENDROOT
BRANCH   1   8
ATOM      7  N   UNL     1       4.643   5.310  17.432  0.00  0.00    +0.000 N 
ATOM      8  C   UNL     1       4.473   4.589  18.620  0.00  0.00    +0.000 C 
ATOM      9  O   UNL     1       5.205   3.692  19.018  0.00  0.00    +0.000 OA
ATOM     10  H   UNL     1       4.061   6.127  17.290  0.00  0.00    +0.000 HD
BRANCH   7  16
ATOM     11  C   UNL     1       6.808   5.389  16.287  0.00  0.00    +0.000 A 
ATOM     12  C   UNL     1       7.550   5.185  15.105  0.00  0.00    +0.000 A 
ATOM     13  C   UNL     1       6.994   4.534  14.007  0.00  0.00    +0.000 A 
ATOM     14  C   UNL     1       5.689   4.068  14.075  0.00  0.00    +0.000 A 
ATOM     15  C   UNL     1       4.923   4.294  15.222  0.00  0.00    +0.000 A 
ATOM     16  C   UNL     1       5.460   4.970  16.330  0.00  0.00    +0.000 A 
BRANCH  11  18
ATOM     17  C   UNL     1       7.562   7.512  17.469  0.00  0.00    +0.000 C 
ATOM     18  C   UNL     1       7.555   5.991  17.459  0.00  0.00    +0.000 C 
ENDBRANCH  11  18
ENDBRANCH   7  16
ENDBRANCH   1   8
BRANCH   6  19
ATOM     19  O   UNL     1       2.262   2.850  19.103  0.00  0.00    +0.000 OA
ATOM     20  C   UNL     1       1.033   2.220  18.758  0.00  0.00    +0.000 C 
ENDBRANCH   6  19
BRANCH   3  21
ATOM     21  C   UNL     1       1.794   8.245  20.636  0.00  0.00    +0.000 C 
BRANCH  21  22
ATOM     22  N   UNL     1       0.653   8.836  19.975  0.00  0.00    +0.000 N 
ATOM     23  C   UNL     1       1.055   9.396  18.777  0.00  0.00    +0.000 C 
ATOM     24  O   UNL     1       1.480   8.840  17.782  0.00  0.00    +0.000 OA
ATOM     25  C   UNL     1       1.109  10.836  18.996  0.00  0.00    +0.000 A 
ATOM     26  C   UNL     1       2.024  11.724  18.461  0.00  0.00    +0.000 A 
ATOM     27  C   UNL     1       2.196  12.934  19.137  0.00  0.00    +0.000 A 
ATOM     28  C   UNL     1       1.444  13.233  20.293  0.00  0.00    +0.000 A 
ATOM     29  C   UNL     1       0.535  12.309  20.819  0.00  0.00    +0.000 A 
ATOM     30  C   UNL     1       0.420  11.101  20.159  0.00  0.00    +0.000 A 
ATOM     31  C   UNL     1       0.018   9.811  20.722  0.00  0.00    +0.000 C 
ATOM     32  O   UNL     1      -0.602   9.696  21.761  0.00  0.00    +0.000 OA
ENDBRANCH  21  22
ENDBRANCH   3  21
TORSDOF 6
ENDMDL
MODEL 7
REMARK VINA RESULT:      -8.0      4.567      7.118
REMARK  Name = 
REMARK  8 active torsions:
REMARK  status: ('A' for Active; 'I' for Inactive)
REMARK    1  A    between atoms: C_1  and  C_2
REMARK    2  A    between atoms: C_2  and  C_3
REMARK    3  A    between atoms: C_8  and  N_9
REMARK    4  A    between atoms: C_10  and  C_12
REMARK    5  A    between atoms: C_14  and  C_15
REMARK    6  A    between atoms: C_15  and  N_16
REMARK    7  A    between atoms: C_29  and  O_30
REMARK    8  A    between atoms: O_30  and  C_31
REMARK                            x       y       z     vdW  Elec       q    Type
REMARK                         _______ _______ _______ _____ _____    ______ ____
ROOT
ATOM      1  C   UNL     1       0.915  10.552  19.557  0.00  0.00    +0.000 A 
ATOM      2  C   UNL     1       1.197  11.807  19.002  0.00  0.00    +0.000 A 
ATOM      3  C   UNL     1       0.721  12.971  19.615  0.00  0.00    +0.000 A 
ATOM      4  C   UNL     1       0.104  12.897  20.863  0.00  0.00    +0.000 A 
ATOM      5  C   UNL     1      -0.106  11.661  21.461  0.00  0.00    +0.000 A 
ATOM      6  C   UNL     1       0.255  10.476  20.803  0.00  0.00    +0.000 A 
ENDROOT
BRANCH   1   8
ATOM      7  N   UNL     1       1.928   8.329  19.412  0.00  0.00    +0.000 N 
ATOM      8  C   UNL     1       1.206   9.325  18.745  0.00  0.00    +0.000 C 
ATOM      9  O   UNL     1       0.811   9.262  17.587  0.00  0.00    +0.000 OA
ATOM     10  H   UNL     1       2.063   8.436  20.410  0.00  0.00    +0.000 HD
BRANCH   7  16
ATOM     11  C   UNL     1       2.537   5.956  19.444  0.00  0.00    +0.000 A 
ATOM     12  C   UNL     1       3.358   4.920  18.953  0.00  0.00    +0.000 A 
ATOM     13  C   UNL     1       4.191   5.118  17.855  0.00  0.00    +0.000 A 
ATOM     14  C   UNL     1       4.211   6.353  17.224  0.00  0.00    +0.000 A 
ATOM     15  C   UNL     1       3.436   7.405  17.718  0.00  0.00    +0.000 A 
ATOM     16  C   UNL     1       2.607   7.231  18.839  0.00  0.00    +0.000 A 
BRANCH  11  18
ATOM     17  C   UNL     1       1.188   4.120  20.578  0.00  0.00    +0.000 C 
ATOM     18  C   UNL     1       1.579   5.590  20.559  0.00  0.00    +0.000 C 
ENDBRANCH  11  18
ENDBRANCH   7  16
ENDBRANCH   1   8
BRANCH   6  19
ATOM     19  O   UNL     1      -0.036   9.238  21.313  0.00  0.00    +0.000 OA
ATOM     20  C   UNL     1      -0.226   9.154  22.721  0.00  0.00    +0.000 C 
ENDBRANCH   6  19
BRANCH   3  21
ATOM     21  C   UNL     1       0.653  14.253  18.855  0.00  0.00    +0.000 C 
BRANCH  21  22
ATOM     22  N   UNL     1       1.160  15.452  19.484  0.00  0.00    +0.000 N 
ATOM     23  C   UNL     1       0.112  16.315  19.738  0.00  0.00    +0.000 C 
ATOM     24  O   UNL     1      -0.820  16.175  20.508  0.00  0.00    +0.000 OA
ATOM     25  C   UNL     1       0.184  17.357  18.721  0.00  0.00    +0.000 A 
ATOM     26  C   UNL     1      -0.879  17.992  18.106  0.00  0.00    +0.000 A 
ATOM     27  C   UNL     1      -0.624  18.593  16.870  0.00  0.00    +0.000 A 
ATOM     28  C   UNL     1       0.669  18.569  16.305  0.00  0.00    +0.000 A 
ATOM     29  C   UNL     1       1.722  17.906  16.945  0.00  0.00    +0.000 A 
ATOM     30  C   UNL     1       1.431  17.280  18.142  0.00  0.00    +0.000 A 
ATOM     31  C   UNL     1       2.105  16.122  18.729  0.00  0.00    +0.000 C 
ATOM     32  O   UNL     1       3.227  15.770  18.421  0.00  0.00    +0.000 OA
ENDBRANCH  21  22
ENDBRANCH   3  21
TORSDOF 6
ENDMDL
MODEL 8
REMARK VINA RESULT:      -8.0      2.319      8.693
REMARK  Name = 
REMARK  8 active torsions:
REMARK  status: ('A' for Active; 'I' for Inactive)
REMARK    1  A    between atoms: C_1  and  C_2
REMARK    2  A    between atoms: C_2  and  C_3
REMARK    3  A    between atoms: C_8  and  N_9
REMARK    4  A    between atoms: C_10  and  C_12
REMARK    5  A    between atoms: C_14  and  C_15
REMARK    6  A    between atoms: C_15  and  N_16
REMARK    7  A    between atoms: C_29  and  O_30
REMARK    8  A    between atoms: O_30  and  C_31
REMARK                            x       y       z     vdW  Elec       q    Type
REMARK                         _______ _______ _______ _____ _____    ______ ____
ROOT
ATOM      1  C   UNL     1       1.050   9.215  19.421  0.00  0.00    +0.000 A 
ATOM      2  C   UNL     1       1.861   8.452  18.571  0.00  0.00    +0.000 A 
ATOM      3  C   UNL     1       2.476   7.288  19.045  0.00  0.00    +0.000 A 
ATOM      4  C   UNL     1       2.156   6.798  20.310  0.00  0.00    +0.000 A 
ATOM      5  C   UNL     1       1.285   7.506  21.129  0.00  0.00    +0.000 A 
ATOM      6  C   UNL     1       0.757   8.738  20.716  0.00  0.00    +0.000 A 
ENDROOT
BRANCH   1   8
ATOM      7  N   UNL     1       1.207  11.644  19.671  0.00  0.00    +0.000 N 
ATOM      8  C   UNL     1       0.625  10.582  18.971  0.00  0.00    +0.000 C 
ATOM      9  O   UNL     1      -0.176  10.691  18.050  0.00  0.00    +0.000 OA
ATOM     10  H   UNL     1       1.967  11.429  20.305  0.00  0.00    +0.000 HD
BRANCH   7  16
ATOM     11  C   UNL     1      -0.375  13.362  20.414  0.00  0.00    +0.000 A 
ATOM     12  C   UNL     1      -0.872  14.675  20.283  0.00  0.00    +0.000 A 
ATOM     13  C   UNL     1      -0.213  15.621  19.502  0.00  0.00    +0.000 A 
ATOM     14  C   UNL     1       0.959  15.273  18.847  0.00  0.00    +0.000 A 
ATOM     15  C   UNL     1       1.448  13.967  18.931  0.00  0.00    +0.000 A 
ATOM     16  C   UNL     1       0.784  12.992  19.694  0.00  0.00    +0.000 A 
BRANCH  11  18
ATOM     17  C   UNL     1      -1.152  12.998  22.810  0.00  0.00    +0.000 C 
ATOM     18  C   UNL     1      -1.100  12.458  21.389  0.00  0.00    +0.000 C 
ENDBRANCH  11  18
ENDBRANCH   7  16
ENDBRANCH   1   8
BRANCH   6  19
ATOM     19  O   UNL     1      -0.016   9.515  21.539  0.00  0.00    +0.000 OA
ATOM     20  C   UNL     1       0.245   9.426  22.936  0.00  0.00    +0.000 C 
ENDBRANCH   6  19
BRANCH   3  21
ATOM     21  C   UNL     1       3.636   6.695  18.317  0.00  0.00    +0.000 C 
BRANCH  21  22
ATOM     22  N   UNL     1       3.957   5.305  18.553  0.00  0.00    +0.000 N 
ATOM     23  C   UNL     1       5.319   5.175  18.746  0.00  0.00    +0.000 C 
ATOM     24  O   UNL     1       6.002   5.599  19.658  0.00  0.00    +0.000 OA
ATOM     25  C   UNL     1       5.856   4.624  17.508  0.00  0.00    +0.000 A 
ATOM     26  C   UNL     1       7.073   4.925  16.925  0.00  0.00    +0.000 A 
ATOM     27  C   UNL     1       7.196   4.669  15.556  0.00  0.00    +0.000 A 
ATOM     28  C   UNL     1       6.129   4.103  14.826  0.00  0.00    +0.000 A 
ATOM     29  C   UNL     1       4.905   3.823  15.441  0.00  0.00    +0.000 A 
ATOM     30  C   UNL     1       4.794   4.130  16.783  0.00  0.00    +0.000 A 
ATOM     31  C   UNL     1       3.578   4.462  17.525  0.00  0.00    +0.000 C 
ATOM     32  O   UNL     1       2.460   4.174  17.145  0.00  0.00    +0.000 OA
ENDBRANCH  21  22
ENDBRANCH   3  21
TORSDOF 6
ENDMDL
MODEL 9
REMARK VINA RESULT:      -7.9      1.351      1.806
REMARK  Name = 
REMARK  8 active torsions:
REMARK  status: ('A' for Active; 'I' for Inactive)
REMARK    1  A    between atoms: C_1  and  C_2
REMARK    2  A    between atoms: C_2  and  C_3
REMARK    3  A    between atoms: C_8  and  N_9
REMARK    4  A    between atoms: C_10  and  C_12
REMARK    5  A    between atoms: C_14  and  C_15
REMARK    6  A    between atoms: C_15  and  N_16
REMARK    7  A    between atoms: C_29  and  O_30
REMARK    8  A    between atoms: O_30  and  C_31
REMARK                            x       y       z     vdW  Elec       q    Type
REMARK                         _______ _______ _______ _____ _____    ______ ____
ROOT
ATOM      1  C   UNL     1       3.060   6.061  18.891  0.00  0.00    +0.000 A 
ATOM      2  C   UNL     1       2.493   7.227  19.422  0.00  0.00    +0.000 A 
ATOM      3  C   UNL     1       1.576   7.147  20.475  0.00  0.00    +0.000 A 
ATOM      4  C   UNL     1       1.346   5.926  21.106  0.00  0.00    +0.000 A 
ATOM      5  C   UNL     1       1.971   4.775  20.639  0.00  0.00    +0.000 A 
ATOM      6  C   UNL     1       2.797   4.819  19.506  0.00  0.00    +0.000 A 
ENDROOT
BRANCH   1   8
ATOM      7  N   UNL     1       4.292   4.937  17.100  0.00  0.00    +0.000 N 
ATOM      8  C   UNL     1       3.824   6.156  17.604  0.00  0.00    +0.000 C 
ATOM      9  O   UNL     1       3.991   7.251  17.081  0.00  0.00    +0.000 OA
ATOM     10  H   UNL     1       3.960   4.088  17.542  0.00  0.00    +0.000 HD
BRANCH   7  16
ATOM     11  C   UNL     1       6.634   5.044  16.385  0.00  0.00    +0.000 A 
ATOM     12  C   UNL     1       7.571   5.001  15.332  0.00  0.00    +0.000 A 
ATOM     13  C   UNL     1       7.198   4.614  14.048  0.00  0.00    +0.000 A 
ATOM     14  C   UNL     1       5.881   4.255  13.796  0.00  0.00    +0.000 A 
ATOM     15  C   UNL     1       4.928   4.328  14.815  0.00  0.00    +0.000 A 
ATOM     16  C   UNL     1       5.281   4.739  16.111  0.00  0.00    +0.000 A 
BRANCH  11  18
ATOM     17  C   UNL     1       7.522   6.819  17.977  0.00  0.00    +0.000 C 
ATOM     18  C   UNL     1       7.178   5.353  17.764  0.00  0.00    +0.000 C 
ENDBRANCH  11  18
ENDBRANCH   7  16
ENDBRANCH   1   8
BRANCH   6  19
ATOM     19  O   UNL     1       3.340   3.688  18.953  0.00  0.00    +0.000 OA
ATOM     20  C   UNL     1       3.901   2.740  19.854  0.00  0.00    +0.000 C 
ENDBRANCH   6  19
BRANCH   3  21
ATOM     21  C   UNL     1       0.671   8.294  20.780  0.00  0.00    +0.000 C 
BRANCH  21  22
ATOM     22  N   UNL     1       1.259   9.601  20.968  0.00  0.00    +0.000 N 
ATOM     23  C   UNL     1       0.929  10.078  22.222  0.00  0.00    +0.000 C 
ATOM     24  O   UNL     1       1.265   9.651  23.311  0.00  0.00    +0.000 OA
ATOM     25  C   UNL     1      -0.118  11.071  22.020  0.00  0.00    +0.000 A 
ATOM     26  C   UNL     1      -1.202  11.314  22.843  0.00  0.00    +0.000 A 
ATOM     27  C   UNL     1      -2.304  11.948  22.262  0.00  0.00    +0.000 A 
ATOM     28  C   UNL     1      -2.283  12.341  20.907  0.00  0.00    +0.000 A 
ATOM     29  C   UNL     1      -1.177  12.068  20.096  0.00  0.00    +0.000 A 
ATOM     30  C   UNL     1      -0.122  11.398  20.682  0.00  0.00    +0.000 A 
ATOM     31  C   UNL     1       0.860  10.533  20.027  0.00  0.00    +0.000 C 
ATOM     32  O   UNL     1       1.093  10.563  18.835  0.00  0.00    +0.000 OA
ENDBRANCH  21  22
ENDBRANCH   3  21
TORSDOF 6
ENDMDL
