MODEL 1
REMARK VINA RESULT:      -8.4      0.000      0.000
REMARK  Name = 
REMARK  8 active torsions:
REMARK  status: ('A' for Active; 'I' for Inactive)
REMARK    1  A    between atoms: C_1  and  C_2
REMARK    2  A    between atoms: C_4  and  N_5
REMARK    3  A    between atoms: C_6  and  C_8
REMARK    4  A    between atoms: C_12  and  S_13
REMARK    5  A    between atoms: S_13  and  N_16
REMARK    6  A    between atoms: N_16  and  C_17
REMARK    7  A    between atoms: N_16  and  C_24
REMARK    8  A    between atoms: C_17  and  C_18
REMARK                            x       y       z     vdW  Elec       q    Type
REMARK                         _______ _______ _______ _____ _____    ______ ____
ROOT
ATOM      1  C   UNL     1       2.708   7.477  18.533  0.00  0.00    +0.000 A 
ATOM      2  C   UNL     1       2.305   6.765  19.673  0.00  0.00    +0.000 A 
ATOM      3  C   UNL     1       3.116   5.764  20.184  0.00  0.00    +0.000 A 
ATOM      4  C   UNL     1       4.279   5.415  19.504  0.00  0.00    +0.000 A 
ATOM      5  C   UNL     1       4.615   6.021  18.276  0.00  0.00    +0.000 A 
ATOM      6  C   UNL     1       3.846   7.080  17.797  0.00  0.00    +0.000 A 
ENDROOT
BRANCH   1   8
ATOM      7  N   UNL     1       1.094   9.255  19.154  0.00  0.00    +0.000 N 
ATOM      8  C   UNL     1       1.957   8.695  18.139  0.00  0.00    +0.000 C 
ATOM      9  O   UNL     1       2.113   9.223  17.052  0.00  0.00    +0.000 OA
ATOM     10  H   UNL     1       1.046   8.813  20.062  0.00  0.00    +0.000 HD
BRANCH   7  14
ATOM     11  C   UNL     1      -0.400  14.013  19.188  0.00  0.00    +0.000 C 
ATOM     12  C   UNL     1      -0.312  12.545  19.017  0.00  0.00    +0.000 A 
ATOM     13  C   UNL     1       0.825  11.729  19.216  0.00  0.00    +0.000 A 
ATOM     14  C   UNL     1       0.389  10.444  19.012  0.00  0.00    +0.000 A 
ATOM     15  N   UNL     1      -0.931  10.565  18.654  0.00  0.00    +0.000 N 
ATOM     16  N   UNL     1      -1.381  11.824  18.661  0.00  0.00    +0.000 NA
ATOM     17  H   UNL     1      -1.588   9.829  18.407  0.00  0.00    +0.000 HD
ENDBRANCH   7  14
ENDBRANCH   1   8
BRANCH   5  18
ATOM     18  S   UNL     1       6.080   5.360  17.485  0.00  0.00    +0.000 S 
ATOM     19  O   UNL     1       6.590   6.483  16.725  0.00  0.00    +0.000 OA
ATOM     20  O   UNL     1       6.856   4.795  18.571  0.00  0.00    +0.000 OA
BRANCH  18  21
ATOM     21  N   UNL     1       5.662   4.125  16.418  0.00  0.00    +0.000 N 
BRANCH  21  22
ATOM     22  C   UNL     1       6.058   4.231  15.046  0.00  0.00    +0.000 A 
ATOM     23  C   UNL     1       7.243   4.875  14.685  0.00  0.00    +0.000 A 
ATOM     24  C   UNL     1       7.624   4.933  13.340  0.00  0.00    +0.000 A 
ATOM     25  C   UNL     1       6.822   4.352  12.357  0.00  0.00    +0.000 A 
ATOM     26  C   UNL     1       5.636   3.713  12.715  0.00  0.00    +0.000 A 
ATOM     27  C   UNL     1       5.255   3.653  14.058  0.00  0.00    +0.000 A 
ENDBRANCH  21  22
BRANCH  21  28
ATOM     28  C   UNL     1       5.053   2.865  16.881  0.00  0.00    +0.000 C 
BRANCH  28  29
ATOM     29  C   UNL     1       3.699   2.929  17.570  0.00  0.00    +0.000 A 
ATOM     30  C   UNL     1       2.685   3.731  17.008  0.00  0.00    +0.000 A 
ATOM     31  C   UNL     1       1.383   3.730  17.523  0.00  0.00    +0.000 A 
ATOM     32  C   UNL     1       1.064   2.918  18.606  0.00  0.00    +0.000 A 
ATOM     33  C   UNL     1       2.048   2.115  19.175  0.00  0.00    +0.000 A 
ATOM     34  C   UNL     1       3.353   2.120  18.661  0.00  0.00    +0.000 A 
ENDBRANCH  28  29
ENDBRANCH  21  28
ENDBRANCH  18  21
ENDBRANCH   5  18
TORSDOF 7
ENDMDL
MODEL 2
REMARK VINA RESULT:      -8.3      4.812      5.880
REMARK  Name = 
REMARK  8 active torsions:
REMARK  status: ('A' for Active; 'I' for Inactive)
REMARK    1  A    between atoms: C_1  and  C_2
REMARK    2  A    between atoms: C_4  and  N_5
REMARK    3  A    between atoms: C_6  and  C_8
REMARK    4  A    between atoms: C_12  and  S_13
REMARK    5  A    between atoms: S_13  and  N_16
REMARK    6  A    between atoms: N_16  and  C_17
REMARK    7  A    between atoms: N_16  and  C_24
REMARK    8  A    between atoms: C_17  and  C_18
REMARK                            x       y       z     vdW  Elec       q    Type
REMARK                         _______ _______ _______ _____ _____    ______ ____
ROOT
ATOM      1  C   UNL     1       7.992   8.285  18.333  0.00  0.00    +0.000 A 
ATOM      2  C   UNL     1       8.520   7.258  19.129  0.00  0.00    +0.000 A 
ATOM      3  C   UNL     1       8.108   5.949  18.929  0.00  0.00    +0.000 A 
ATOM      4  C   UNL     1       7.105   5.684  18.002  0.00  0.00    +0.000 A 
ATOM      5  C   UNL     1       6.462   6.728  17.306  0.00  0.00    +0.000 A 
ATOM      6  C   UNL     1       6.923   8.036  17.445  0.00  0.00    +0.000 A 
ENDROOT
BRANCH   1   8
ATOM      7  N   UNL     1       9.289   9.960  19.624  0.00  0.00    +0.000 N 
ATOM      8  C   UNL     1       8.611   9.634  18.390  0.00  0.00    +0.000 C 
ATOM      9  O   UNL     1       8.602  10.386  17.431  0.00  0.00    +0.000 OA
ATOM     10  H   UNL     1       9.320   9.277  20.368  0.00  0.00    +0.000 HD
BRANCH   7  14
ATOM     11  C   UNL     1      10.803  14.535  20.912  0.00  0.00    +0.000 C 
ATOM     12  C   UNL     1      10.718  13.154  20.383  0.00  0.00    +0.000 A 
ATOM     13  C   UNL     1       9.671  12.226  20.582  0.00  0.00    +0.000 A 
ATOM     14  C   UNL     1      10.012  11.128  19.833  0.00  0.00    +0.000 A 
ATOM     15  N   UNL     1      11.237  11.429  19.291  0.00  0.00    +0.000 N 
ATOM     16  N   UNL     1      11.680  12.653  19.599  0.00  0.00    +0.000 NA
ATOM     17  H   UNL     1      11.821  10.853  18.691  0.00  0.00    +0.000 HD
ENDBRANCH   7  14
ENDBRANCH   1   8
BRANCH   5  18
ATOM     18  S   UNL     1       5.113   6.209  16.247  0.00  0.00    +0.000 S 
ATOM     19  O   UNL     1       3.956   6.276  17.117  0.00  0.00    +0.000 OA
ATOM     20  O   UNL     1       5.210   7.072  15.087  0.00  0.00    +0.000 OA
BRANCH  18  21
ATOM     21  N   UNL     1       5.334   4.613  15.756  0.00  0.00    +0.000 N 
BRANCH  21  22
ATOM     22  C   UNL     1       5.858   4.357  14.448  0.00  0.00    +0.000 A 
ATOM     23  C   UNL     1       5.140   3.606  13.517  0.00  0.00    +0.000 A 
ATOM     24  C   UNL     1       5.660   3.401  12.235  0.00  0.00    +0.000 A 
ATOM     25  C   UNL     1       6.897   3.944  11.883  0.00  0.00    +0.000 A 
ATOM     26  C   UNL     1       7.618   4.691  12.813  0.00  0.00    +0.000 A 
ATOM     27  C   UNL     1       7.099   4.897  14.095  0.00  0.00    +0.000 A 
ENDBRANCH  21  22
BRANCH  21  28
ATOM     28  C   UNL     1       5.167   3.480  16.684  0.00  0.00    +0.000 C 
BRANCH  28  29
ATOM     29  C   UNL     1       3.953   3.470  17.600  0.00  0.00    +0.000 A 
ATOM     30  C   UNL     1       4.142   3.653  18.985  0.00  0.00    +0.000 A 
ATOM     31  C   UNL     1       3.056   3.780  19.859  0.00  0.00    +0.000 A 
ATOM     32  C   UNL     1       1.757   3.737  19.366  0.00  0.00    +0.000 A 
ATOM     33  C   UNL     1       1.547   3.561  18.001  0.00  0.00    +0.000 A 
ATOM     34  C   UNL     1       2.634   3.429  17.126  0.00  0.00    +0.000 A 
ENDBRANCH  28  29
ENDBRANCH  21  28
ENDBRANCH  18  21
ENDBRANCH   5  18
TORSDOF 7
ENDMDL
MODEL 3
REMARK VINA RESULT:      -8.3      4.165      9.770
REMARK  Name = 
REMARK  8 active torsions:
REMARK  status: ('A' for Active; 'I' for Inactive)
REMARK    1  A    between atoms: C_1  and  C_2
REMARK    2  A    between atoms: C_4  and  N_5
REMARK    3  A    between atoms: C_6  and  C_8
REMARK    4  A    between atoms: C_12  and  S_13
REMARK    5  A    between atoms: S_13  and  N_16
REMARK    6  A    between atoms: N_16  and  C_17
REMARK    7  A    between atoms: N_16  and  C_24
REMARK    8  A    between atoms: C_17  and  C_18
REMARK                            x       y       z     vdW  Elec       q    Type
REMARK                         _______ _______ _______ _____ _____    ______ ____
ROOT
ATOM      1  C   UNL     1       0.880   9.084  21.272  0.00  0.00    +0.000 A 
ATOM      2  C   UNL     1       0.747   8.784  22.636  0.00  0.00    +0.000 A 
ATOM      3  C   UNL     1      -0.099   9.543  23.430  0.00  0.00    +0.000 A 
ATOM      4  C   UNL     1      -0.736  10.652  22.881  0.00  0.00    +0.000 A 
ATOM      5  C   UNL     1      -0.490  11.050  21.551  0.00  0.00    +0.000 A 
ATOM      6  C   UNL     1       0.298  10.249  20.727  0.00  0.00    +0.000 A 
ENDROOT
BRANCH   1   8
ATOM      7  N   UNL     1       1.786   6.800  20.928  0.00  0.00    +0.000 N 
ATOM      8  C   UNL     1       1.594   8.127  20.389  0.00  0.00    +0.000 C 
ATOM      9  O   UNL     1       1.934   8.428  19.258  0.00  0.00    +0.000 OA
ATOM     10  H   UNL     1       1.430   6.583  21.849  0.00  0.00    +0.000 HD
BRANCH   7  14
ATOM     11  C   UNL     1       2.671   2.440  18.673  0.00  0.00    +0.000 C 
ATOM     12  C   UNL     1       2.771   3.816  19.212  0.00  0.00    +0.000 A 
ATOM     13  C   UNL     1       1.742   4.574  19.814  0.00  0.00    +0.000 A 
ATOM     14  C   UNL     1       2.339   5.741  20.219  0.00  0.00    +0.000 A 
ATOM     15  N   UNL     1       3.641   5.644  19.794  0.00  0.00    +0.000 N 
ATOM     16  N   UNL     1       3.930   4.485  19.193  0.00  0.00    +0.000 NA
ATOM     17  H   UNL     1       4.390   6.324  19.894  0.00  0.00    +0.000 HD
ENDBRANCH   7  14
ENDBRANCH   1   8
BRANCH   5  18
ATOM     18  S   UNL     1      -1.301  12.569  21.057  0.00  0.00    +0.000 S 
ATOM     19  O   UNL     1      -2.665  12.387  21.510  0.00  0.00    +0.000 OA
ATOM     20  O   UNL     1      -0.475  13.620  21.617  0.00  0.00    +0.000 OA
BRANCH  18  21
ATOM     21  N   UNL     1      -1.299  12.714  19.378  0.00  0.00    +0.000 N 
BRANCH  21  22
ATOM     22  C   UNL     1      -2.016  11.750  18.599  0.00  0.00    +0.000 A 
ATOM     23  C   UNL     1      -3.410  11.762  18.543  0.00  0.00    +0.000 A 
ATOM     24  C   UNL     1      -4.084  10.830  17.745  0.00  0.00    +0.000 A 
ATOM     25  C   UNL     1      -3.367   9.888  17.006  0.00  0.00    +0.000 A 
ATOM     26  C   UNL     1      -1.974   9.872  17.065  0.00  0.00    +0.000 A 
ATOM     27  C   UNL     1      -1.300  10.803  17.861  0.00  0.00    +0.000 A 
ENDBRANCH  21  22
BRANCH  21  28
ATOM     28  C   UNL     1      -0.729  13.890  18.697  0.00  0.00    +0.000 C 
BRANCH  28  29
ATOM     29  C   UNL     1       0.783  14.050  18.679  0.00  0.00    +0.000 A 
ATOM     30  C   UNL     1       1.585  12.934  18.366  0.00  0.00    +0.000 A 
ATOM     31  C   UNL     1       2.971  13.050  18.208  0.00  0.00    +0.000 A 
ATOM     32  C   UNL     1       3.585  14.289  18.352  0.00  0.00    +0.000 A 
ATOM     33  C   UNL     1       2.814  15.407  18.658  0.00  0.00    +0.000 A 
ATOM     34  C   UNL     1       1.426  15.288  18.820  0.00  0.00    +0.000 A 
ENDBRANCH  28  29
ENDBRANCH  21  28
ENDBRANCH  18  21
ENDBRANCH   5  18
TORSDOF 7
ENDMDL
MODEL 4
REMARK VINA RESULT:      -8.3      4.823      5.798
REMARK  Name = 
REMARK  8 active torsions:
REMARK  status: ('A' for Active; 'I' for Inactive)
REMARK    1  A    between atoms: C_1  and  C_2
REMARK    2  A    between atoms: C_4  and  N_5
REMARK    3  A    between atoms: C_6  and  C_8
REMARK    4  A    between atoms: C_12  and  S_13
REMARK    5  A    between atoms: S_13  and  N_16
REMARK    6  A    between atoms: N_16  and  C_17
REMARK    7  A    between atoms: N_16  and  C_24
REMARK    8  A    between atoms: C_17  and  C_18
REMARK                            x       y       z     vdW  Elec       q    Type
REMARK                         _______ _______ _______ _____ _____    ______ ____
ROOT
ATOM      1  C   UNL     1       8.014   8.281  18.333  0.00  0.00    +0.000 A 
ATOM      2  C   UNL     1       8.528   7.255  19.141  0.00  0.00    +0.000 A 
ATOM      3  C   UNL     1       8.096   5.951  18.958  0.00  0.00    +0.000 A 
ATOM      4  C   UNL     1       7.088   5.689  18.035  0.00  0.00    +0.000 A 
ATOM      5  C   UNL     1       6.460   6.734  17.327  0.00  0.00    +0.000 A 
ATOM      6  C   UNL     1       6.940   8.036  17.449  0.00  0.00    +0.000 A 
ENDROOT
BRANCH   1   8
ATOM      7  N   UNL     1       9.309   9.966  19.612  0.00  0.00    +0.000 N 
ATOM      8  C   UNL     1       8.653   9.621  18.372  0.00  0.00    +0.000 C 
ATOM      9  O   UNL     1       8.678  10.349  17.396  0.00  0.00    +0.000 OA
ATOM     10  H   UNL     1       9.313   9.300  20.373  0.00  0.00    +0.000 HD
BRANCH   7  14
ATOM     11  C   UNL     1      10.903  14.508  20.920  0.00  0.00    +0.000 C 
ATOM     12  C   UNL     1      10.786  13.139  20.367  0.00  0.00    +0.000 A 
ATOM     13  C   UNL     1       9.747  12.210  20.598  0.00  0.00    +0.000 A 
ATOM     14  C   UNL     1      10.047  11.127  19.810  0.00  0.00    +0.000 A 
ATOM     15  N   UNL     1      11.244  11.436  19.215  0.00  0.00    +0.000 N 
ATOM     16  N   UNL     1      11.706  12.651  19.526  0.00  0.00    +0.000 NA
ATOM     17  H   UNL     1      11.795  10.871  18.574  0.00  0.00    +0.000 HD
ENDBRANCH   7  14
ENDBRANCH   1   8
BRANCH   5  18
ATOM     18  S   UNL     1       5.101   6.222  16.277  0.00  0.00    +0.000 S 
ATOM     19  O   UNL     1       3.957   6.254  17.165  0.00  0.00    +0.000 OA
ATOM     20  O   UNL     1       5.170   7.112  15.135  0.00  0.00    +0.000 OA
BRANCH  18  21
ATOM     21  N   UNL     1       5.335   4.640  15.746  0.00  0.00    +0.000 N 
BRANCH  21  22
ATOM     22  C   UNL     1       5.897   4.421  14.448  0.00  0.00    +0.000 A 
ATOM     23  C   UNL     1       7.141   4.950  14.102  0.00  0.00    +0.000 A 
ATOM     24  C   UNL     1       7.683   4.691  12.838  0.00  0.00    +0.000 A 
ATOM     25  C   UNL     1       6.982   3.907  11.920  0.00  0.00    +0.000 A 
ATOM     26  C   UNL     1       5.737   3.382  12.262  0.00  0.00    +0.000 A 
ATOM     27  C   UNL     1       5.195   3.639  13.525  0.00  0.00    +0.000 A 
ENDBRANCH  21  22
BRANCH  21  28
ATOM     28  C   UNL     1       5.140   3.481  16.635  0.00  0.00    +0.000 C 
BRANCH  28  29
ATOM     29  C   UNL     1       3.997   3.525  17.638  0.00  0.00    +0.000 A 
ATOM     30  C   UNL     1       2.676   3.355  17.175  0.00  0.00    +0.000 A 
ATOM     31  C   UNL     1       1.598   3.258  18.062  0.00  0.00    +0.000 A 
ATOM     32  C   UNL     1       1.817   3.320  19.433  0.00  0.00    +0.000 A 
ATOM     33  C   UNL     1       3.114   3.485  19.914  0.00  0.00    +0.000 A 
ATOM     34  C   UNL     1       4.193   3.586  19.024  0.00  0.00    +0.000 A 
ENDBRANCH  28  29
ENDBRANCH  21  28
ENDBRANCH  18  21
ENDBRANCH   5  18
TORSDOF 7
ENDMDL
MODEL 5
REMARK VINA RESULT:      -8.3      2.712      8.971
REMARK  Name = 
REMARK  8 active torsions:
REMARK  status: ('A' for Active; 'I' for Inactive)
REMARK    1  A    between atoms: C_1  and  C_2
REMARK    2  A    between atoms: C_4  and  N_5
REMARK    3  A    between atoms: C_6  and  C_8
REMARK    4  A    between atoms: C_12  and  S_13
REMARK    5  A    between atoms: S_13  and  N_16
REMARK    6  A    between atoms: N_16  and  C_17
REMARK    7  A    between atoms: N_16  and  C_24
REMARK    8  A    between atoms: C_17  and  C_18
REMARK                            x       y       z     vdW  Elec       q    Type
REMARK                         _______ _______ _______ _____ _____    ______ ____
ROOT
ATOM      1  C   UNL     1       3.181   6.606  18.842  0.00  0.00    +0.000 A 
ATOM      2  C   UNL     1       3.018   5.408  19.554  0.00  0.00    +0.000 A 
ATOM      3  C   UNL     1       2.088   5.336  20.580  0.00  0.00    +0.000 A 
ATOM      4  C   UNL     1       1.391   6.482  20.951  0.00  0.00    +0.000 A 
ATOM      5  C   UNL     1       1.658   7.725  20.343  0.00  0.00    +0.000 A 
ATOM      6  C   UNL     1       2.535   7.790  19.261  0.00  0.00    +0.000 A 
ENDROOT
BRANCH   1   8
ATOM      7  N   UNL     1       4.910   5.494  17.454  0.00  0.00    +0.000 N 
ATOM      8  C   UNL     1       3.997   6.604  17.602  0.00  0.00    +0.000 C 
ATOM      9  O   UNL     1       3.854   7.451  16.738  0.00  0.00    +0.000 OA
ATOM     10  H   UNL     1       4.947   4.784  18.173  0.00  0.00    +0.000 HD
BRANCH   7  14
ATOM     11  C   UNL     1       6.731   3.875  13.102  0.00  0.00    +0.000 C 
ATOM     12  C   UNL     1       6.526   4.561  14.399  0.00  0.00    +0.000 A 
ATOM     13  C   UNL     1       5.356   4.560  15.190  0.00  0.00    +0.000 A 
ATOM     14  C   UNL     1       5.682   5.262  16.323  0.00  0.00    +0.000 A 
ATOM     15  N   UNL     1       6.973   5.683  16.125  0.00  0.00    +0.000 N 
ATOM     16  N   UNL     1       7.510   5.263  14.974  0.00  0.00    +0.000 NA
ATOM     17  H   UNL     1       7.555   6.248  16.739  0.00  0.00    +0.000 HD
ENDBRANCH   7  14
ENDBRANCH   1   8
BRANCH   5  18
ATOM     18  S   UNL     1       0.756   9.111  21.033  0.00  0.00    +0.000 S 
ATOM     19  O   UNL     1      -0.523   8.534  21.396  0.00  0.00    +0.000 OA
ATOM     20  O   UNL     1       1.636   9.645  22.052  0.00  0.00    +0.000 OA
BRANCH  18  21
ATOM     21  N   UNL     1       0.507  10.292  19.858  0.00  0.00    +0.000 N 
BRANCH  21  22
ATOM     22  C   UNL     1       0.900  11.640  20.137  0.00  0.00    +0.000 A 
ATOM     23  C   UNL     1       1.839  12.298  19.340  0.00  0.00    +0.000 A 
ATOM     24  C   UNL     1       2.178  13.627  19.615  0.00  0.00    +0.000 A 
ATOM     25  C   UNL     1       1.582  14.299  20.684  0.00  0.00    +0.000 A 
ATOM     26  C   UNL     1       0.648  13.642  21.483  0.00  0.00    +0.000 A 
ATOM     27  C   UNL     1       0.307  12.314  21.209  0.00  0.00    +0.000 A 
ENDBRANCH  21  22
BRANCH  21  28
ATOM     28  C   UNL     1       0.058   9.955  18.495  0.00  0.00    +0.000 C 
BRANCH  28  29
ATOM     29  C   UNL     1      -1.372  10.293  18.102  0.00  0.00    +0.000 A 
ATOM     30  C   UNL     1      -2.100  11.205  18.894  0.00  0.00    +0.000 A 
ATOM     31  C   UNL     1      -3.371  11.651  18.512  0.00  0.00    +0.000 A 
ATOM     32  C   UNL     1      -3.938  11.202  17.326  0.00  0.00    +0.000 A 
ATOM     33  C   UNL     1      -3.237  10.304  16.526  0.00  0.00    +0.000 A 
ATOM     34  C   UNL     1      -1.966   9.854  16.911  0.00  0.00    +0.000 A 
ENDBRANCH  28  29
ENDBRANCH  21  28
ENDBRANCH  18  21
ENDBRANCH   5  18
TORSDOF 7
ENDMDL
MODEL 6
REMARK VINA RESULT:      -8.3      4.584     10.721
REMARK  Name = 
REMARK  8 active torsions:
REMARK  status: ('A' for Active; 'I' for Inactive)
REMARK    1  A    between atoms: C_1  and  C_2
REMARK    2  A    between atoms: C_4  and  N_5
REMARK    3  A    between atoms: C_6  and  C_8
REMARK    4  A    between atoms: C_12  and  S_13
REMARK    5  A    between atoms: S_13  and  N_16
REMARK    6  A    between atoms: N_16  and  C_17
REMARK    7  A    between atoms: N_16  and  C_24
REMARK    8  A    between atoms: C_17  and  C_18
REMARK                            x       y       z     vdW  Elec       q    Type
REMARK                         _______ _______ _______ _____ _____    ______ ____
ROOT
ATOM      1  C   UNL     1       0.785   9.531  21.166  0.00  0.00    +0.000 A 
ATOM      2  C   UNL     1      -0.081   9.216  22.224  0.00  0.00    +0.000 A 
ATOM      3  C   UNL     1      -0.792  10.223  22.857  0.00  0.00    +0.000 A 
ATOM      4  C   UNL     1      -0.568  11.548  22.495  0.00  0.00    +0.000 A 
ATOM      5  C   UNL     1       0.411  11.886  21.538  0.00  0.00    +0.000 A 
ATOM      6  C   UNL     1       1.075  10.875  20.844  0.00  0.00    +0.000 A 
ENDROOT
BRANCH   1   8
ATOM      7  N   UNL     1       1.518   7.166  21.020  0.00  0.00    +0.000 N 
ATOM      8  C   UNL     1       1.352   8.432  20.344  0.00  0.00    +0.000 C 
ATOM      9  O   UNL     1       1.597   8.576  19.159  0.00  0.00    +0.000 OA
ATOM     10  H   UNL     1       1.242   7.082  21.990  0.00  0.00    +0.000 HD
BRANCH   7  14
ATOM     11  C   UNL     1       2.226   2.432  19.617  0.00  0.00    +0.000 C 
ATOM     12  C   UNL     1       2.282   3.906  19.752  0.00  0.00    +0.000 A 
ATOM     13  C   UNL     1       1.443   4.724  20.541  0.00  0.00    +0.000 A 
ATOM     14  C   UNL     1       1.937   5.996  20.398  0.00  0.00    +0.000 A 
ATOM     15  N   UNL     1       2.977   5.880  19.510  0.00  0.00    +0.000 N 
ATOM     16  N   UNL     1       3.213   4.625  19.114  0.00  0.00    +0.000 NA
ATOM     17  H   UNL     1       3.578   6.613  19.142  0.00  0.00    +0.000 HD
ENDBRANCH   7  14
ENDBRANCH   1   8
BRANCH   5  18
ATOM     18  S   UNL     1       0.648  13.644  21.291  0.00  0.00    +0.000 S 
ATOM     19  O   UNL     1       0.384  14.208  22.599  0.00  0.00    +0.000 OA
ATOM     20  O   UNL     1       1.966  13.753  20.697  0.00  0.00    +0.000 OA
BRANCH  18  21
ATOM     21  N   UNL     1      -0.489  14.240  20.200  0.00  0.00    +0.000 N 
BRANCH  21  22
ATOM     22  C   UNL     1      -1.327  13.315  19.498  0.00  0.00    +0.000 A 
ATOM     23  C   UNL     1      -0.900  12.710  18.315  0.00  0.00    +0.000 A 
ATOM     24  C   UNL     1      -1.725  11.783  17.669  0.00  0.00    +0.000 A 
ATOM     25  C   UNL     1      -2.975  11.462  18.202  0.00  0.00    +0.000 A 
ATOM     26  C   UNL     1      -3.404  12.070  19.381  0.00  0.00    +0.000 A 
ATOM     27  C   UNL     1      -2.580  12.995  20.028  0.00  0.00    +0.000 A 
ENDBRANCH  21  22
BRANCH  21  28
ATOM     28  C   UNL     1      -0.764  15.682  20.070  0.00  0.00    +0.000 C 
BRANCH  28  29
ATOM     29  C   UNL     1      -0.100  16.444  18.934  0.00  0.00    +0.000 A 
ATOM     30  C   UNL     1      -0.872  17.345  18.172  0.00  0.00    +0.000 A 
ATOM     31  C   UNL     1      -0.289  18.167  17.201  0.00  0.00    +0.000 A 
ATOM     32  C   UNL     1       1.082  18.113  16.975  0.00  0.00    +0.000 A 
ATOM     33  C   UNL     1       1.865  17.233  17.717  0.00  0.00    +0.000 A 
ATOM     34  C   UNL     1       1.280  16.407  18.687  0.00  0.00    +0.000 A 
ENDBRANCH  28  29
ENDBRANCH  21  28
ENDBRANCH  18  21
ENDBRANCH   5  18
TORSDOF 7
ENDMDL
MODEL 7
REMARK VINA RESULT:      -8.2      1.951      4.129
REMARK  Name = 
REMARK  8 active torsions:
REMARK  status: ('A' for Active; 'I' for Inactive)
REMARK    1  A    between atoms: C_1  and  C_2
REMARK    2  A    between atoms: C_4  and  N_5
REMARK    3  A    between atoms: C_6  and  C_8
REMARK    4  A    between atoms: C_12  and  S_13
REMARK    5  A    between atoms: S_13  and  N_16
REMARK    6  A    between atoms: N_16  and  C_17
REMARK    7  A    between atoms: N_16  and  C_24
REMARK    8  A    between atoms: C_17  and  C_18
REMARK                            x       y       z     vdW  Elec       q    Type
REMARK                         _______ _______ _______ _____ _____    ______ ____
ROOT
ATOM      1  C   UNL     1       2.293   7.287  18.779  0.00  0.00    +0.000 A 
ATOM      2  C   UNL     1       2.073   7.048  20.144  0.00  0.00    +0.000 A 
ATOM      3  C   UNL     1       2.467   5.843  20.705  0.00  0.00    +0.000 A 
ATOM      4  C   UNL     1       2.994   4.849  19.887  0.00  0.00    +0.000 A 
ATOM      5  C   UNL     1       3.078   5.024  18.490  0.00  0.00    +0.000 A 
ATOM      6  C   UNL     1       2.756   6.258  17.929  0.00  0.00    +0.000 A 
ENDROOT
BRANCH   1   8
ATOM      7  N   UNL     1       1.499   9.606  19.160  0.00  0.00    +0.000 N 
ATOM      8  C   UNL     1       2.089   8.657  18.244  0.00  0.00    +0.000 C 
ATOM      9  O   UNL     1       2.460   8.972  17.127  0.00  0.00    +0.000 OA
ATOM     10  H   UNL     1       1.266   9.310  20.098  0.00  0.00    +0.000 HD
BRANCH   7  14
ATOM     11  C   UNL     1      -0.305  14.221  18.586  0.00  0.00    +0.000 C 
ATOM     12  C   UNL     1       0.555  13.015  18.605  0.00  0.00    +0.000 A 
ATOM     13  C   UNL     1       0.261  11.766  19.196  0.00  0.00    +0.000 A 
ATOM     14  C   UNL     1       1.323  10.956  18.881  0.00  0.00    +0.000 A 
ATOM     15  N   UNL     1       2.195  11.760  18.190  0.00  0.00    +0.000 N 
ATOM     16  N   UNL     1       1.749  13.006  18.000  0.00  0.00    +0.000 NA
ATOM     17  H   UNL     1       3.106  11.521  17.806  0.00  0.00    +0.000 HD
ENDBRANCH   7  14
ENDBRANCH   1   8
BRANCH   5  18
ATOM     18  S   UNL     1       3.665   3.594  17.585  0.00  0.00    +0.000 S 
ATOM     19  O   UNL     1       3.983   2.641  18.629  0.00  0.00    +0.000 OA
ATOM     20  O   UNL     1       2.613   3.312  16.629  0.00  0.00    +0.000 OA
BRANCH  18  21
ATOM     21  N   UNL     1       5.076   3.971  16.744  0.00  0.00    +0.000 N 
BRANCH  21  22
ATOM     22  C   UNL     1       5.908   5.030  17.229  0.00  0.00    +0.000 A 
ATOM     23  C   UNL     1       5.737   6.342  16.784  0.00  0.00    +0.000 A 
ATOM     24  C   UNL     1       6.541   7.364  17.301  0.00  0.00    +0.000 A 
ATOM     25  C   UNL     1       7.516   7.076  18.258  0.00  0.00    +0.000 A 
ATOM     26  C   UNL     1       7.691   5.766  18.699  0.00  0.00    +0.000 A 
ATOM     27  C   UNL     1       6.888   4.744  18.185  0.00  0.00    +0.000 A 
ENDBRANCH  21  22
BRANCH  21  28
ATOM     28  C   UNL     1       5.567   3.140  15.630  0.00  0.00    +0.000 C 
BRANCH  28  29
ATOM     29  C   UNL     1       6.148   3.839  14.411  0.00  0.00    +0.000 A 
ATOM     30  C   UNL     1       7.199   4.761  14.589  0.00  0.00    +0.000 A 
ATOM     31  C   UNL     1       7.858   5.337  13.496  0.00  0.00    +0.000 A 
ATOM     32  C   UNL     1       7.486   4.996  12.201  0.00  0.00    +0.000 A 
ATOM     33  C   UNL     1       6.452   4.086  12.001  0.00  0.00    +0.000 A 
ATOM     34  C   UNL     1       5.789   3.512  13.095  0.00  0.00    +0.000 A 
ENDBRANCH  28  29
ENDBRANCH  21  28
ENDBRANCH  18  21
ENDBRANCH   5  18
TORSDOF 7
ENDMDL
MODEL 8
REMARK VINA RESULT:      -8.1      3.205      9.478
REMARK  Name = 
REMARK  8 active torsions:
REMARK  status: ('A' for Active; 'I' for Inactive)
REMARK    1  A    between atoms: C_1  and  C_2
REMARK    2  A    between atoms: C_4  and  N_5
REMARK    3  A    between atoms: C_6  and  C_8
REMARK    4  A    between atoms: C_12  and  S_13
REMARK    5  A    between atoms: S_13  and  N_16
REMARK    6  A    between atoms: N_16  and  C_17
REMARK    7  A    between atoms: N_16  and  C_24
REMARK    8  A    between atoms: C_17  and  C_18
REMARK                            x       y       z     vdW  Elec       q    Type
REMARK                         _______ _______ _______ _____ _____    ______ ____
ROOT
ATOM      1  C   UNL     1       1.927   8.400  19.332  0.00  0.00    +0.000 A 
ATOM      2  C   UNL     1       1.747   7.430  20.328  0.00  0.00    +0.000 A 
ATOM      3  C   UNL     1       0.882   7.676  21.383  0.00  0.00    +0.000 A 
ATOM      4  C   UNL     1       0.273   8.923  21.488  0.00  0.00    +0.000 A 
ATOM      5  C   UNL     1       0.565   9.956  20.575  0.00  0.00    +0.000 A 
ATOM      6  C   UNL     1       1.373   9.692  19.471  0.00  0.00    +0.000 A 
ENDROOT
BRANCH   1   8
ATOM      7  N   UNL     1       3.616   6.960  18.224  0.00  0.00    +0.000 N 
ATOM      8  C   UNL     1       2.662   8.037  18.093  0.00  0.00    +0.000 C 
ATOM      9  O   UNL     1       2.422   8.570  17.024  0.00  0.00    +0.000 OA
ATOM     10  H   UNL     1       3.734   6.508  19.121  0.00  0.00    +0.000 HD
BRANCH   7  14
ATOM     11  C   UNL     1       5.993   3.913  15.070  0.00  0.00    +0.000 C 
ATOM     12  C   UNL     1       5.393   5.089  15.742  0.00  0.00    +0.000 A 
ATOM     13  C   UNL     1       4.547   5.087  16.874  0.00  0.00    +0.000 A 
ATOM     14  C   UNL     1       4.325   6.410  17.163  0.00  0.00    +0.000 A 
ATOM     15  N   UNL     1       4.982   7.108  16.181  0.00  0.00    +0.000 N 
ATOM     16  N   UNL     1       5.646   6.333  15.317  0.00  0.00    +0.000 NA
ATOM     17  H   UNL     1       5.033   8.115  16.048  0.00  0.00    +0.000 HD
ENDBRANCH   7  14
ENDBRANCH   1   8
BRANCH   5  18
ATOM     18  S   UNL     1      -0.216  11.527  20.939  0.00  0.00    +0.000 S 
ATOM     19  O   UNL     1      -1.342  11.159  21.773  0.00  0.00    +0.000 OA
ATOM     20  O   UNL     1       0.853  12.350  21.469  0.00  0.00    +0.000 OA
BRANCH  18  21
ATOM     21  N   UNL     1      -0.794  12.235  19.524  0.00  0.00    +0.000 N 
BRANCH  21  22
ATOM     22  C   UNL     1      -1.723  11.506  18.714  0.00  0.00    +0.000 A 
ATOM     23  C   UNL     1      -3.096  11.737  18.807  0.00  0.00    +0.000 A 
ATOM     24  C   UNL     1      -3.979  11.036  17.978  0.00  0.00    +0.000 A 
ATOM     25  C   UNL     1      -3.492  10.104  17.060  0.00  0.00    +0.000 A 
ATOM     26  C   UNL     1      -2.122   9.869  16.970  0.00  0.00    +0.000 A 
ATOM     27  C   UNL     1      -1.238  10.570  17.796  0.00  0.00    +0.000 A 
ENDBRANCH  21  22
BRANCH  21  28
ATOM     28  C   UNL     1      -0.508  13.639  19.180  0.00  0.00    +0.000 C 
BRANCH  28  29
ATOM     29  C   UNL     1       0.911  14.009  18.776  0.00  0.00    +0.000 A 
ATOM     30  C   UNL     1       1.396  15.296  19.087  0.00  0.00    +0.000 A 
ATOM     31  C   UNL     1       2.730  15.649  18.855  0.00  0.00    +0.000 A 
ATOM     32  C   UNL     1       3.612  14.720  18.315  0.00  0.00    +0.000 A 
ATOM     33  C   UNL     1       3.156  13.442  18.003  0.00  0.00    +0.000 A 
ATOM     34  C   UNL     1       1.818  13.090  18.231  0.00  0.00    +0.000 A 
ENDBRANCH  28  29
ENDBRANCH  21  28
ENDBRANCH  18  21
ENDBRANCH   5  18
TORSDOF 7
ENDMDL
MODEL 9
REMARK VINA RESULT:      -8.1      4.652     10.420
REMARK  Name = 
REMARK  8 active torsions:
REMARK  status: ('A' for Active; 'I' for Inactive)
REMARK    1  A    between atoms: C_1  and  C_2
REMARK    2  A    between atoms: C_4  and  N_5
REMARK    3  A    between atoms: C_6  and  C_8
REMARK    4  A    between atoms: C_12  and  S_13
REMARK    5  A    between atoms: S_13  and  N_16
REMARK    6  A    between atoms: N_16  and  C_17
REMARK    7  A    between atoms: N_16  and  C_24
REMARK    8  A    between atoms: C_17  and  C_18
REMARK                            x       y       z     vdW  Elec       q    Type
REMARK                         _______ _______ _______ _____ _____    ______ ____
ROOT
ATOM      1  C   UNL     1       1.670   9.593  19.083  0.00  0.00    +0.000 A 
ATOM      2  C   UNL     1       2.188  10.511  18.157  0.00  0.00    +0.000 A 
ATOM      3  C   UNL     1       2.062  11.872  18.390  0.00  0.00    +0.000 A 
ATOM      4  C   UNL     1       1.340  12.310  19.495  0.00  0.00    +0.000 A 
ATOM      5  C   UNL     1       0.687  11.397  20.348  0.00  0.00    +0.000 A 
ATOM      6  C   UNL     1       0.873  10.028  20.165  0.00  0.00    +0.000 A 
ENDROOT
BRANCH   1   8
ATOM      7  N   UNL     1       2.048   7.400  20.179  0.00  0.00    +0.000 N 
ATOM      8  C   UNL     1       2.019   8.156  18.948  0.00  0.00    +0.000 C 
ATOM      9  O   UNL     1       2.201   7.639  17.860  0.00  0.00    +0.000 OA
ATOM     10  H   UNL     1       1.829   7.864  21.050  0.00  0.00    +0.000 HD
BRANCH   7  14
ATOM     11  C   UNL     1       1.689   2.505  21.064  0.00  0.00    +0.000 C 
ATOM     12  C   UNL     1       2.132   3.849  20.629  0.00  0.00    +0.000 A 
ATOM     13  C   UNL     1       1.394   5.053  20.688  0.00  0.00    +0.000 A 
ATOM     14  C   UNL     1       2.254   6.027  20.249  0.00  0.00    +0.000 A 
ATOM     15  N   UNL     1       3.405   5.363  19.904  0.00  0.00    +0.000 N 
ATOM     16  N   UNL     1       3.360   4.047  20.135  0.00  0.00    +0.000 NA
ATOM     17  H   UNL     1       4.264   5.747  19.519  0.00  0.00    +0.000 HD
ENDBRANCH   7  14
ENDBRANCH   1   8
BRANCH   5  18
ATOM     18  S   UNL     1      -0.296  12.147  21.645  0.00  0.00    +0.000 S 
ATOM     19  O   UNL     1      -0.418  11.091  22.629  0.00  0.00    +0.000 OA
ATOM     20  O   UNL     1       0.404  13.374  21.967  0.00  0.00    +0.000 OA
BRANCH  18  21
ATOM     21  N   UNL     1      -1.831  12.533  21.067  0.00  0.00    +0.000 N 
BRANCH  21  22
ATOM     22  C   UNL     1      -2.899  12.710  22.004  0.00  0.00    +0.000 A 
ATOM     23  C   UNL     1      -4.092  13.329  21.629  0.00  0.00    +0.000 A 
ATOM     24  C   UNL     1      -5.133  13.457  22.555  0.00  0.00    +0.000 A 
ATOM     25  C   UNL     1      -4.982  12.970  23.855  0.00  0.00    +0.000 A 
ATOM     26  C   UNL     1      -3.789  12.357  24.232  0.00  0.00    +0.000 A 
ATOM     27  C   UNL     1      -2.749  12.227  23.308  0.00  0.00    +0.000 A 
ENDBRANCH  21  22
BRANCH  21  28
ATOM     28  C   UNL     1      -2.073  12.860  19.651  0.00  0.00    +0.000 C 
BRANCH  28  29
ATOM     29  C   UNL     1      -2.529  11.746  18.721  0.00  0.00    +0.000 A 
ATOM     30  C   UNL     1      -3.910  11.566  18.498  0.00  0.00    +0.000 A 
ATOM     31  C   UNL     1      -4.383  10.644  17.557  0.00  0.00    +0.000 A 
ATOM     32  C   UNL     1      -3.486   9.888  16.811  0.00  0.00    +0.000 A 
ATOM     33  C   UNL     1      -2.118  10.051  17.012  0.00  0.00    +0.000 A 
ATOM     34  C   UNL     1      -1.644  10.972  17.958  0.00  0.00    +0.000 A 
ENDBRANCH  28  29
ENDBRANCH  21  28
ENDBRANCH  18  21
ENDBRANCH   5  18
TORSDOF 7
ENDMDL
