MODEL 1
REMARK VINA RESULT:      -8.6      0.000      0.000
REMARK  Name = 
REMARK  7 active torsions:
REMARK  status: ('A' for Active; 'I' for Inactive)
REMARK    1  A    between atoms: C_1  and  N_2
REMARK    2  A    between atoms: C_6  and  C_7
REMARK    3  A    between atoms: C_7  and  N_8
REMARK    4  A    between atoms: N_8  and  C_9
REMARK    5  A    between atoms: C_9  and  C_10
REMARK    6  A    between atoms: C_14  and  N_15
REMARK    7  A    between atoms: C_18  and  C_19
REMARK                            x       y       z     vdW  Elec       q    Type
REMARK                         _______ _______ _______ _____ _____    ______ ____
ROOT
ATOM      1  N   UNL     1       6.088   5.381  15.662  0.00  0.00    +0.000 N 
ATOM      2  C   UNL     1       4.926   6.304  15.714  0.00  0.00    +0.000 C 
ATOM      3  C   UNL     1       4.034   5.573  16.662  0.00  0.00    +0.000 A 
ATOM      4  C   UNL     1       3.137   6.169  17.549  0.00  0.00    +0.000 A 
ATOM      5  C   UNL     1       2.232   5.295  18.123  0.00  0.00    +0.000 A 
ATOM      6  C   UNL     1       2.556   3.959  18.026  0.00  0.00    +0.000 A 
ATOM      7  C   UNL     1       3.711   3.378  17.473  0.00  0.00    +0.000 A 
ATOM      8  C   UNL     1       4.394   4.212  16.598  0.00  0.00    +0.000 A 
ATOM      9  C   UNL     1       5.610   4.036  15.839  0.00  0.00    +0.000 C 
ATOM     10  O   UNL     1       6.237   3.026  15.542  0.00  0.00    +0.000 OA
ATOM     11  C   UNL     1       3.891   1.994  18.012  0.00  0.00    +0.000 C 
ATOM     12  C   UNL     1       2.770   1.933  19.108  0.00  0.00    +0.000 C 
ATOM     13  N   UNL     1       1.812   3.021  18.762  0.00  0.00    +0.000 N 
ATOM     14  H   UNL     1       1.025   2.608  18.254  0.00  0.00    +0.000 HD
ENDROOT
BRANCH   1  19
ATOM     15  C   UNL     1       7.881   7.705  17.910  0.00  0.00    +0.000 A 
ATOM     16  C   UNL     1       7.950   6.869  19.032  0.00  0.00    +0.000 A 
ATOM     17  C   UNL     1       7.788   5.496  18.906  0.00  0.00    +0.000 A 
ATOM     18  C   UNL     1       7.444   4.962  17.676  0.00  0.00    +0.000 A 
ATOM     19  C   UNL     1       7.103   5.811  16.605  0.00  0.00    +0.000 A 
ATOM     20  C   UNL     1       7.432   7.174  16.692  0.00  0.00    +0.000 A 
BRANCH  15  21
ATOM     21  C   UNL     1       8.301   9.147  18.059  0.00  0.00    +0.000 C 
BRANCH  21  22
ATOM     22  N   UNL     1       9.167   9.341  19.234  0.00  0.00    +0.000 NA
ATOM     23  H   UNL     1       8.758   8.813  20.008  0.00  0.00    +0.000 HD
BRANCH  22  24
ATOM     24  C   UNL     1       9.239  10.747  19.669  0.00  0.00    +0.000 C 
BRANCH  24  30
ATOM     25  C   UNL     1       8.449  13.357  18.167  0.00  0.00    +0.000 C 
ATOM     26  N   UNL     1       9.743  12.728  18.164  0.00  0.00    +0.000 N 
ATOM     27  C   UNL     1      10.854  13.185  17.520  0.00  0.00    +0.000 A 
ATOM     28  N   UNL     1      11.845  12.347  17.712  0.00  0.00    +0.000 NA
ATOM     29  N   UNL     1      11.378  11.324  18.499  0.00  0.00    +0.000 NA
ATOM     30  C   UNL     1      10.114  11.568  18.783  0.00  0.00    +0.000 A 
ENDBRANCH  24  30
ENDBRANCH  22  24
ENDBRANCH  21  22
ENDBRANCH  15  21
ENDBRANCH   1  19
BRANCH   4  31
ATOM     31  C   UNL     1       3.252   7.573  18.088  0.00  0.00    +0.000 C 
ATOM     32  F   UNL     1       2.657   8.531  17.327  0.00  0.00    +0.000 F 
ATOM     33  F   UNL     1       2.721   7.702  19.331  0.00  0.00    +0.000 F 
ATOM     34  F   UNL     1       4.553   7.972  18.194  0.00  0.00    +0.000 F 
ENDBRANCH   4  31
TORSDOF 6
ENDMDL
MODEL 2
REMARK VINA RESULT:      -8.2      7.361     10.879
REMARK  Name = 
REMARK  7 active torsions:
REMARK  status: ('A' for Active; 'I' for Inactive)
REMARK    1  A    between atoms: C_1  and  N_2
REMARK    2  A    between atoms: C_6  and  C_7
REMARK    3  A    between atoms: C_7  and  N_8
REMARK    4  A    between atoms: N_8  and  C_9
REMARK    5  A    between atoms: C_9  and  C_10
REMARK    6  A    between atoms: C_14  and  N_15
REMARK    7  A    between atoms: C_18  and  C_19
REMARK                            x       y       z     vdW  Elec       q    Type
REMARK                         _______ _______ _______ _____ _____    ______ ____
ROOT
ATOM      1  N   UNL     1      -0.824  11.925  20.011  0.00  0.00    +0.000 N 
ATOM      2  C   UNL     1      -1.357  12.866  21.028  0.00  0.00    +0.000 C 
ATOM      3  C   UNL     1      -2.826  12.683  20.832  0.00  0.00    +0.000 A 
ATOM      4  C   UNL     1      -3.794  12.796  21.830  0.00  0.00    +0.000 A 
ATOM      5  C   UNL     1      -5.094  12.856  21.363  0.00  0.00    +0.000 A 
ATOM      6  C   UNL     1      -5.274  12.447  20.059  0.00  0.00    +0.000 A 
ATOM      7  C   UNL     1      -4.321  11.924  19.168  0.00  0.00    +0.000 A 
ATOM      8  C   UNL     1      -3.009  12.221  19.513  0.00  0.00    +0.000 A 
ATOM      9  C   UNL     1      -1.744  11.877  18.907  0.00  0.00    +0.000 C 
ATOM     10  O   UNL     1      -1.472  11.460  17.787  0.00  0.00    +0.000 OA
ATOM     11  C   UNL     1      -5.007  11.162  18.078  0.00  0.00    +0.000 C 
ATOM     12  C   UNL     1      -6.493  11.160  18.582  0.00  0.00    +0.000 C 
ATOM     13  N   UNL     1      -6.582  12.269  19.574  0.00  0.00    +0.000 N 
ATOM     14  H   UNL     1      -6.978  13.089  19.106  0.00  0.00    +0.000 HD
ENDROOT
BRANCH   1  19
ATOM     15  C   UNL     1       1.075   8.821  20.664  0.00  0.00    +0.000 A 
ATOM     16  C   UNL     1       1.094   8.900  22.062  0.00  0.00    +0.000 A 
ATOM     17  C   UNL     1       0.184   9.698  22.741  0.00  0.00    +0.000 A 
ATOM     18  C   UNL     1      -0.678  10.509  22.022  0.00  0.00    +0.000 A 
ATOM     19  C   UNL     1      -0.525  10.647  20.629  0.00  0.00    +0.000 A 
ATOM     20  C   UNL     1       0.275   9.718  19.941  0.00  0.00    +0.000 A 
BRANCH  15  21
ATOM     21  C   UNL     1       1.916   7.764  19.989  0.00  0.00    +0.000 C 
BRANCH  21  22
ATOM     22  N   UNL     1       1.859   6.483  20.714  0.00  0.00    +0.000 NA
ATOM     23  H   UNL     1       2.140   6.662  21.680  0.00  0.00    +0.000 HD
BRANCH  22  24
ATOM     24  C   UNL     1       2.793   5.477  20.178  0.00  0.00    +0.000 C 
BRANCH  24  30
ATOM     25  C   UNL     1       1.497   2.900  21.350  0.00  0.00    +0.000 C 
ATOM     26  N   UNL     1       1.504   3.300  19.968  0.00  0.00    +0.000 N 
ATOM     27  C   UNL     1       0.920   2.626  18.938  0.00  0.00    +0.000 A 
ATOM     28  N   UNL     1       1.149   3.264  17.814  0.00  0.00    +0.000 NA
ATOM     29  N   UNL     1       1.894   4.378  18.113  0.00  0.00    +0.000 NA
ATOM     30  C   UNL     1       2.090   4.403  19.416  0.00  0.00    +0.000 A 
ENDBRANCH  24  30
ENDBRANCH  22  24
ENDBRANCH  21  22
ENDBRANCH  15  21
ENDBRANCH   1  19
BRANCH   4  31
ATOM     31  C   UNL     1      -3.547  12.607  23.306  0.00  0.00    +0.000 C 
ATOM     32  F   UNL     1      -2.911  11.452  23.638  0.00  0.00    +0.000 F 
ATOM     33  F   UNL     1      -2.806  13.609  23.845  0.00  0.00    +0.000 F 
ATOM     34  F   UNL     1      -4.712  12.579  24.016  0.00  0.00    +0.000 F 
ENDBRANCH   4  31
TORSDOF 6
ENDMDL
MODEL 3
REMARK VINA RESULT:      -8.0      1.207      1.707
REMARK  Name = 
REMARK  7 active torsions:
REMARK  status: ('A' for Active; 'I' for Inactive)
REMARK    1  A    between atoms: C_1  and  N_2
REMARK    2  A    between atoms: C_6  and  C_7
REMARK    3  A    between atoms: C_7  and  N_8
REMARK    4  A    between atoms: N_8  and  C_9
REMARK    5  A    between atoms: C_9  and  C_10
REMARK    6  A    between atoms: C_14  and  N_15
REMARK    7  A    between atoms: C_18  and  C_19
REMARK                            x       y       z     vdW  Elec       q    Type
REMARK                         _______ _______ _______ _____ _____    ______ ____
ROOT
ATOM      1  N   UNL     1       6.073   5.376  15.647  0.00  0.00    +0.000 N 
ATOM      2  C   UNL     1       4.912   6.302  15.688  0.00  0.00    +0.000 C 
ATOM      3  C   UNL     1       4.020   5.585  16.646  0.00  0.00    +0.000 A 
ATOM      4  C   UNL     1       3.124   6.195  17.526  0.00  0.00    +0.000 A 
ATOM      5  C   UNL     1       2.218   5.330  18.112  0.00  0.00    +0.000 A 
ATOM      6  C   UNL     1       2.540   3.992  18.032  0.00  0.00    +0.000 A 
ATOM      7  C   UNL     1       3.693   3.402  17.487  0.00  0.00    +0.000 A 
ATOM      8  C   UNL     1       4.377   4.223  16.600  0.00  0.00    +0.000 A 
ATOM      9  C   UNL     1       5.592   4.034  15.843  0.00  0.00    +0.000 C 
ATOM     10  O   UNL     1       6.218   3.019  15.559  0.00  0.00    +0.000 OA
ATOM     11  C   UNL     1       3.872   2.025  18.044  0.00  0.00    +0.000 C 
ATOM     12  C   UNL     1       2.751   1.980  19.142  0.00  0.00    +0.000 C 
ATOM     13  N   UNL     1       1.795   3.066  18.783  0.00  0.00    +0.000 N 
ATOM     14  H   UNL     1       1.006   2.648  18.281  0.00  0.00    +0.000 HD
ENDROOT
BRANCH   1  19
ATOM     15  C   UNL     1       7.837   7.709  17.908  0.00  0.00    +0.000 A 
ATOM     16  C   UNL     1       7.942   6.858  19.015  0.00  0.00    +0.000 A 
ATOM     17  C   UNL     1       7.813   5.484  18.870  0.00  0.00    +0.000 A 
ATOM     18  C   UNL     1       7.466   4.959  17.636  0.00  0.00    +0.000 A 
ATOM     19  C   UNL     1       7.089   5.816  16.583  0.00  0.00    +0.000 A 
ATOM     20  C   UNL     1       7.385   7.186  16.688  0.00  0.00    +0.000 A 
BRANCH  15  21
ATOM     21  C   UNL     1       8.222   9.159  18.074  0.00  0.00    +0.000 C 
BRANCH  21  22
ATOM     22  N   UNL     1       9.137   9.350  19.213  0.00  0.00    +0.000 NA
ATOM     23  H   UNL     1       8.577   9.308  20.067  0.00  0.00    +0.000 HD
BRANCH  22  24
ATOM     24  C   UNL     1       9.801  10.665  19.203  0.00  0.00    +0.000 C 
BRANCH  24  30
ATOM     25  C   UNL     1       9.969  13.768  19.393  0.00  0.00    +0.000 C 
ATOM     26  N   UNL     1       9.449  12.877  20.397  0.00  0.00    +0.000 N 
ATOM     27  C   UNL     1       8.918  13.246  21.596  0.00  0.00    +0.000 A 
ATOM     28  N   UNL     1       8.572  12.174  22.268  0.00  0.00    +0.000 NA
ATOM     29  N   UNL     1       8.879  11.082  21.495  0.00  0.00    +0.000 NA
ATOM     30  C   UNL     1       9.392  11.513  20.360  0.00  0.00    +0.000 A 
ENDBRANCH  24  30
ENDBRANCH  22  24
ENDBRANCH  21  22
ENDBRANCH  15  21
ENDBRANCH   1  19
BRANCH   4  31
ATOM     31  C   UNL     1       3.242   7.606  18.045  0.00  0.00    +0.000 C 
ATOM     32  F   UNL     1       4.509   8.098  18.089  0.00  0.00    +0.000 F 
ATOM     33  F   UNL     1       2.522   8.495  17.315  0.00  0.00    +0.000 F 
ATOM     34  F   UNL     1       2.783   7.716  19.326  0.00  0.00    +0.000 F 
ENDBRANCH   4  31
TORSDOF 6
ENDMDL
MODEL 4
REMARK VINA RESULT:      -8.0      0.935      1.434
REMARK  Name = 
REMARK  7 active torsions:
REMARK  status: ('A' for Active; 'I' for Inactive)
REMARK    1  A    between atoms: C_1  and  N_2
REMARK    2  A    between atoms: C_6  and  C_7
REMARK    3  A    between atoms: C_7  and  N_8
REMARK    4  A    between atoms: N_8  and  C_9
REMARK    5  A    between atoms: C_9  and  C_10
REMARK    6  A    between atoms: C_14  and  N_15
REMARK    7  A    between atoms: C_18  and  C_19
REMARK                            x       y       z     vdW  Elec       q    Type
REMARK                         _______ _______ _______ _____ _____    ______ ____
ROOT
ATOM      1  N   UNL     1       6.057   5.344  15.684  0.00  0.00    +0.000 N 
ATOM      2  C   UNL     1       4.897   6.270  15.704  0.00  0.00    +0.000 C 
ATOM      3  C   UNL     1       4.007   5.577  16.681  0.00  0.00    +0.000 A 
ATOM      4  C   UNL     1       3.113   6.207  17.548  0.00  0.00    +0.000 A 
ATOM      5  C   UNL     1       2.208   5.357  18.157  0.00  0.00    +0.000 A 
ATOM      6  C   UNL     1       2.531   4.018  18.110  0.00  0.00    +0.000 A 
ATOM      7  C   UNL     1       3.683   3.415  17.577  0.00  0.00    +0.000 A 
ATOM      8  C   UNL     1       4.365   4.214  16.669  0.00  0.00    +0.000 A 
ATOM      9  C   UNL     1       5.578   4.007  15.913  0.00  0.00    +0.000 C 
ATOM     10  O   UNL     1       6.204   2.985  15.654  0.00  0.00    +0.000 OA
ATOM     11  C   UNL     1       3.863   2.052  18.168  0.00  0.00    +0.000 C 
ATOM     12  C   UNL     1       2.745   2.034  19.269  0.00  0.00    +0.000 C 
ATOM     13  N   UNL     1       1.788   3.110  18.884  0.00  0.00    +0.000 N 
ATOM     14  H   UNL     1       0.998   2.679  18.395  0.00  0.00    +0.000 HD
ENDROOT
BRANCH   1  19
ATOM     15  C   UNL     1       7.832   7.737  17.873  0.00  0.00    +0.000 A 
ATOM     16  C   UNL     1       7.933   6.920  19.006  0.00  0.00    +0.000 A 
ATOM     17  C   UNL     1       7.796   5.542  18.903  0.00  0.00    +0.000 A 
ATOM     18  C   UNL     1       7.448   4.982  17.685  0.00  0.00    +0.000 A 
ATOM     19  C   UNL     1       7.076   5.808  16.606  0.00  0.00    +0.000 A 
ATOM     20  C   UNL     1       7.379   7.179  16.668  0.00  0.00    +0.000 A 
BRANCH  15  21
ATOM     21  C   UNL     1       8.225   9.189  17.994  0.00  0.00    +0.000 C 
BRANCH  21  22
ATOM     22  N   UNL     1       8.944   9.453  19.252  0.00  0.00    +0.000 NA
ATOM     23  H   UNL     1       8.257   9.774  19.937  0.00  0.00    +0.000 HD
BRANCH  22  24
ATOM     24  C   UNL     1       9.951  10.521  19.125  0.00  0.00    +0.000 C 
BRANCH  24  30
ATOM     25  C   UNL     1       9.317  12.299  21.601  0.00  0.00    +0.000 C 
ATOM     26  N   UNL     1       9.100  12.646  20.221  0.00  0.00    +0.000 N 
ATOM     27  C   UNL     1       8.601  13.829  19.763  0.00  0.00    +0.000 A 
ATOM     28  N   UNL     1       8.514  13.787  18.455  0.00  0.00    +0.000 NA
ATOM     29  N   UNL     1       8.966  12.557  18.047  0.00  0.00    +0.000 NA
ATOM     30  C   UNL     1       9.335  11.880  19.116  0.00  0.00    +0.000 A 
ENDBRANCH  24  30
ENDBRANCH  22  24
ENDBRANCH  21  22
ENDBRANCH  15  21
ENDBRANCH   1  19
BRANCH   4  31
ATOM     31  C   UNL     1       3.231   7.631  18.032  0.00  0.00    +0.000 C 
ATOM     32  F   UNL     1       4.501   8.110  18.105  0.00  0.00    +0.000 F 
ATOM     33  F   UNL     1       2.547   8.508  17.253  0.00  0.00    +0.000 F 
ATOM     34  F   UNL     1       2.729   7.782  19.292  0.00  0.00    +0.000 F 
ENDBRANCH   4  31
TORSDOF 6
ENDMDL
MODEL 5
REMARK VINA RESULT:      -8.0      6.543     10.199
REMARK  Name = 
REMARK  7 active torsions:
REMARK  status: ('A' for Active; 'I' for Inactive)
REMARK    1  A    between atoms: C_1  and  N_2
REMARK    2  A    between atoms: C_6  and  C_7
REMARK    3  A    between atoms: C_7  and  N_8
REMARK    4  A    between atoms: N_8  and  C_9
REMARK    5  A    between atoms: C_9  and  C_10
REMARK    6  A    between atoms: C_14  and  N_15
REMARK    7  A    between atoms: C_18  and  C_19
REMARK                            x       y       z     vdW  Elec       q    Type
REMARK                         _______ _______ _______ _____ _____    ______ ____
ROOT
ATOM      1  N   UNL     1       0.634  12.851  19.835  0.00  0.00    +0.000 N 
ATOM      2  C   UNL     1       1.024  12.194  21.108  0.00  0.00    +0.000 C 
ATOM      3  C   UNL     1      -0.309  12.048  21.764  0.00  0.00    +0.000 A 
ATOM      4  C   UNL     1      -0.674  11.017  22.630  0.00  0.00    +0.000 A 
ATOM      5  C   UNL     1      -1.852  11.239  23.321  0.00  0.00    +0.000 A 
ATOM      6  C   UNL     1      -2.657  12.236  22.814  0.00  0.00    +0.000 A 
ATOM      7  C   UNL     1      -2.463  13.011  21.657  0.00  0.00    +0.000 A 
ATOM      8  C   UNL     1      -1.148  13.038  21.214  0.00  0.00    +0.000 A 
ATOM      9  C   UNL     1      -0.518  13.677  20.082  0.00  0.00    +0.000 C 
ATOM     10  O   UNL     1      -0.900  14.582  19.349  0.00  0.00    +0.000 OA
ATOM     11  C   UNL     1      -3.768  13.591  21.210  0.00  0.00    +0.000 C 
ATOM     12  C   UNL     1      -4.779  12.875  22.173  0.00  0.00    +0.000 C 
ATOM     13  N   UNL     1      -3.961  12.382  23.317  0.00  0.00    +0.000 N 
ATOM     14  H   UNL     1      -4.047  13.051  24.088  0.00  0.00    +0.000 HD
ENDROOT
BRANCH   1  19
ATOM     15  C   UNL     1       1.074   9.593  18.145  0.00  0.00    +0.000 A 
ATOM     16  C   UNL     1      -0.272   9.352  17.843  0.00  0.00    +0.000 A 
ATOM     17  C   UNL     1      -1.194  10.390  17.829  0.00  0.00    +0.000 A 
ATOM     18  C   UNL     1      -0.798  11.657  18.226  0.00  0.00    +0.000 A 
ATOM     19  C   UNL     1       0.476  11.855  18.793  0.00  0.00    +0.000 A 
ATOM     20  C   UNL     1       1.446  10.849  18.645  0.00  0.00    +0.000 A 
BRANCH  15  21
ATOM     21  C   UNL     1       2.074   8.487  17.913  0.00  0.00    +0.000 C 
BRANCH  21  22
ATOM     22  N   UNL     1       2.233   7.639  19.106  0.00  0.00    +0.000 NA
ATOM     23  H   UNL     1       2.679   8.207  19.830  0.00  0.00    +0.000 HD
BRANCH  22  24
ATOM     24  C   UNL     1       3.109   6.478  18.875  0.00  0.00    +0.000 C 
BRANCH  24  30
ATOM     25  C   UNL     1       2.191   4.547  21.138  0.00  0.00    +0.000 C 
ATOM     26  N   UNL     1       1.923   4.404  19.732  0.00  0.00    +0.000 N 
ATOM     27  C   UNL     1       1.196   3.406  19.154  0.00  0.00    +0.000 A 
ATOM     28  N   UNL     1       1.180   3.576  17.853  0.00  0.00    +0.000 NA
ATOM     29  N   UNL     1       1.907   4.707  17.572  0.00  0.00    +0.000 NA
ATOM     30  C   UNL     1       2.337   5.211  18.711  0.00  0.00    +0.000 A 
ENDBRANCH  24  30
ENDBRANCH  22  24
ENDBRANCH  21  22
ENDBRANCH  15  21
ENDBRANCH   1  19
BRANCH   4  31
ATOM     31  C   UNL     1      -0.043   9.648  22.666  0.00  0.00    +0.000 C 
ATOM     32  F   UNL     1       1.011   9.479  21.823  0.00  0.00    +0.000 F 
ATOM     33  F   UNL     1       0.409   9.311  23.900  0.00  0.00    +0.000 F 
ATOM     34  F   UNL     1      -0.929   8.671  22.313  0.00  0.00    +0.000 F 
ENDBRANCH   4  31
TORSDOF 6
ENDMDL
MODEL 6
REMARK VINA RESULT:      -8.0      7.413     10.771
REMARK  Name = 
REMARK  7 active torsions:
REMARK  status: ('A' for Active; 'I' for Inactive)
REMARK    1  A    between atoms: C_1  and  N_2
REMARK    2  A    between atoms: C_6  and  C_7
REMARK    3  A    between atoms: C_7  and  N_8
REMARK    4  A    between atoms: N_8  and  C_9
REMARK    5  A    between atoms: C_9  and  C_10
REMARK    6  A    between atoms: C_14  and  N_15
REMARK    7  A    between atoms: C_18  and  C_19
REMARK                            x       y       z     vdW  Elec       q    Type
REMARK                         _______ _______ _______ _____ _____    ______ ____
ROOT
ATOM      1  N   UNL     1      -0.781  12.088  20.075  0.00  0.00    +0.000 N 
ATOM      2  C   UNL     1      -1.263  12.919  21.208  0.00  0.00    +0.000 C 
ATOM      3  C   UNL     1      -2.740  12.750  21.066  0.00  0.00    +0.000 A 
ATOM      4  C   UNL     1      -3.658  12.757  22.117  0.00  0.00    +0.000 A 
ATOM      5  C   UNL     1      -4.980  12.858  21.723  0.00  0.00    +0.000 A 
ATOM      6  C   UNL     1      -5.224  12.583  20.394  0.00  0.00    +0.000 A 
ATOM      7  C   UNL     1      -4.316  12.158  19.409  0.00  0.00    +0.000 A 
ATOM      8  C   UNL     1      -2.988  12.423  19.718  0.00  0.00    +0.000 A 
ATOM      9  C   UNL     1      -1.755  12.148  19.019  0.00  0.00    +0.000 C 
ATOM     10  O   UNL     1      -1.539  11.848  17.850  0.00  0.00    +0.000 OA
ATOM     11  C   UNL     1      -5.056  11.507  18.283  0.00  0.00    +0.000 C 
ATOM     12  C   UNL     1      -6.515  11.447  18.856  0.00  0.00    +0.000 C 
ATOM     13  N   UNL     1      -6.554  12.449  19.959  0.00  0.00    +0.000 N 
ATOM     14  H   UNL     1      -6.972  13.312  19.597  0.00  0.00    +0.000 HD
ENDROOT
BRANCH   1  19
ATOM     15  C   UNL     1       1.150   8.945  20.322  0.00  0.00    +0.000 A 
ATOM     16  C   UNL     1       1.230   8.880  21.718  0.00  0.00    +0.000 A 
ATOM     17  C   UNL     1       0.349   9.598  22.515  0.00  0.00    +0.000 A 
ATOM     18  C   UNL     1      -0.545  10.474  21.922  0.00  0.00    +0.000 A 
ATOM     19  C   UNL     1      -0.453  10.755  20.545  0.00  0.00    +0.000 A 
ATOM     20  C   UNL     1       0.317   9.907  19.731  0.00  0.00    +0.000 A 
BRANCH  15  21
ATOM     21  C   UNL     1       1.962   7.968  19.506  0.00  0.00    +0.000 C 
BRANCH  21  22
ATOM     22  N   UNL     1       2.418   6.830  20.321  0.00  0.00    +0.000 NA
ATOM     23  H   UNL     1       3.318   7.086  20.733  0.00  0.00    +0.000 HD
BRANCH  22  24
ATOM     24  C   UNL     1       2.644   5.609  19.528  0.00  0.00    +0.000 C 
BRANCH  24  30
ATOM     25  C   UNL     1       4.438   3.074  19.301  0.00  0.00    +0.000 C 
ATOM     26  N   UNL     1       3.379   3.289  20.251  0.00  0.00    +0.000 N 
ATOM     27  C   UNL     1       2.998   2.425  21.233  0.00  0.00    +0.000 A 
ATOM     28  N   UNL     1       1.984   2.934  21.893  0.00  0.00    +0.000 NA
ATOM     29  N   UNL     1       1.697   4.155  21.335  0.00  0.00    +0.000 NA
ATOM     30  C   UNL     1       2.553   4.371  20.357  0.00  0.00    +0.000 A 
ENDBRANCH  24  30
ENDBRANCH  22  24
ENDBRANCH  21  22
ENDBRANCH  15  21
ENDBRANCH   1  19
BRANCH   4  31
ATOM     31  C   UNL     1      -3.338  12.420  23.552  0.00  0.00    +0.000 C 
ATOM     32  F   UNL     1      -4.421  12.248  24.357  0.00  0.00    +0.000 F 
ATOM     33  F   UNL     1      -2.601  11.286  23.672  0.00  0.00    +0.000 F 
ATOM     34  F   UNL     1      -2.610  13.404  24.155  0.00  0.00    +0.000 F 
ENDBRANCH   4  31
TORSDOF 6
ENDMDL
MODEL 7
REMARK VINA RESULT:      -7.9      7.376     10.845
REMARK  Name = 
REMARK  7 active torsions:
REMARK  status: ('A' for Active; 'I' for Inactive)
REMARK    1  A    between atoms: C_1  and  N_2
REMARK    2  A    between atoms: C_6  and  C_7
REMARK    3  A    between atoms: C_7  and  N_8
REMARK    4  A    between atoms: N_8  and  C_9
REMARK    5  A    between atoms: C_9  and  C_10
REMARK    6  A    between atoms: C_14  and  N_15
REMARK    7  A    between atoms: C_18  and  C_19
REMARK                            x       y       z     vdW  Elec       q    Type
REMARK                         _______ _______ _______ _____ _____    ______ ____
ROOT
ATOM      1  N   UNL     1      -0.848  12.034  19.996  0.00  0.00    +0.000 N 
ATOM      2  C   UNL     1      -1.330  12.892  21.107  0.00  0.00    +0.000 C 
ATOM      3  C   UNL     1      -2.806  12.709  20.978  0.00  0.00    +0.000 A 
ATOM      4  C   UNL     1      -3.719  12.740  22.034  0.00  0.00    +0.000 A 
ATOM      5  C   UNL     1      -5.043  12.820  21.644  0.00  0.00    +0.000 A 
ATOM      6  C   UNL     1      -5.292  12.506  20.325  0.00  0.00    +0.000 A 
ATOM      7  C   UNL     1      -4.386  12.060  19.347  0.00  0.00    +0.000 A 
ATOM      8  C   UNL     1      -3.059  12.344  19.641  0.00  0.00    +0.000 A 
ATOM      9  C   UNL     1      -1.828  12.058  18.943  0.00  0.00    +0.000 C 
ATOM     10  O   UNL     1      -1.615  11.726  17.782  0.00  0.00    +0.000 OA
ATOM     11  C   UNL     1      -5.127  11.373  18.244  0.00  0.00    +0.000 C 
ATOM     12  C   UNL     1      -6.583  11.320  18.826  0.00  0.00    +0.000 C 
ATOM     13  N   UNL     1      -6.623  12.352  19.900  0.00  0.00    +0.000 N 
ATOM     14  H   UNL     1      -7.049  13.201  19.517  0.00  0.00    +0.000 HD
ENDROOT
BRANCH   1  19
ATOM     15  C   UNL     1       1.117   8.920  20.332  0.00  0.00    +0.000 A 
ATOM     16  C   UNL     1       1.189   8.890  21.730  0.00  0.00    +0.000 A 
ATOM     17  C   UNL     1       0.296   9.619  22.503  0.00  0.00    +0.000 A 
ATOM     18  C   UNL     1      -0.605  10.469  21.884  0.00  0.00    +0.000 A 
ATOM     19  C   UNL     1      -0.508  10.717  20.500  0.00  0.00    +0.000 A 
ATOM     20  C   UNL     1       0.277   9.857  19.713  0.00  0.00    +0.000 A 
BRANCH  15  21
ATOM     21  C   UNL     1       1.944   7.932  19.546  0.00  0.00    +0.000 C 
BRANCH  21  22
ATOM     22  N   UNL     1       2.485   6.869  20.410  0.00  0.00    +0.000 NA
ATOM     23  H   UNL     1       3.269   7.266  20.933  0.00  0.00    +0.000 HD
BRANCH  22  24
ATOM     24  C   UNL     1       3.015   5.724  19.650  0.00  0.00    +0.000 C 
BRANCH  24  30
ATOM     25  C   UNL     1       2.379   3.602  17.463  0.00  0.00    +0.000 C 
ATOM     26  N   UNL     1       1.940   3.575  18.833  0.00  0.00    +0.000 N 
ATOM     27  C   UNL     1       1.188   2.597  19.412  0.00  0.00    +0.000 A 
ATOM     28  N   UNL     1       0.953   2.913  20.664  0.00  0.00    +0.000 NA
ATOM     29  N   UNL     1       1.563   4.117  20.911  0.00  0.00    +0.000 NA
ATOM     30  C   UNL     1       2.172   4.503  19.807  0.00  0.00    +0.000 A 
ENDBRANCH  24  30
ENDBRANCH  22  24
ENDBRANCH  21  22
ENDBRANCH  15  21
ENDBRANCH   1  19
BRANCH   4  31
ATOM     31  C   UNL     1      -3.389  12.445  23.476  0.00  0.00    +0.000 C 
ATOM     32  F   UNL     1      -2.727  11.276  23.687  0.00  0.00    +0.000 F 
ATOM     33  F   UNL     1      -2.628  13.412  24.048  0.00  0.00    +0.000 F 
ATOM     34  F   UNL     1      -4.513  12.351  24.245  0.00  0.00    +0.000 F 
ENDBRANCH   4  31
TORSDOF 6
ENDMDL
MODEL 8
REMARK VINA RESULT:      -7.9      4.758      7.747
REMARK  Name = 
REMARK  7 active torsions:
REMARK  status: ('A' for Active; 'I' for Inactive)
REMARK    1  A    between atoms: C_1  and  N_2
REMARK    2  A    between atoms: C_6  and  C_7
REMARK    3  A    between atoms: C_7  and  N_8
REMARK    4  A    between atoms: N_8  and  C_9
REMARK    5  A    between atoms: C_9  and  C_10
REMARK    6  A    between atoms: C_14  and  N_15
REMARK    7  A    between atoms: C_18  and  C_19
REMARK                            x       y       z     vdW  Elec       q    Type
REMARK                         _______ _______ _______ _____ _____    ______ ____
ROOT
ATOM      1  N   UNL     1       2.234   8.325  19.335  0.00  0.00    +0.000 N 
ATOM      2  C   UNL     1       2.041   9.089  20.593  0.00  0.00    +0.000 C 
ATOM      3  C   UNL     1       0.734   9.755  20.315  0.00  0.00    +0.000 A 
ATOM      4  C   UNL     1      -0.227  10.079  21.273  0.00  0.00    +0.000 A 
ATOM      5  C   UNL     1      -1.222  10.928  20.823  0.00  0.00    +0.000 A 
ATOM      6  C   UNL     1      -1.327  11.043  19.454  0.00  0.00    +0.000 A 
ATOM      7  C   UNL     1      -0.597  10.366  18.462  0.00  0.00    +0.000 A 
ATOM      8  C   UNL     1       0.603   9.833  18.914  0.00  0.00    +0.000 A 
ATOM      9  C   UNL     1       1.632   9.063  18.256  0.00  0.00    +0.000 C 
ATOM     10  O   UNL     1       1.874   8.887  17.067  0.00  0.00    +0.000 OA
ATOM     11  C   UNL     1      -1.346  10.399  17.167  0.00  0.00    +0.000 C 
ATOM     12  C   UNL     1      -2.713  11.031  17.609  0.00  0.00    +0.000 C 
ATOM     13  N   UNL     1      -2.439  11.708  18.908  0.00  0.00    +0.000 N 
ATOM     14  H   UNL     1      -2.293  12.705  18.729  0.00  0.00    +0.000 HD
ENDROOT
BRANCH   1  19
ATOM     15  C   UNL     1       2.006   4.692  18.691  0.00  0.00    +0.000 A 
ATOM     16  C   UNL     1       2.102   4.257  20.019  0.00  0.00    +0.000 A 
ATOM     17  C   UNL     1       1.839   5.123  21.071  0.00  0.00    +0.000 A 
ATOM     18  C   UNL     1       1.586   6.458  20.806  0.00  0.00    +0.000 A 
ATOM     19  C   UNL     1       1.755   6.966  19.504  0.00  0.00    +0.000 A 
ATOM     20  C   UNL     1       1.853   6.062  18.433  0.00  0.00    +0.000 A 
BRANCH  15  21
ATOM     21  C   UNL     1       2.064   3.662  17.589  0.00  0.00    +0.000 C 
BRANCH  21  22
ATOM     22  N   UNL     1       3.420   3.109  17.434  0.00  0.00    +0.000 NA
ATOM     23  H   UNL     1       3.823   3.015  18.369  0.00  0.00    +0.000 HD
BRANCH  22  24
ATOM     24  C   UNL     1       4.317   3.992  16.669  0.00  0.00    +0.000 C 
BRANCH  24  30
ATOM     25  C   UNL     1       7.089   4.671  15.424  0.00  0.00    +0.000 C 
ATOM     26  N   UNL     1       6.772   4.616  16.827  0.00  0.00    +0.000 N 
ATOM     27  C   UNL     1       7.632   4.877  17.851  0.00  0.00    +0.000 A 
ATOM     28  N   UNL     1       7.013   4.702  18.995  0.00  0.00    +0.000 NA
ATOM     29  N   UNL     1       5.724   4.322  18.716  0.00  0.00    +0.000 NA
ATOM     30  C   UNL     1       5.580   4.289  17.407  0.00  0.00    +0.000 A 
ENDBRANCH  24  30
ENDBRANCH  22  24
ENDBRANCH  21  22
ENDBRANCH  15  21
ENDBRANCH   1  19
BRANCH   4  31
ATOM     31  C   UNL     1      -0.386   9.397  22.609  0.00  0.00    +0.000 C 
ATOM     32  F   UNL     1       0.759   9.282  23.335  0.00  0.00    +0.000 F 
ATOM     33  F   UNL     1      -1.276  10.028  23.417  0.00  0.00    +0.000 F 
ATOM     34  F   UNL     1      -0.843   8.118  22.476  0.00  0.00    +0.000 F 
ENDBRANCH   4  31
TORSDOF 6
ENDMDL
MODEL 9
REMARK VINA RESULT:      -7.8      7.622     10.675
REMARK  Name = 
REMARK  7 active torsions:
REMARK  status: ('A' for Active; 'I' for Inactive)
REMARK    1  A    between atoms: C_1  and  N_2
REMARK    2  A    between atoms: C_6  and  C_7
REMARK    3  A    between atoms: C_7  and  N_8
REMARK    4  A    between atoms: N_8  and  C_9
REMARK    5  A    between atoms: C_9  and  C_10
REMARK    6  A    between atoms: C_14  and  N_15
REMARK    7  A    between atoms: C_18  and  C_19
REMARK                            x       y       z     vdW  Elec       q    Type
REMARK                         _______ _______ _______ _____ _____    ______ ____
ROOT
ATOM      1  N   UNL     1      -0.939  12.148  20.327  0.00  0.00    +0.000 N 
ATOM      2  C   UNL     1      -1.476  13.018  21.404  0.00  0.00    +0.000 C 
ATOM      3  C   UNL     1      -2.943  12.849  21.190  0.00  0.00    +0.000 A 
ATOM      4  C   UNL     1      -3.916  12.895  22.191  0.00  0.00    +0.000 A 
ATOM      5  C   UNL     1      -5.214  12.986  21.724  0.00  0.00    +0.000 A 
ATOM      6  C   UNL     1      -5.390  12.666  20.395  0.00  0.00    +0.000 A 
ATOM      7  C   UNL     1      -4.433  12.205  19.474  0.00  0.00    +0.000 A 
ATOM      8  C   UNL     1      -3.122  12.478  19.843  0.00  0.00    +0.000 A 
ATOM      9  C   UNL     1      -1.856  12.175  19.219  0.00  0.00    +0.000 C 
ATOM     10  O   UNL     1      -1.580  11.835  18.074  0.00  0.00    +0.000 OA
ATOM     11  C   UNL     1      -5.115  11.519  18.333  0.00  0.00    +0.000 C 
ATOM     12  C   UNL     1      -6.603  11.483  18.830  0.00  0.00    +0.000 C 
ATOM     13  N   UNL     1      -6.695  12.522  19.894  0.00  0.00    +0.000 N 
ATOM     14  H   UNL     1      -7.090  13.372  19.482  0.00  0.00    +0.000 HD
ENDROOT
BRANCH   1  19
ATOM     15  C   UNL     1       0.910   8.970  20.710  0.00  0.00    +0.000 A 
ATOM     16  C   UNL     1       1.002   8.970  22.107  0.00  0.00    +0.000 A 
ATOM     17  C   UNL     1       0.148   9.749  22.875  0.00  0.00    +0.000 A 
ATOM     18  C   UNL     1      -0.728  10.619  22.247  0.00  0.00    +0.000 A 
ATOM     19  C   UNL     1      -0.642  10.831  20.858  0.00  0.00    +0.000 A 
ATOM     20  C   UNL     1       0.097   9.924  20.080  0.00  0.00    +0.000 A 
BRANCH  15  21
ATOM     21  C   UNL     1       1.688   7.933  19.936  0.00  0.00    +0.000 C 
BRANCH  21  22
ATOM     22  N   UNL     1       2.112   6.817  20.799  0.00  0.00    +0.000 NA
ATOM     23  H   UNL     1       3.119   6.910  20.950  0.00  0.00    +0.000 HD
BRANCH  22  24
ATOM     24  C   UNL     1       1.893   5.498  20.182  0.00  0.00    +0.000 C 
BRANCH  24  30
ATOM     25  C   UNL     1       2.342   2.468  19.622  0.00  0.00    +0.000 C 
ATOM     26  N   UNL     1       3.327   3.512  19.514  0.00  0.00    +0.000 N 
ATOM     27  C   UNL     1       4.622   3.352  19.123  0.00  0.00    +0.000 A 
ATOM     28  N   UNL     1       5.237   4.510  19.167  0.00  0.00    +0.000 NA
ATOM     29  N   UNL     1       4.328   5.447  19.593  0.00  0.00    +0.000 NA
ATOM     30  C   UNL     1       3.173   4.842  19.784  0.00  0.00    +0.000 A 
ENDBRANCH  24  30
ENDBRANCH  22  24
ENDBRANCH  21  22
ENDBRANCH  15  21
ENDBRANCH   1  19
BRANCH   4  31
ATOM     31  C   UNL     1      -3.673  12.606  23.651  0.00  0.00    +0.000 C 
ATOM     32  F   UNL     1      -2.938  13.542  24.308  0.00  0.00    +0.000 F 
ATOM     33  F   UNL     1      -4.825  12.474  24.357  0.00  0.00    +0.000 F 
ATOM     34  F   UNL     1      -2.990  11.438  23.831  0.00  0.00    +0.000 F 
ENDBRANCH   4  31
TORSDOF 6
ENDMDL
