MODEL 1
REMARK VINA RESULT:      -9.0      0.000      0.000
REMARK  Name = 
REMARK  6 active torsions:
REMARK  status: ('A' for Active; 'I' for Inactive)
REMARK    1  A    between atoms: C_1  and  C_2
REMARK    2  A    between atoms: C_6  and  N_7
REMARK    3  A    between atoms: N_7  and  C_8
REMARK    4  A    between atoms: C_8  and  C_9
REMARK    5  A    between atoms: C_15  and  C_17
REMARK    6  A    between atoms: C_17  and  N_18
REMARK                            x       y       z     vdW  Elec       q    Type
REMARK                         _______ _______ _______ _____ _____    ______ ____
ROOT
ATOM      1  N   UNL     1       2.997   6.030  18.776  0.00  0.00    +0.000 N 
ATOM      2  C   UNL     1       2.287   6.668  19.800  0.00  0.00    +0.000 C 
ATOM      3  O   UNL     1       1.763   6.048  20.732  0.00  0.00    +0.000 OA
ENDROOT
BRANCH   1   9
ATOM      4  C   UNL     1       4.723   1.628  20.384  0.00  0.00    +0.000 C 
ATOM      5  C   UNL     1       3.865   2.435  19.451  0.00  0.00    +0.000 A 
ATOM      6  C   UNL     1       3.015   1.788  18.550  0.00  0.00    +0.000 A 
ATOM      7  C   UNL     1       2.154   2.532  17.744  0.00  0.00    +0.000 A 
ATOM      8  C   UNL     1       2.123   3.925  17.849  0.00  0.00    +0.000 A 
ATOM      9  C   UNL     1       2.995   4.596  18.715  0.00  0.00    +0.000 A 
ATOM     10  C   UNL     1       3.870   3.841  19.510  0.00  0.00    +0.000 A 
ENDBRANCH   1   9
BRANCH   1  11
ATOM     11  C   UNL     1       3.789   6.736  17.754  0.00  0.00    +0.000 C 
BRANCH  11  12
ATOM     12  C   UNL     1       5.051   6.031  17.281  0.00  0.00    +0.000 A 
ATOM     13  C   UNL     1       5.117   5.220  16.140  0.00  0.00    +0.000 A 
ATOM     14  C   UNL     1       6.262   4.466  15.859  0.00  0.00    +0.000 A 
ATOM     15  C   UNL     1       7.377   4.549  16.687  0.00  0.00    +0.000 A 
ATOM     16  C   UNL     1       7.365   5.422  17.771  0.00  0.00    +0.000 A 
ATOM     17  C   UNL     1       6.215   6.161  18.061  0.00  0.00    +0.000 A 
ENDBRANCH  11  12
ENDBRANCH   1  11
BRANCH   2  18
ATOM     18  C   UNL     1       2.181   8.206  19.778  0.00  0.00    +0.000 C 
BRANCH  18  19
ATOM     19  N   UNL     1       0.985   9.053  19.718  0.00  0.00    +0.000 N 
ATOM     20  C   UNL     1       0.812   9.680  18.481  0.00  0.00    +0.000 A 
ATOM     21  O   UNL     1       1.407   9.395  17.442  0.00  0.00    +0.000 OA
ATOM     22  C   UNL     1      -0.111  10.857  18.416  0.00  0.00    +0.000 A 
ATOM     23  N   UNL     1      -0.695  11.369  19.449  0.00  0.00    +0.000 NA
ATOM     24  C   UNL     1      -0.493  10.743  20.686  0.00  0.00    +0.000 A 
ATOM     25  C   UNL     1      -1.093  11.355  21.792  0.00  0.00    +0.000 A 
ATOM     26  C   UNL     1      -0.988  10.785  23.054  0.00  0.00    +0.000 A 
ATOM     27  C   UNL     1      -0.337   9.565  23.201  0.00  0.00    +0.000 A 
ATOM     28  C   UNL     1       0.274   8.946  22.100  0.00  0.00    +0.000 A 
ATOM     29  C   UNL     1       0.269   9.559  20.846  0.00  0.00    +0.000 A 
ENDBRANCH  18  19
ENDBRANCH   2  18
TORSDOF 5
ENDMDL
MODEL 2
REMARK VINA RESULT:      -8.0      0.966      1.147
REMARK  Name = 
REMARK  6 active torsions:
REMARK  status: ('A' for Active; 'I' for Inactive)
REMARK    1  A    between atoms: C_1  and  C_2
REMARK    2  A    between atoms: C_6  and  N_7
REMARK    3  A    between atoms: N_7  and  C_8
REMARK    4  A    between atoms: C_8  and  C_9
REMARK    5  A    between atoms: C_15  and  C_17
REMARK    6  A    between atoms: C_17  and  N_18
REMARK                            x       y       z     vdW  Elec       q    Type
REMARK                         _______ _______ _______ _____ _____    ______ ____
ROOT
ATOM      1  N   UNL     1       2.912   5.806  18.851  0.00  0.00    +0.000 N 
ATOM      2  C   UNL     1       2.243   6.518  19.853  0.00  0.00    +0.000 C 
ATOM      3  O   UNL     1       1.692   5.962  20.809  0.00  0.00    +0.000 OA
ENDROOT
BRANCH   1   9
ATOM      4  C   UNL     1       4.710   1.368  20.271  0.00  0.00    +0.000 C 
ATOM      5  C   UNL     1       3.729   2.192  19.485  0.00  0.00    +0.000 A 
ATOM      6  C   UNL     1       2.697   1.564  18.782  0.00  0.00    +0.000 A 
ATOM      7  C   UNL     1       1.735   2.328  18.123  0.00  0.00    +0.000 A 
ATOM      8  C   UNL     1       1.786   3.723  18.180  0.00  0.00    +0.000 A 
ATOM      9  C   UNL     1       2.835   4.372  18.844  0.00  0.00    +0.000 A 
ATOM     10  C   UNL     1       3.808   3.596  19.490  0.00  0.00    +0.000 A 
ENDBRANCH   1   9
BRANCH   1  11
ATOM     11  C   UNL     1       3.734   6.430  17.800  0.00  0.00    +0.000 C 
BRANCH  11  12
ATOM     12  C   UNL     1       5.241   6.369  18.004  0.00  0.00    +0.000 A 
ATOM     13  C   UNL     1       5.868   5.604  18.996  0.00  0.00    +0.000 A 
ATOM     14  C   UNL     1       7.241   5.726  19.237  0.00  0.00    +0.000 A 
ATOM     15  C   UNL     1       8.017   6.579  18.458  0.00  0.00    +0.000 A 
ATOM     16  C   UNL     1       7.429   7.275  17.406  0.00  0.00    +0.000 A 
ATOM     17  C   UNL     1       6.054   7.166  17.177  0.00  0.00    +0.000 A 
ENDBRANCH  11  12
ENDBRANCH   1  11
BRANCH   2  18
ATOM     18  C   UNL     1       2.217   8.058  19.773  0.00  0.00    +0.000 C 
BRANCH  18  19
ATOM     19  N   UNL     1       1.067   8.964  19.688  0.00  0.00    +0.000 N 
ATOM     20  C   UNL     1       0.958   9.606  18.451  0.00  0.00    +0.000 A 
ATOM     21  O   UNL     1       1.564   9.298  17.426  0.00  0.00    +0.000 OA
ATOM     22  C   UNL     1       0.096  10.828  18.372  0.00  0.00    +0.000 A 
ATOM     23  N   UNL     1      -0.488  11.363  19.393  0.00  0.00    +0.000 NA
ATOM     24  C   UNL     1      -0.348  10.720  20.631  0.00  0.00    +0.000 A 
ATOM     25  C   UNL     1      -0.946  11.354  21.725  0.00  0.00    +0.000 A 
ATOM     26  C   UNL     1      -0.902  10.773  22.986  0.00  0.00    +0.000 A 
ATOM     27  C   UNL     1      -0.317   9.521  23.140  0.00  0.00    +0.000 A 
ATOM     28  C   UNL     1       0.290   8.879  22.051  0.00  0.00    +0.000 A 
ATOM     29  C   UNL     1       0.348   9.498  20.801  0.00  0.00    +0.000 A 
ENDBRANCH  18  19
ENDBRANCH   2  18
TORSDOF 5
ENDMDL
MODEL 3
REMARK VINA RESULT:      -8.0      1.322      1.478
REMARK  Name = 
REMARK  6 active torsions:
REMARK  status: ('A' for Active; 'I' for Inactive)
REMARK    1  A    between atoms: C_1  and  C_2
REMARK    2  A    between atoms: C_6  and  N_7
REMARK    3  A    between atoms: N_7  and  C_8
REMARK    4  A    between atoms: C_8  and  C_9
REMARK    5  A    between atoms: C_15  and  C_17
REMARK    6  A    between atoms: C_17  and  N_18
REMARK                            x       y       z     vdW  Elec       q    Type
REMARK                         _______ _______ _______ _____ _____    ______ ____
ROOT
ATOM      1  N   UNL     1       2.416   6.178  19.049  0.00  0.00    +0.000 N 
ATOM      2  C   UNL     1       1.885   7.045  20.010  0.00  0.00    +0.000 C 
ATOM      3  O   UNL     1       1.307   6.641  21.024  0.00  0.00    +0.000 OA
ENDROOT
BRANCH   1   9
ATOM      4  C   UNL     1       1.707   2.116  21.867  0.00  0.00    +0.000 C 
ATOM      5  C   UNL     1       1.857   2.763  20.519  0.00  0.00    +0.000 A 
ATOM      6  C   UNL     1       1.688   2.004  19.358  0.00  0.00    +0.000 A 
ATOM      7  C   UNL     1       1.741   2.618  18.107  0.00  0.00    +0.000 A 
ATOM      8  C   UNL     1       1.942   3.998  18.011  0.00  0.00    +0.000 A 
ATOM      9  C   UNL     1       2.154   4.770  19.159  0.00  0.00    +0.000 A 
ATOM     10  C   UNL     1       2.117   4.142  20.412  0.00  0.00    +0.000 A 
ENDBRANCH   1   9
BRANCH   1  11
ATOM     11  C   UNL     1       3.269   6.607  17.927  0.00  0.00    +0.000 C 
BRANCH  11  12
ATOM     12  C   UNL     1       4.755   6.312  18.064  0.00  0.00    +0.000 A 
ATOM     13  C   UNL     1       5.305   5.498  19.063  0.00  0.00    +0.000 A 
ATOM     14  C   UNL     1       6.690   5.407  19.235  0.00  0.00    +0.000 A 
ATOM     15  C   UNL     1       7.549   6.091  18.381  0.00  0.00    +0.000 A 
ATOM     16  C   UNL     1       7.024   6.828  17.323  0.00  0.00    +0.000 A 
ATOM     17  C   UNL     1       5.640   6.933  17.163  0.00  0.00    +0.000 A 
ENDBRANCH  11  12
ENDBRANCH   1  11
BRANCH   2  18
ATOM     18  C   UNL     1       2.055   8.565  19.808  0.00  0.00    +0.000 C 
BRANCH  18  19
ATOM     19  N   UNL     1       1.029   9.609  19.713  0.00  0.00    +0.000 N 
ATOM     20  C   UNL     1       1.139  10.389  18.559  0.00  0.00    +0.000 A 
ATOM     21  O   UNL     1       1.825  10.121  17.573  0.00  0.00    +0.000 OA
ATOM     22  C   UNL     1       0.432  11.709  18.537  0.00  0.00    +0.000 A 
ATOM     23  N   UNL     1      -0.207  12.198  19.549  0.00  0.00    +0.000 NA
ATOM     24  C   UNL     1      -0.287  11.413  20.707  0.00  0.00    +0.000 A 
ATOM     25  C   UNL     1      -0.937  11.994  21.801  0.00  0.00    +0.000 A 
ATOM     26  C   UNL     1      -1.107  11.279  22.979  0.00  0.00    +0.000 A 
ATOM     27  C   UNL     1      -0.685   9.955  23.042  0.00  0.00    +0.000 A 
ATOM     28  C   UNL     1      -0.027   9.365  21.953  0.00  0.00    +0.000 A 
ATOM     29  C   UNL     1       0.247  10.104  20.800  0.00  0.00    +0.000 A 
ENDBRANCH  18  19
ENDBRANCH   2  18
TORSDOF 5
ENDMDL
MODEL 4
REMARK VINA RESULT:      -7.9      1.618      4.076
REMARK  Name = 
REMARK  6 active torsions:
REMARK  status: ('A' for Active; 'I' for Inactive)
REMARK    1  A    between atoms: C_1  and  C_2
REMARK    2  A    between atoms: C_6  and  N_7
REMARK    3  A    between atoms: N_7  and  C_8
REMARK    4  A    between atoms: C_8  and  C_9
REMARK    5  A    between atoms: C_15  and  C_17
REMARK    6  A    between atoms: C_17  and  N_18
REMARK                            x       y       z     vdW  Elec       q    Type
REMARK                         _______ _______ _______ _____ _____    ______ ____
ROOT
ATOM      1  N   UNL     1       2.712   6.530  19.425  0.00  0.00    +0.000 N 
ATOM      2  C   UNL     1       2.232   7.821  19.176  0.00  0.00    +0.000 C 
ATOM      3  O   UNL     1       2.627   8.505  18.226  0.00  0.00    +0.000 OA
ENDROOT
BRANCH   1   9
ATOM      4  C   UNL     1       7.590   5.580  18.930  0.00  0.00    +0.000 C 
ATOM      5  C   UNL     1       6.198   5.607  18.364  0.00  0.00    +0.000 A 
ATOM      6  C   UNL     1       5.955   5.095  17.087  0.00  0.00    +0.000 A 
ATOM      7  C   UNL     1       4.653   5.039  16.593  0.00  0.00    +0.000 A 
ATOM      8  C   UNL     1       3.584   5.476  17.380  0.00  0.00    +0.000 A 
ATOM      9  C   UNL     1       3.810   6.031  18.645  0.00  0.00    +0.000 A 
ATOM     10  C   UNL     1       5.124   6.099  19.128  0.00  0.00    +0.000 A 
ENDBRANCH   1   9
BRANCH   1  11
ATOM     11  C   UNL     1       2.141   5.614  20.428  0.00  0.00    +0.000 C 
BRANCH  11  12
ATOM     12  C   UNL     1       2.066   4.148  20.029  0.00  0.00    +0.000 A 
ATOM     13  C   UNL     1       3.090   3.218  20.258  0.00  0.00    +0.000 A 
ATOM     14  C   UNL     1       3.027   1.931  19.714  0.00  0.00    +0.000 A 
ATOM     15  C   UNL     1       1.917   1.536  18.973  0.00  0.00    +0.000 A 
ATOM     16  C   UNL     1       0.847   2.413  18.816  0.00  0.00    +0.000 A 
ATOM     17  C   UNL     1       0.919   3.705  19.345  0.00  0.00    +0.000 A 
ENDBRANCH  11  12
ENDBRANCH   1  11
BRANCH   2  18
ATOM     18  C   UNL     1       1.148   8.399  20.107  0.00  0.00    +0.000 C 
BRANCH  18  19
ATOM     19  N   UNL     1       0.560   9.742  20.126  0.00  0.00    +0.000 N 
ATOM     20  C   UNL     1       0.736  10.407  21.343  0.00  0.00    +0.000 A 
ATOM     21  O   UNL     1       1.506  10.069  22.241  0.00  0.00    +0.000 OA
ATOM     22  C   UNL     1      -0.143  11.585  21.629  0.00  0.00    +0.000 A 
ATOM     23  N   UNL     1      -1.100  11.973  20.852  0.00  0.00    +0.000 NA
ATOM     24  C   UNL     1      -1.278  11.281  19.647  0.00  0.00    +0.000 A 
ATOM     25  C   UNL     1      -2.356  11.691  18.855  0.00  0.00    +0.000 A 
ATOM     26  C   UNL     1      -2.589  11.097  17.621  0.00  0.00    +0.000 A 
ATOM     27  C   UNL     1      -1.702  10.136  17.147  0.00  0.00    +0.000 A 
ATOM     28  C   UNL     1      -0.621   9.714  17.935  0.00  0.00    +0.000 A 
ATOM     29  C   UNL     1      -0.435  10.225  19.222  0.00  0.00    +0.000 A 
ENDBRANCH  18  19
ENDBRANCH   2  18
TORSDOF 5
ENDMDL
MODEL 5
REMARK VINA RESULT:      -7.9      1.601      4.496
REMARK  Name = 
REMARK  6 active torsions:
REMARK  status: ('A' for Active; 'I' for Inactive)
REMARK    1  A    between atoms: C_1  and  C_2
REMARK    2  A    between atoms: C_6  and  N_7
REMARK    3  A    between atoms: N_7  and  C_8
REMARK    4  A    between atoms: C_8  and  C_9
REMARK    5  A    between atoms: C_15  and  C_17
REMARK    6  A    between atoms: C_17  and  N_18
REMARK                            x       y       z     vdW  Elec       q    Type
REMARK                         _______ _______ _______ _____ _____    ______ ____
ROOT
ATOM      1  N   UNL     1       3.544   5.547  17.519  0.00  0.00    +0.000 N 
ATOM      2  C   UNL     1       3.341   6.898  17.823  0.00  0.00    +0.000 C 
ATOM      3  O   UNL     1       4.166   7.774  17.546  0.00  0.00    +0.000 OA
ENDROOT
BRANCH   1   9
ATOM      4  C   UNL     1       6.369   3.999  13.702  0.00  0.00    +0.000 C 
ATOM      5  C   UNL     1       6.204   4.326  15.159  0.00  0.00    +0.000 A 
ATOM      6  C   UNL     1       7.309   4.280  16.013  0.00  0.00    +0.000 A 
ATOM      7  C   UNL     1       7.179   4.666  17.347  0.00  0.00    +0.000 A 
ATOM      8  C   UNL     1       5.948   5.119  17.829  0.00  0.00    +0.000 A 
ATOM      9  C   UNL     1       4.818   5.133  17.001  0.00  0.00    +0.000 A 
ATOM     10  C   UNL     1       4.955   4.728  15.666  0.00  0.00    +0.000 A 
ENDBRANCH   1   9
BRANCH   1  11
ATOM     11  C   UNL     1       2.516   4.502  17.662  0.00  0.00    +0.000 C 
BRANCH  11  12
ATOM     12  C   UNL     1       2.350   3.914  19.056  0.00  0.00    +0.000 A 
ATOM     13  C   UNL     1       3.417   3.507  19.869  0.00  0.00    +0.000 A 
ATOM     14  C   UNL     1       3.187   2.819  21.065  0.00  0.00    +0.000 A 
ATOM     15  C   UNL     1       1.887   2.569  21.492  0.00  0.00    +0.000 A 
ATOM     16  C   UNL     1       0.814   3.050  20.746  0.00  0.00    +0.000 A 
ATOM     17  C   UNL     1       1.044   3.721  19.542  0.00  0.00    +0.000 A 
ENDBRANCH  11  12
ENDBRANCH   1  11
BRANCH   2  18
ATOM     18  C   UNL     1       2.021   7.310  18.506  0.00  0.00    +0.000 C 
BRANCH  18  19
ATOM     19  N   UNL     1       1.792   8.304  19.560  0.00  0.00    +0.000 N 
ATOM     20  C   UNL     1       1.421   7.739  20.783  0.00  0.00    +0.000 A 
ATOM     21  O   UNL     1       1.511   6.548  21.081  0.00  0.00    +0.000 OA
ATOM     22  C   UNL     1       0.778   8.631  21.799  0.00  0.00    +0.000 A 
ATOM     23  N   UNL     1       0.479   9.869  21.581  0.00  0.00    +0.000 NA
ATOM     24  C   UNL     1       0.837  10.414  20.341  0.00  0.00    +0.000 A 
ATOM     25  C   UNL     1       0.451  11.740  20.116  0.00  0.00    +0.000 A 
ATOM     26  C   UNL     1       0.799  12.384  18.936  0.00  0.00    +0.000 A 
ATOM     27  C   UNL     1       1.592  11.722  18.004  0.00  0.00    +0.000 A 
ATOM     28  C   UNL     1       1.980  10.391  18.217  0.00  0.00    +0.000 A 
ATOM     29  C   UNL     1       1.549   9.696  19.349  0.00  0.00    +0.000 A 
ENDBRANCH  18  19
ENDBRANCH   2  18
TORSDOF 5
ENDMDL
MODEL 6
REMARK VINA RESULT:      -7.8      1.841      4.416
REMARK  Name = 
REMARK  6 active torsions:
REMARK  status: ('A' for Active; 'I' for Inactive)
REMARK    1  A    between atoms: C_1  and  C_2
REMARK    2  A    between atoms: C_6  and  N_7
REMARK    3  A    between atoms: N_7  and  C_8
REMARK    4  A    between atoms: C_8  and  C_9
REMARK    5  A    between atoms: C_15  and  C_17
REMARK    6  A    between atoms: C_17  and  N_18
REMARK                            x       y       z     vdW  Elec       q    Type
REMARK                         _______ _______ _______ _____ _____    ______ ____
ROOT
ATOM      1  N   UNL     1       2.554   6.907  19.490  0.00  0.00    +0.000 N 
ATOM      2  C   UNL     1       2.087   8.162  19.082  0.00  0.00    +0.000 C 
ATOM      3  O   UNL     1       2.537   8.749  18.092  0.00  0.00    +0.000 OA
ENDROOT
BRANCH   1   9
ATOM      4  C   UNL     1       5.219   6.146  15.336  0.00  0.00    +0.000 C 
ATOM      5  C   UNL     1       4.987   5.914  16.802  0.00  0.00    +0.000 A 
ATOM      6  C   UNL     1       5.916   5.184  17.548  0.00  0.00    +0.000 A 
ATOM      7  C   UNL     1       5.749   5.040  18.925  0.00  0.00    +0.000 A 
ATOM      8  C   UNL     1       4.663   5.640  19.567  0.00  0.00    +0.000 A 
ATOM      9  C   UNL     1       3.697   6.340  18.832  0.00  0.00    +0.000 A 
ATOM     10  C   UNL     1       3.864   6.466  17.445  0.00  0.00    +0.000 A 
ENDBRANCH   1   9
BRANCH   1  11
ATOM     11  C   UNL     1       1.926   6.093  20.546  0.00  0.00    +0.000 C 
BRANCH  11  12
ATOM     12  C   UNL     1       1.686   4.629  20.209  0.00  0.00    +0.000 A 
ATOM     13  C   UNL     1       1.858   3.576  21.117  0.00  0.00    +0.000 A 
ATOM     14  C   UNL     1       1.787   2.244  20.695  0.00  0.00    +0.000 A 
ATOM     15  C   UNL     1       1.494   1.944  19.368  0.00  0.00    +0.000 A 
ATOM     16  C   UNL     1       1.226   2.975  18.472  0.00  0.00    +0.000 A 
ATOM     17  C   UNL     1       1.315   4.305  18.891  0.00  0.00    +0.000 A 
ENDBRANCH  11  12
ENDBRANCH   1  11
BRANCH   2  18
ATOM     18  C   UNL     1       0.948   8.823  19.884  0.00  0.00    +0.000 C 
BRANCH  18  19
ATOM     19  N   UNL     1       0.338  10.145  19.712  0.00  0.00    +0.000 N 
ATOM     20  C   UNL     1       0.568  11.005  20.790  0.00  0.00    +0.000 A 
ATOM     21  O   UNL     1       1.392  10.829  21.686  0.00  0.00    +0.000 OA
ATOM     22  C   UNL     1      -0.314  12.207  20.925  0.00  0.00    +0.000 A 
ATOM     23  N   UNL     1      -1.319  12.452  20.150  0.00  0.00    +0.000 NA
ATOM     24  C   UNL     1      -1.550  11.567  19.089  0.00  0.00    +0.000 A 
ATOM     25  C   UNL     1      -2.677  11.829  18.302  0.00  0.00    +0.000 A 
ATOM     26  C   UNL     1      -2.967  11.036  17.200  0.00  0.00    +0.000 A 
ATOM     27  C   UNL     1      -2.089  10.017  16.843  0.00  0.00    +0.000 A 
ATOM     28  C   UNL     1      -0.960   9.742  17.627  0.00  0.00    +0.000 A 
ATOM     29  C   UNL     1      -0.713  10.462  18.798  0.00  0.00    +0.000 A 
ENDBRANCH  18  19
ENDBRANCH   2  18
TORSDOF 5
ENDMDL
MODEL 7
REMARK VINA RESULT:      -7.8      1.911      4.332
REMARK  Name = 
REMARK  6 active torsions:
REMARK  status: ('A' for Active; 'I' for Inactive)
REMARK    1  A    between atoms: C_1  and  C_2
REMARK    2  A    between atoms: C_6  and  N_7
REMARK    3  A    between atoms: N_7  and  C_8
REMARK    4  A    between atoms: C_8  and  C_9
REMARK    5  A    between atoms: C_15  and  C_17
REMARK    6  A    between atoms: C_17  and  N_18
REMARK                            x       y       z     vdW  Elec       q    Type
REMARK                         _______ _______ _______ _____ _____    ______ ____
ROOT
ATOM      1  N   UNL     1       2.873   7.218  18.876  0.00  0.00    +0.000 N 
ATOM      2  C   UNL     1       2.150   8.363  18.523  0.00  0.00    +0.000 C 
ATOM      3  O   UNL     1       2.357   8.983  17.475  0.00  0.00    +0.000 OA
ENDROOT
BRANCH   1   9
ATOM      4  C   UNL     1       7.482   5.329  18.508  0.00  0.00    +0.000 C 
ATOM      5  C   UNL     1       6.270   5.955  17.877  0.00  0.00    +0.000 A 
ATOM      6  C   UNL     1       6.209   6.113  16.490  0.00  0.00    +0.000 A 
ATOM      7  C   UNL     1       5.053   6.613  15.893  0.00  0.00    +0.000 A 
ATOM      8  C   UNL     1       3.943   6.939  16.678  0.00  0.00    +0.000 A 
ATOM      9  C   UNL     1       3.997   6.828  18.073  0.00  0.00    +0.000 A 
ATOM     10  C   UNL     1       5.170   6.340  18.666  0.00  0.00    +0.000 A 
ENDBRANCH   1   9
BRANCH   1  11
ATOM     11  C   UNL     1       2.539   6.347  20.017  0.00  0.00    +0.000 C 
BRANCH  11  12
ATOM     12  C   UNL     1       2.036   4.953  19.670  0.00  0.00    +0.000 A 
ATOM     13  C   UNL     1       1.868   4.483  18.361  0.00  0.00    +0.000 A 
ATOM     14  C   UNL     1       1.241   3.257  18.113  0.00  0.00    +0.000 A 
ATOM     15  C   UNL     1       0.816   2.459  19.171  0.00  0.00    +0.000 A 
ATOM     16  C   UNL     1       1.061   2.866  20.480  0.00  0.00    +0.000 A 
ATOM     17  C   UNL     1       1.671   4.099  20.727  0.00  0.00    +0.000 A 
ENDBRANCH  11  12
ENDBRANCH   1  11
BRANCH   2  18
ATOM     18  C   UNL     1       1.033   8.851  19.467  0.00  0.00    +0.000 C 
BRANCH  18  19
ATOM     19  N   UNL     1       0.288  10.114  19.448  0.00  0.00    +0.000 N 
ATOM     20  C   UNL     1       0.503  10.901  20.583  0.00  0.00    +0.000 A 
ATOM     21  O   UNL     1       1.397  10.737  21.412  0.00  0.00    +0.000 OA
ATOM     22  C   UNL     1      -0.481  11.992  20.875  0.00  0.00    +0.000 A 
ATOM     23  N   UNL     1      -1.553  12.196  20.183  0.00  0.00    +0.000 NA
ATOM     24  C   UNL     1      -1.766  11.383  19.062  0.00  0.00    +0.000 A 
ATOM     25  C   UNL     1      -2.962  11.592  18.367  0.00  0.00    +0.000 A 
ATOM     26  C   UNL     1      -3.244  10.868  17.216  0.00  0.00    +0.000 A 
ATOM     27  C   UNL     1      -2.298   9.976  16.721  0.00  0.00    +0.000 A 
ATOM     28  C   UNL     1      -1.098   9.754  17.413  0.00  0.00    +0.000 A 
ATOM     29  C   UNL     1      -0.846  10.396  18.627  0.00  0.00    +0.000 A 
ENDBRANCH  18  19
ENDBRANCH   2  18
TORSDOF 5
ENDMDL
MODEL 8
REMARK VINA RESULT:      -7.8      1.896      3.109
REMARK  Name = 
REMARK  6 active torsions:
REMARK  status: ('A' for Active; 'I' for Inactive)
REMARK    1  A    between atoms: C_1  and  C_2
REMARK    2  A    between atoms: C_6  and  N_7
REMARK    3  A    between atoms: N_7  and  C_8
REMARK    4  A    between atoms: C_8  and  C_9
REMARK    5  A    between atoms: C_15  and  C_17
REMARK    6  A    between atoms: C_17  and  N_18
REMARK                            x       y       z     vdW  Elec       q    Type
REMARK                         _______ _______ _______ _____ _____    ______ ____
ROOT
ATOM      1  N   UNL     1       2.146   6.766  19.422  0.00  0.00    +0.000 N 
ATOM      2  C   UNL     1       1.518   7.806  20.116  0.00  0.00    +0.000 C 
ATOM      3  O   UNL     1       0.933   7.631  21.190  0.00  0.00    +0.000 OA
ENDROOT
BRANCH   1   9
ATOM      4  C   UNL     1       0.645   2.068  18.638  0.00  0.00    +0.000 C 
ATOM      5  C   UNL     1       1.207   3.128  19.542  0.00  0.00    +0.000 A 
ATOM      6  C   UNL     1       1.626   2.793  20.833  0.00  0.00    +0.000 A 
ATOM      7  C   UNL     1       2.227   3.754  21.644  0.00  0.00    +0.000 A 
ATOM      8  C   UNL     1       2.432   5.050  21.163  0.00  0.00    +0.000 A 
ATOM      9  C   UNL     1       1.983   5.418  19.888  0.00  0.00    +0.000 A 
ATOM     10  C   UNL     1       1.364   4.449  19.085  0.00  0.00    +0.000 A 
ENDBRANCH   1   9
BRANCH   1  11
ATOM     11  C   UNL     1       3.007   6.960  18.242  0.00  0.00    +0.000 C 
BRANCH  11  12
ATOM     12  C   UNL     1       4.201   6.024  18.124  0.00  0.00    +0.000 A 
ATOM     13  C   UNL     1       5.209   5.911  19.091  0.00  0.00    +0.000 A 
ATOM     14  C   UNL     1       6.363   5.160  18.842  0.00  0.00    +0.000 A 
ATOM     15  C   UNL     1       6.506   4.471  17.641  0.00  0.00    +0.000 A 
ATOM     16  C   UNL     1       5.473   4.493  16.709  0.00  0.00    +0.000 A 
ATOM     17  C   UNL     1       4.328   5.257  16.951  0.00  0.00    +0.000 A 
ENDBRANCH  11  12
ENDBRANCH   1  11
BRANCH   2  18
ATOM     18  C   UNL     1       1.585   9.231  19.531  0.00  0.00    +0.000 C 
BRANCH  18  19
ATOM     19  N   UNL     1       0.597  10.313  19.605  0.00  0.00    +0.000 N 
ATOM     20  C   UNL     1       0.662  11.042  20.796  0.00  0.00    +0.000 A 
ATOM     21  O   UNL     1       1.583  11.004  21.611  0.00  0.00    +0.000 OA
ATOM     22  C   UNL     1      -0.520  11.882  21.166  0.00  0.00    +0.000 A 
ATOM     23  N   UNL     1      -1.621  11.912  20.490  0.00  0.00    +0.000 NA
ATOM     24  C   UNL     1      -1.678  11.157  19.311  0.00  0.00    +0.000 A 
ATOM     25  C   UNL     1      -2.902  11.167  18.632  0.00  0.00    +0.000 A 
ATOM     26  C   UNL     1      -3.045  10.486  17.430  0.00  0.00    +0.000 A 
ATOM     27  C   UNL     1      -1.943   9.847  16.871  0.00  0.00    +0.000 A 
ATOM     28  C   UNL     1      -0.714   9.826  17.546  0.00  0.00    +0.000 A 
ATOM     29  C   UNL     1      -0.582  10.415  18.806  0.00  0.00    +0.000 A 
ENDBRANCH  18  19
ENDBRANCH   2  18
TORSDOF 5
ENDMDL
MODEL 9
REMARK VINA RESULT:      -7.8      1.919      4.379
REMARK  Name = 
REMARK  6 active torsions:
REMARK  status: ('A' for Active; 'I' for Inactive)
REMARK    1  A    between atoms: C_1  and  C_2
REMARK    2  A    between atoms: C_6  and  N_7
REMARK    3  A    between atoms: N_7  and  C_8
REMARK    4  A    between atoms: C_8  and  C_9
REMARK    5  A    between atoms: C_15  and  C_17
REMARK    6  A    between atoms: C_17  and  N_18
REMARK                            x       y       z     vdW  Elec       q    Type
REMARK                         _______ _______ _______ _____ _____    ______ ____
ROOT
ATOM      1  N   UNL     1       2.812   6.905  18.859  0.00  0.00    +0.000 N 
ATOM      2  C   UNL     1       2.386   8.082  18.233  0.00  0.00    +0.000 C 
ATOM      3  O   UNL     1       2.918   8.520  17.207  0.00  0.00    +0.000 OA
ENDROOT
BRANCH   1   9
ATOM      4  C   UNL     1       5.651   5.279  15.086  0.00  0.00    +0.000 C 
ATOM      5  C   UNL     1       5.380   5.408  16.558  0.00  0.00    +0.000 A 
ATOM      6  C   UNL     1       6.318   4.941  17.483  0.00  0.00    +0.000 A 
ATOM      7  C   UNL     1       6.111   5.136  18.848  0.00  0.00    +0.000 A 
ATOM      8  C   UNL     1       4.975   5.817  19.295  0.00  0.00    +0.000 A 
ATOM      9  C   UNL     1       4.003   6.256  18.388  0.00  0.00    +0.000 A 
ATOM     10  C   UNL     1       4.211   6.041  17.018  0.00  0.00    +0.000 A 
ENDBRANCH   1   9
BRANCH   1  11
ATOM     11  C   UNL     1       2.095   6.252  19.968  0.00  0.00    +0.000 C 
BRANCH  11  12
ATOM     12  C   UNL     1       1.846   4.758  19.816  0.00  0.00    +0.000 A 
ATOM     13  C   UNL     1       1.489   4.140  18.610  0.00  0.00    +0.000 A 
ATOM     14  C   UNL     1       1.109   2.794  18.577  0.00  0.00    +0.000 A 
ATOM     15  C   UNL     1       1.127   2.032  19.741  0.00  0.00    +0.000 A 
ATOM     16  C   UNL     1       1.571   2.603  20.931  0.00  0.00    +0.000 A 
ATOM     17  C   UNL     1       1.933   3.952  20.966  0.00  0.00    +0.000 A 
ENDBRANCH  11  12
ENDBRANCH   1  11
BRANCH   2  18
ATOM     18  C   UNL     1       1.187   8.845  18.831  0.00  0.00    +0.000 C 
BRANCH  18  19
ATOM     19  N   UNL     1       1.177   9.943  19.803  0.00  0.00    +0.000 N 
ATOM     20  C   UNL     1       0.532   9.617  21.000  0.00  0.00    +0.000 A 
ATOM     21  O   UNL     1       0.219   8.484  21.361  0.00  0.00    +0.000 OA
ATOM     22  C   UNL     1       0.103  10.742  21.891  0.00  0.00    +0.000 A 
ATOM     23  N   UNL     1       0.226  11.990  21.582  0.00  0.00    +0.000 NA
ATOM     24  C   UNL     1       0.854  12.299  20.368  0.00  0.00    +0.000 A 
ATOM     25  C   UNL     1       0.923  13.657  20.038  0.00  0.00    +0.000 A 
ATOM     26  C   UNL     1       1.565  14.068  18.878  0.00  0.00    +0.000 A 
ATOM     27  C   UNL     1       2.200  13.124  18.077  0.00  0.00    +0.000 A 
ATOM     28  C   UNL     1       2.132  11.759  18.396  0.00  0.00    +0.000 A 
ATOM     29  C   UNL     1       1.400  11.321  19.501  0.00  0.00    +0.000 A 
ENDBRANCH  18  19
ENDBRANCH   2  18
TORSDOF 5
ENDMDL
