MODEL 1
REMARK VINA RESULT:      -8.8      0.000      0.000
REMARK  Name = 
REMARK  6 active torsions:
REMARK  status: ('A' for Active; 'I' for Inactive)
REMARK    1  A    between atoms: C_1  and  O_2
REMARK    2  A    between atoms: O_2  and  C_3
REMARK    3  A    between atoms: C_6  and  N_7
REMARK    4  A    between atoms: C_8  and  C_10
REMARK    5  A    between atoms: C_21  and  S_22
REMARK    6  A    between atoms: S_22  and  N_25
REMARK                            x       y       z     vdW  Elec       q    Type
REMARK                         _______ _______ _______ _____ _____    ______ ____
ROOT
ATOM      1  C   UNL     1       2.992   3.551  18.854  0.00  0.00    +0.000 A 
ATOM      2  C   UNL     1       1.749   3.525  19.506  0.00  0.00    +0.000 A 
ATOM      3  C   UNL     1       1.280   4.610  20.239  0.00  0.00    +0.000 A 
ATOM      4  C   UNL     1       2.032   5.767  20.350  0.00  0.00    +0.000 A 
ATOM      5  C   UNL     1       3.315   5.764  19.826  0.00  0.00    +0.000 A 
ATOM      6  C   UNL     1       3.811   4.660  19.073  0.00  0.00    +0.000 A 
ENDROOT
BRANCH   4   7
ATOM      7  N   UNL     1       1.533   6.916  20.983  0.00  0.00    +0.000 N 
ATOM      8  C   UNL     1       1.387   8.132  20.337  0.00  0.00    +0.000 C 
ATOM      9  O   UNL     1       1.799   8.409  19.213  0.00  0.00    +0.000 OA
ATOM     10  H   UNL     1       1.376   6.920  21.988  0.00  0.00    +0.000 HD
BRANCH   8  11
ATOM     11  C   UNL     1       0.682   9.185  21.098  0.00  0.00    +0.000 A 
ATOM     12  C   UNL     1       0.469   8.954  22.448  0.00  0.00    +0.000 A 
ATOM     13  C   UNL     1      -0.266   9.884  23.157  0.00  0.00    +0.000 A 
ATOM     14  C   UNL     1      -0.797  10.987  22.483  0.00  0.00    +0.000 A 
ATOM     15  C   UNL     1      -1.641  11.882  23.149  0.00  0.00    +0.000 A 
ATOM     16  C   UNL     1      -2.199  12.950  22.449  0.00  0.00    +0.000 A 
ATOM     17  C   UNL     1      -1.882  13.147  21.116  0.00  0.00    +0.000 A 
ATOM     18  C   UNL     1      -1.023  12.263  20.463  0.00  0.00    +0.000 A 
ATOM     19  C   UNL     1      -0.489  11.159  21.109  0.00  0.00    +0.000 A 
ATOM     20  N   UNL     1       0.265  10.285  20.420  0.00  0.00    +0.000 NA
ENDBRANCH   8  11
ENDBRANCH   4   7
BRANCH   6  21
ATOM     21  S   UNL     1       5.486   4.948  18.568  0.00  0.00    +0.000 S 
ATOM     22  O   UNL     1       6.213   5.163  19.808  0.00  0.00    +0.000 OA
ATOM     23  O   UNL     1       5.817   3.792  17.758  0.00  0.00    +0.000 OA
BRANCH  21  24
ATOM     24  N   UNL     1       5.801   6.331  17.623  0.00  0.00    +0.000 NA
ATOM     25  C   UNL     1       4.956   6.628  16.427  0.00  0.00    +0.000 C 
ATOM     26  C   UNL     1       5.221   5.663  15.268  0.00  0.00    +0.000 C 
ATOM     27  O   UNL     1       6.599   5.674  14.873  0.00  0.00    +0.000 OA
ATOM     28  C   UNL     1       7.470   5.372  15.974  0.00  0.00    +0.000 C 
ATOM     29  C   UNL     1       7.251   6.346  17.146  0.00  0.00    +0.000 C 
ENDBRANCH  21  24
ENDBRANCH   6  21
BRANCH   1  31
ATOM     30  C   UNL     1       3.626   1.272  18.688  0.00  0.00    +0.000 C 
ATOM     31  O   UNL     1       3.373   2.525  18.037  0.00  0.00    +0.000 OA
ENDBRANCH   1  31
TORSDOF 5
ENDMDL
MODEL 2
REMARK VINA RESULT:      -8.8      2.068      2.553
REMARK  Name = 
REMARK  6 active torsions:
REMARK  status: ('A' for Active; 'I' for Inactive)
REMARK    1  A    between atoms: C_1  and  O_2
REMARK    2  A    between atoms: O_2  and  C_3
REMARK    3  A    between atoms: C_6  and  N_7
REMARK    4  A    between atoms: C_8  and  C_10
REMARK    5  A    between atoms: C_21  and  S_22
REMARK    6  A    between atoms: S_22  and  N_25
REMARK                            x       y       z     vdW  Elec       q    Type
REMARK                         _______ _______ _______ _____ _____    ______ ____
ROOT
ATOM      1  C   UNL     1       2.636   4.016  19.911  0.00  0.00    +0.000 A 
ATOM      2  C   UNL     1       1.635   4.558  20.733  0.00  0.00    +0.000 A 
ATOM      3  C   UNL     1       1.382   5.924  20.781  0.00  0.00    +0.000 A 
ATOM      4  C   UNL     1       2.116   6.807  20.007  0.00  0.00    +0.000 A 
ATOM      5  C   UNL     1       3.193   6.307  19.291  0.00  0.00    +0.000 A 
ATOM      6  C   UNL     1       3.467   4.910  19.233  0.00  0.00    +0.000 A 
ENDROOT
BRANCH   4   7
ATOM      7  N   UNL     1       1.804   8.174  19.946  0.00  0.00    +0.000 N 
ATOM      8  C   UNL     1       1.541   8.838  18.760  0.00  0.00    +0.000 C 
ATOM      9  O   UNL     1       1.687   8.383  17.628  0.00  0.00    +0.000 OA
ATOM     10  H   UNL     1       1.884   8.755  20.778  0.00  0.00    +0.000 HD
BRANCH   8  11
ATOM     11  C   UNL     1       1.056  10.228  18.894  0.00  0.00    +0.000 A 
ATOM     12  C   UNL     1      -0.315  10.413  18.984  0.00  0.00    +0.000 A 
ATOM     13  C   UNL     1      -0.793  11.709  19.019  0.00  0.00    +0.000 A 
ATOM     14  C   UNL     1       0.112  12.769  18.919  0.00  0.00    +0.000 A 
ATOM     15  C   UNL     1      -0.352  14.086  18.834  0.00  0.00    +0.000 A 
ATOM     16  C   UNL     1       0.561  15.128  18.687  0.00  0.00    +0.000 A 
ATOM     17  C   UNL     1       1.920  14.862  18.671  0.00  0.00    +0.000 A 
ATOM     18  C   UNL     1       2.377  13.548  18.777  0.00  0.00    +0.000 A 
ATOM     19  C   UNL     1       1.499  12.479  18.872  0.00  0.00    +0.000 A 
ATOM     20  N   UNL     1       1.978  11.224  18.885  0.00  0.00    +0.000 NA
ENDBRANCH   8  11
ENDBRANCH   4   7
BRANCH   6  21
ATOM     21  S   UNL     1       4.919   4.596  18.267  0.00  0.00    +0.000 S 
ATOM     22  O   UNL     1       5.872   4.032  19.208  0.00  0.00    +0.000 OA
ATOM     23  O   UNL     1       4.447   3.768  17.174  0.00  0.00    +0.000 OA
BRANCH  21  24
ATOM     24  N   UNL     1       5.716   5.935  17.576  0.00  0.00    +0.000 NA
ATOM     25  C   UNL     1       5.215   6.526  16.298  0.00  0.00    +0.000 C 
ATOM     26  C   UNL     1       5.485   5.625  15.091  0.00  0.00    +0.000 C 
ATOM     27  O   UNL     1       6.882   5.335  14.947  0.00  0.00    +0.000 OA
ATOM     28  C   UNL     1       7.426   4.741  16.136  0.00  0.00    +0.000 C 
ATOM     29  C   UNL     1       7.199   5.638  17.367  0.00  0.00    +0.000 C 
ENDBRANCH  21  24
ENDBRANCH   6  21
BRANCH   1  31
ATOM     30  C   UNL     1       1.923   2.032  18.824  0.00  0.00    +0.000 C 
ATOM     31  O   UNL     1       2.780   2.663  19.786  0.00  0.00    +0.000 OA
ENDBRANCH   1  31
TORSDOF 5
ENDMDL
MODEL 3
REMARK VINA RESULT:      -8.8      1.185      1.500
REMARK  Name = 
REMARK  6 active torsions:
REMARK  status: ('A' for Active; 'I' for Inactive)
REMARK    1  A    between atoms: C_1  and  O_2
REMARK    2  A    between atoms: O_2  and  C_3
REMARK    3  A    between atoms: C_6  and  N_7
REMARK    4  A    between atoms: C_8  and  C_10
REMARK    5  A    between atoms: C_21  and  S_22
REMARK    6  A    between atoms: S_22  and  N_25
REMARK                            x       y       z     vdW  Elec       q    Type
REMARK                         _______ _______ _______ _____ _____    ______ ____
ROOT
ATOM      1  C   UNL     1       3.107   3.433  19.458  0.00  0.00    +0.000 A 
ATOM      2  C   UNL     1       2.369   3.385  20.652  0.00  0.00    +0.000 A 
ATOM      3  C   UNL     1       1.888   4.537  21.265  0.00  0.00    +0.000 A 
ATOM      4  C   UNL     1       2.121   5.784  20.711  0.00  0.00    +0.000 A 
ATOM      5  C   UNL     1       2.958   5.861  19.608  0.00  0.00    +0.000 A 
ATOM      6  C   UNL     1       3.461   4.692  18.969  0.00  0.00    +0.000 A 
ENDROOT
BRANCH   4   7
ATOM      7  N   UNL     1       1.548   6.950  21.243  0.00  0.00    +0.000 N 
ATOM      8  C   UNL     1       1.377   8.111  20.509  0.00  0.00    +0.000 C 
ATOM      9  O   UNL     1       1.822   8.329  19.384  0.00  0.00    +0.000 OA
ATOM     10  H   UNL     1       1.351   7.015  22.239  0.00  0.00    +0.000 HD
BRANCH   8  11
ATOM     11  C   UNL     1       0.597   9.180  21.168  0.00  0.00    +0.000 A 
ATOM     12  C   UNL     1       0.388   9.060  22.533  0.00  0.00    +0.000 A 
ATOM     13  C   UNL     1      -0.413  10.000  23.152  0.00  0.00    +0.000 A 
ATOM     14  C   UNL     1      -1.010  10.999  22.377  0.00  0.00    +0.000 A 
ATOM     15  C   UNL     1      -1.918  11.892  22.956  0.00  0.00    +0.000 A 
ATOM     16  C   UNL     1      -2.539  12.852  22.159  0.00  0.00    +0.000 A 
ATOM     17  C   UNL     1      -2.225  12.946  20.815  0.00  0.00    +0.000 A 
ATOM     18  C   UNL     1      -1.304  12.065  20.248  0.00  0.00    +0.000 A 
ATOM     19  C   UNL     1      -0.702  11.063  20.994  0.00  0.00    +0.000 A 
ATOM     20  N   UNL     1       0.114  10.183  20.391  0.00  0.00    +0.000 NA
ENDBRANCH   8  11
ENDBRANCH   4   7
BRANCH   6  21
ATOM     21  S   UNL     1       4.519   5.123  17.614  0.00  0.00    +0.000 S 
ATOM     22  O   UNL     1       4.041   4.318  16.503  0.00  0.00    +0.000 OA
ATOM     23  O   UNL     1       4.413   6.566  17.525  0.00  0.00    +0.000 OA
BRANCH  21  24
ATOM     24  N   UNL     1       6.176   4.748  17.753  0.00  0.00    +0.000 NA
ATOM     25  C   UNL     1       7.125   5.752  18.323  0.00  0.00    +0.000 C 
ATOM     26  C   UNL     1       7.376   6.926  17.374  0.00  0.00    +0.000 C 
ATOM     27  O   UNL     1       7.879   6.484  16.106  0.00  0.00    +0.000 OA
ATOM     28  C   UNL     1       7.001   5.531  15.488  0.00  0.00    +0.000 C 
ATOM     29  C   UNL     1       6.753   4.320  16.406  0.00  0.00    +0.000 C 
ENDBRANCH  21  24
ENDBRANCH   6  21
BRANCH   1  31
ATOM     30  C   UNL     1       2.495   1.776  17.876  0.00  0.00    +0.000 C 
ATOM     31  O   UNL     1       3.459   2.283  18.809  0.00  0.00    +0.000 OA
ENDBRANCH   1  31
TORSDOF 5
ENDMDL
MODEL 4
REMARK VINA RESULT:      -8.7      0.862      1.354
REMARK  Name = 
REMARK  6 active torsions:
REMARK  status: ('A' for Active; 'I' for Inactive)
REMARK    1  A    between atoms: C_1  and  O_2
REMARK    2  A    between atoms: O_2  and  C_3
REMARK    3  A    between atoms: C_6  and  N_7
REMARK    4  A    between atoms: C_8  and  C_10
REMARK    5  A    between atoms: C_21  and  S_22
REMARK    6  A    between atoms: S_22  and  N_25
REMARK                            x       y       z     vdW  Elec       q    Type
REMARK                         _______ _______ _______ _____ _____    ______ ____
ROOT
ATOM      1  C   UNL     1       2.776   3.639  18.913  0.00  0.00    +0.000 A 
ATOM      2  C   UNL     1       1.587   3.640  19.659  0.00  0.00    +0.000 A 
ATOM      3  C   UNL     1       1.183   4.746  20.398  0.00  0.00    +0.000 A 
ATOM      4  C   UNL     1       1.949   5.899  20.422  0.00  0.00    +0.000 A 
ATOM      5  C   UNL     1       3.188   5.872  19.801  0.00  0.00    +0.000 A 
ATOM      6  C   UNL     1       3.617   4.746  19.040  0.00  0.00    +0.000 A 
ENDROOT
BRANCH   4   7
ATOM      7  N   UNL     1       1.508   7.068  21.061  0.00  0.00    +0.000 N 
ATOM      8  C   UNL     1       1.380   8.284  20.411  0.00  0.00    +0.000 C 
ATOM      9  O   UNL     1       1.763   8.540  19.272  0.00  0.00    +0.000 OA
ATOM     10  H   UNL     1       1.384   7.084  22.071  0.00  0.00    +0.000 HD
BRANCH   8  11
ATOM     11  C   UNL     1       0.734   9.364  21.187  0.00  0.00    +0.000 A 
ATOM     12  C   UNL     1       0.061   8.998  22.341  0.00  0.00    +0.000 A 
ATOM     13  C   UNL     1      -0.625   9.978  23.032  0.00  0.00    +0.000 A 
ATOM     14  C   UNL     1      -0.648  11.279  22.520  0.00  0.00    +0.000 A 
ATOM     15  C   UNL     1      -1.429  12.264  23.133  0.00  0.00    +0.000 A 
ATOM     16  C   UNL     1      -1.477  13.543  22.582  0.00  0.00    +0.000 A 
ATOM     17  C   UNL     1      -0.722  13.845  21.462  0.00  0.00    +0.000 A 
ATOM     18  C   UNL     1       0.071  12.863  20.868  0.00  0.00    +0.000 A 
ATOM     19  C   UNL     1       0.106  11.565  21.354  0.00  0.00    +0.000 A 
ATOM     20  N   UNL     1       0.816  10.629  20.701  0.00  0.00    +0.000 NA
ENDBRANCH   8  11
ENDBRANCH   4   7
BRANCH   6  21
ATOM     21  S   UNL     1       5.250   5.007  18.401  0.00  0.00    +0.000 S 
ATOM     22  O   UNL     1       5.260   6.396  17.972  0.00  0.00    +0.000 OA
ATOM     23  O   UNL     1       6.125   4.607  19.485  0.00  0.00    +0.000 OA
BRANCH  21  24
ATOM     24  N   UNL     1       5.713   4.115  17.024  0.00  0.00    +0.000 NA
ATOM     25  C   UNL     1       7.121   4.183  16.527  0.00  0.00    +0.000 C 
ATOM     26  C   UNL     1       7.448   5.529  15.878  0.00  0.00    +0.000 C 
ATOM     27  O   UNL     1       6.561   5.824  14.791  0.00  0.00    +0.000 OA
ATOM     28  C   UNL     1       5.186   5.798  15.204  0.00  0.00    +0.000 C 
ATOM     29  C   UNL     1       4.815   4.443  15.834  0.00  0.00    +0.000 C 
ENDBRANCH  21  24
ENDBRANCH   6  21
BRANCH   1  31
ATOM     30  C   UNL     1       3.642   1.438  18.744  0.00  0.00    +0.000 C 
ATOM     31  O   UNL     1       3.086   2.590  18.095  0.00  0.00    +0.000 OA
ENDBRANCH   1  31
TORSDOF 5
ENDMDL
MODEL 5
REMARK VINA RESULT:      -8.7      1.706      2.245
REMARK  Name = 
REMARK  6 active torsions:
REMARK  status: ('A' for Active; 'I' for Inactive)
REMARK    1  A    between atoms: C_1  and  O_2
REMARK    2  A    between atoms: O_2  and  C_3
REMARK    3  A    between atoms: C_6  and  N_7
REMARK    4  A    between atoms: C_8  and  C_10
REMARK    5  A    between atoms: C_21  and  S_22
REMARK    6  A    between atoms: S_22  and  N_25
REMARK                            x       y       z     vdW  Elec       q    Type
REMARK                         _______ _______ _______ _____ _____    ______ ____
ROOT
ATOM      1  C   UNL     1       2.584   4.085  19.898  0.00  0.00    +0.000 A 
ATOM      2  C   UNL     1       1.587   4.655  20.707  0.00  0.00    +0.000 A 
ATOM      3  C   UNL     1       1.357   6.026  20.735  0.00  0.00    +0.000 A 
ATOM      4  C   UNL     1       2.111   6.885  19.954  0.00  0.00    +0.000 A 
ATOM      5  C   UNL     1       3.184   6.358  19.251  0.00  0.00    +0.000 A 
ATOM      6  C   UNL     1       3.434   4.956  19.214  0.00  0.00    +0.000 A 
ENDROOT
BRANCH   4   7
ATOM      7  N   UNL     1       1.823   8.257  19.873  0.00  0.00    +0.000 N 
ATOM      8  C   UNL     1       1.645   8.923  18.672  0.00  0.00    +0.000 C 
ATOM      9  O   UNL     1       1.856   8.464  17.551  0.00  0.00    +0.000 OA
ATOM     10  H   UNL     1       1.859   8.838  20.707  0.00  0.00    +0.000 HD
BRANCH   8  11
ATOM     11  C   UNL     1       1.173  10.320  18.774  0.00  0.00    +0.000 A 
ATOM     12  C   UNL     1       2.025  11.310  18.312  0.00  0.00    +0.000 A 
ATOM     13  C   UNL     1       1.641  12.627  18.481  0.00  0.00    +0.000 A 
ATOM     14  C   UNL     1       0.441  12.904  19.142  0.00  0.00    +0.000 A 
ATOM     15  C   UNL     1       0.085  14.226  19.431  0.00  0.00    +0.000 A 
ATOM     16  C   UNL     1      -1.091  14.482  20.132  0.00  0.00    +0.000 A 
ATOM     17  C   UNL     1      -1.921  13.437  20.501  0.00  0.00    +0.000 A 
ATOM     18  C   UNL     1      -1.569  12.123  20.193  0.00  0.00    +0.000 A 
ATOM     19  C   UNL     1      -0.383  11.822  19.542  0.00  0.00    +0.000 A 
ATOM     20  N   UNL     1      -0.042  10.538  19.341  0.00  0.00    +0.000 NA
ENDBRANCH   8  11
ENDBRANCH   4   7
BRANCH   6  21
ATOM     21  S   UNL     1       4.886   4.603  18.261  0.00  0.00    +0.000 S 
ATOM     22  O   UNL     1       5.816   4.015  19.211  0.00  0.00    +0.000 OA
ATOM     23  O   UNL     1       4.403   3.788  17.164  0.00  0.00    +0.000 OA
BRANCH  21  24
ATOM     24  N   UNL     1       5.724   5.921  17.578  0.00  0.00    +0.000 NA
ATOM     25  C   UNL     1       5.261   6.514  16.286  0.00  0.00    +0.000 C 
ATOM     26  C   UNL     1       5.536   5.600  15.090  0.00  0.00    +0.000 C 
ATOM     27  O   UNL     1       6.929   5.280  14.977  0.00  0.00    +0.000 OA
ATOM     28  C   UNL     1       7.437   4.682  16.179  0.00  0.00    +0.000 C 
ATOM     29  C   UNL     1       7.204   5.592  17.400  0.00  0.00    +0.000 C 
ENDBRANCH  21  24
ENDBRANCH   6  21
BRANCH   1  31
ATOM     30  C   UNL     1       1.599   2.051  19.181  0.00  0.00    +0.000 C 
ATOM     31  O   UNL     1       2.705   2.728  19.792  0.00  0.00    +0.000 OA
ENDBRANCH   1  31
TORSDOF 5
ENDMDL
MODEL 6
REMARK VINA RESULT:      -8.5      1.558      2.509
REMARK  Name = 
REMARK  6 active torsions:
REMARK  status: ('A' for Active; 'I' for Inactive)
REMARK    1  A    between atoms: C_1  and  O_2
REMARK    2  A    between atoms: O_2  and  C_3
REMARK    3  A    between atoms: C_6  and  N_7
REMARK    4  A    between atoms: C_8  and  C_10
REMARK    5  A    between atoms: C_21  and  S_22
REMARK    6  A    between atoms: S_22  and  N_25
REMARK                            x       y       z     vdW  Elec       q    Type
REMARK                         _______ _______ _______ _____ _____    ______ ____
ROOT
ATOM      1  C   UNL     1       3.803   3.905  18.326  0.00  0.00    +0.000 A 
ATOM      2  C   UNL     1       3.077   3.993  19.525  0.00  0.00    +0.000 A 
ATOM      3  C   UNL     1       2.603   5.206  20.011  0.00  0.00    +0.000 A 
ATOM      4  C   UNL     1       2.831   6.383  19.318  0.00  0.00    +0.000 A 
ATOM      5  C   UNL     1       3.656   6.335  18.205  0.00  0.00    +0.000 A 
ATOM      6  C   UNL     1       4.151   5.101  17.695  0.00  0.00    +0.000 A 
ENDROOT
BRANCH   4   7
ATOM      7  N   UNL     1       2.264   7.602  19.723  0.00  0.00    +0.000 N 
ATOM      8  C   UNL     1       1.757   8.533  18.832  0.00  0.00    +0.000 C 
ATOM      9  O   UNL     1       1.866   8.498  17.608  0.00  0.00    +0.000 OA
ATOM     10  H   UNL     1       2.322   7.896  20.695  0.00  0.00    +0.000 HD
BRANCH   8  11
ATOM     11  C   UNL     1       1.038   9.676  19.434  0.00  0.00    +0.000 A 
ATOM     12  C   UNL     1       1.116  10.891  18.773  0.00  0.00    +0.000 A 
ATOM     13  C   UNL     1       0.526  11.991  19.366  0.00  0.00    +0.000 A 
ATOM     14  C   UNL     1      -0.080  11.844  20.616  0.00  0.00    +0.000 A 
ATOM     15  C   UNL     1      -0.581  12.962  21.292  0.00  0.00    +0.000 A 
ATOM     16  C   UNL     1      -1.141  12.804  22.559  0.00  0.00    +0.000 A 
ATOM     17  C   UNL     1      -1.239  11.543  23.122  0.00  0.00    +0.000 A 
ATOM     18  C   UNL     1      -0.756  10.430  22.433  0.00  0.00    +0.000 A 
ATOM     19  C   UNL     1      -0.145  10.551  21.194  0.00  0.00    +0.000 A 
ATOM     20  N   UNL     1       0.383   9.465  20.604  0.00  0.00    +0.000 NA
ENDBRANCH   8  11
ENDBRANCH   4   7
BRANCH   6  21
ATOM     21  S   UNL     1       5.194   5.376  16.289  0.00  0.00    +0.000 S 
ATOM     22  O   UNL     1       4.832   4.327  15.351  0.00  0.00    +0.000 OA
ATOM     23  O   UNL     1       4.941   6.756  15.923  0.00  0.00    +0.000 OA
BRANCH  21  24
ATOM     24  N   UNL     1       6.877   5.215  16.508  0.00  0.00    +0.000 NA
ATOM     25  C   UNL     1       7.413   4.590  17.755  0.00  0.00    +0.000 C 
ATOM     26  C   UNL     1       7.247   5.492  18.981  0.00  0.00    +0.000 C 
ATOM     27  O   UNL     1       7.882   6.764  18.793  0.00  0.00    +0.000 OA
ATOM     28  C   UNL     1       7.396   7.433  17.620  0.00  0.00    +0.000 C 
ATOM     29  C   UNL     1       7.577   6.563  16.362  0.00  0.00    +0.000 C 
ENDBRANCH  21  24
ENDBRANCH   6  21
BRANCH   1  31
ATOM     30  C   UNL     1       3.491   1.555  18.389  0.00  0.00    +0.000 C 
ATOM     31  O   UNL     1       4.147   2.689  17.806  0.00  0.00    +0.000 OA
ENDBRANCH   1  31
TORSDOF 5
ENDMDL
MODEL 7
REMARK VINA RESULT:      -8.5      2.101      4.141
REMARK  Name = 
REMARK  6 active torsions:
REMARK  status: ('A' for Active; 'I' for Inactive)
REMARK    1  A    between atoms: C_1  and  O_2
REMARK    2  A    between atoms: O_2  and  C_3
REMARK    3  A    between atoms: C_6  and  N_7
REMARK    4  A    between atoms: C_8  and  C_10
REMARK    5  A    between atoms: C_21  and  S_22
REMARK    6  A    between atoms: S_22  and  N_25
REMARK                            x       y       z     vdW  Elec       q    Type
REMARK                         _______ _______ _______ _____ _____    ______ ____
ROOT
ATOM      1  C   UNL     1       4.468   4.952  17.212  0.00  0.00    +0.000 A 
ATOM      2  C   UNL     1       4.929   6.278  17.232  0.00  0.00    +0.000 A 
ATOM      3  C   UNL     1       4.177   7.311  17.781  0.00  0.00    +0.000 A 
ATOM      4  C   UNL     1       2.933   7.062  18.336  0.00  0.00    +0.000 A 
ATOM      5  C   UNL     1       2.405   5.787  18.208  0.00  0.00    +0.000 A 
ATOM      6  C   UNL     1       3.162   4.718  17.646  0.00  0.00    +0.000 A 
ENDROOT
BRANCH   4   7
ATOM      7  N   UNL     1       2.206   8.061  19.001  0.00  0.00    +0.000 N 
ATOM      8  C   UNL     1       1.686   9.173  18.359  0.00  0.00    +0.000 C 
ATOM      9  O   UNL     1       1.907   9.508  17.198  0.00  0.00    +0.000 OA
ATOM     10  H   UNL     1       2.144   8.060  20.017  0.00  0.00    +0.000 HD
BRANCH   8  11
ATOM     11  C   UNL     1       0.799  10.030  19.174  0.00  0.00    +0.000 A 
ATOM     12  C   UNL     1       0.459  11.267  18.649  0.00  0.00    +0.000 A 
ATOM     13  C   UNL     1      -0.296  12.119  19.432  0.00  0.00    +0.000 A 
ATOM     14  C   UNL     1      -0.645  11.721  20.725  0.00  0.00    +0.000 A 
ATOM     15  C   UNL     1      -1.307  12.608  21.581  0.00  0.00    +0.000 A 
ATOM     16  C   UNL     1      -1.606  12.211  22.883  0.00  0.00    +0.000 A 
ATOM     17  C   UNL     1      -1.289  10.933  23.309  0.00  0.00    +0.000 A 
ATOM     18  C   UNL     1      -0.647  10.046  22.443  0.00  0.00    +0.000 A 
ATOM     19  C   UNL     1      -0.286  10.419  21.158  0.00  0.00    +0.000 A 
ATOM     20  N   UNL     1       0.407   9.564  20.387  0.00  0.00    +0.000 NA
ENDBRANCH   8  11
ENDBRANCH   4   7
BRANCH   6  21
ATOM     21  S   UNL     1       2.202   3.229  17.596  0.00  0.00    +0.000 S 
ATOM     22  O   UNL     1       0.826   3.673  17.738  0.00  0.00    +0.000 OA
ATOM     23  O   UNL     1       2.603   2.589  16.358  0.00  0.00    +0.000 OA
BRANCH  21  24
ATOM     24  N   UNL     1       2.435   2.094  18.847  0.00  0.00    +0.000 NA
ATOM     25  C   UNL     1       1.391   1.920  19.902  0.00  0.00    +0.000 C 
ATOM     26  C   UNL     1       1.327   3.107  20.865  0.00  0.00    +0.000 C 
ATOM     27  O   UNL     1       2.591   3.342  21.502  0.00  0.00    +0.000 OA
ATOM     28  C   UNL     1       3.640   3.542  20.543  0.00  0.00    +0.000 C 
ATOM     29  C   UNL     1       3.752   2.349  19.576  0.00  0.00    +0.000 C 
ENDBRANCH  21  24
ENDBRANCH   6  21
BRANCH   1  31
ATOM     30  C   UNL     1       5.785   4.070  15.449  0.00  0.00    +0.000 C 
ATOM     31  O   UNL     1       5.277   3.938  16.784  0.00  0.00    +0.000 OA
ENDBRANCH   1  31
TORSDOF 5
ENDMDL
MODEL 8
REMARK VINA RESULT:      -8.5      1.255      1.594
REMARK  Name = 
REMARK  6 active torsions:
REMARK  status: ('A' for Active; 'I' for Inactive)
REMARK    1  A    between atoms: C_1  and  O_2
REMARK    2  A    between atoms: O_2  and  C_3
REMARK    3  A    between atoms: C_6  and  N_7
REMARK    4  A    between atoms: C_8  and  C_10
REMARK    5  A    between atoms: C_21  and  S_22
REMARK    6  A    between atoms: S_22  and  N_25
REMARK                            x       y       z     vdW  Elec       q    Type
REMARK                         _______ _______ _______ _____ _____    ______ ____
ROOT
ATOM      1  C   UNL     1       2.750   3.638  19.689  0.00  0.00    +0.000 A 
ATOM      2  C   UNL     1       1.707   3.993  20.560  0.00  0.00    +0.000 A 
ATOM      3  C   UNL     1       1.431   5.319  20.873  0.00  0.00    +0.000 A 
ATOM      4  C   UNL     1       2.182   6.347  20.328  0.00  0.00    +0.000 A 
ATOM      5  C   UNL     1       3.295   6.011  19.572  0.00  0.00    +0.000 A 
ATOM      6  C   UNL     1       3.593   4.657  19.243  0.00  0.00    +0.000 A 
ENDROOT
BRANCH   4   7
ATOM      7  N   UNL     1       1.851   7.695  20.532  0.00  0.00    +0.000 N 
ATOM      8  C   UNL     1       1.624   8.584  19.495  0.00  0.00    +0.000 C 
ATOM      9  O   UNL     1       1.821   8.370  18.301  0.00  0.00    +0.000 OA
ATOM     10  H   UNL     1       1.890   8.096  21.467  0.00  0.00    +0.000 HD
BRANCH   8  11
ATOM     11  C   UNL     1       1.113   9.915  19.888  0.00  0.00    +0.000 A 
ATOM     12  C   UNL     1       0.574  10.034  21.159  0.00  0.00    +0.000 A 
ATOM     13  C   UNL     1       0.009  11.245  21.513  0.00  0.00    +0.000 A 
ATOM     14  C   UNL     1      -0.034  12.275  20.569  0.00  0.00    +0.000 A 
ATOM     15  C   UNL     1      -0.703  13.469  20.859  0.00  0.00    +0.000 A 
ATOM     16  C   UNL     1      -0.777  14.468  19.890  0.00  0.00    +0.000 A 
ATOM     17  C   UNL     1      -0.154  14.294  18.666  0.00  0.00    +0.000 A 
ATOM     18  C   UNL     1       0.528  13.108  18.391  0.00  0.00    +0.000 A 
ATOM     19  C   UNL     1       0.581  12.070  19.308  0.00  0.00    +0.000 A 
ATOM     20  N   UNL     1       1.175  10.913  18.970  0.00  0.00    +0.000 NA
ENDBRANCH   8  11
ENDBRANCH   4   7
BRANCH   6  21
ATOM     21  S   UNL     1       5.088   4.556  18.297  0.00  0.00    +0.000 S 
ATOM     22  O   UNL     1       6.104   4.151  19.255  0.00  0.00    +0.000 OA
ATOM     23  O   UNL     1       4.760   3.657  17.208  0.00  0.00    +0.000 OA
BRANCH  21  24
ATOM     24  N   UNL     1       5.683   5.994  17.600  0.00  0.00    +0.000 NA
ATOM     25  C   UNL     1       5.079   6.519  16.338  0.00  0.00    +0.000 C 
ATOM     26  C   UNL     1       5.441   5.669  15.118  0.00  0.00    +0.000 C 
ATOM     27  O   UNL     1       6.861   5.570  14.943  0.00  0.00    +0.000 OA
ATOM     28  C   UNL     1       7.505   5.048  16.114  0.00  0.00    +0.000 C 
ATOM     29  C   UNL     1       7.187   5.900  17.357  0.00  0.00    +0.000 C 
ENDBRANCH  21  24
ENDBRANCH   6  21
BRANCH   1  31
ATOM     30  C   UNL     1       2.158   1.929  18.154  0.00  0.00    +0.000 C 
ATOM     31  O   UNL     1       2.920   2.340  19.298  0.00  0.00    +0.000 OA
ENDBRANCH   1  31
TORSDOF 5
ENDMDL
MODEL 9
REMARK VINA RESULT:      -8.5      1.901      3.718
REMARK  Name = 
REMARK  6 active torsions:
REMARK  status: ('A' for Active; 'I' for Inactive)
REMARK    1  A    between atoms: C_1  and  O_2
REMARK    2  A    between atoms: O_2  and  C_3
REMARK    3  A    between atoms: C_6  and  N_7
REMARK    4  A    between atoms: C_8  and  C_10
REMARK    5  A    between atoms: C_21  and  S_22
REMARK    6  A    between atoms: S_22  and  N_25
REMARK                            x       y       z     vdW  Elec       q    Type
REMARK                         _______ _______ _______ _____ _____    ______ ____
ROOT
ATOM      1  C   UNL     1       4.270   4.917  17.241  0.00  0.00    +0.000 A 
ATOM      2  C   UNL     1       4.755   6.226  17.392  0.00  0.00    +0.000 A 
ATOM      3  C   UNL     1       4.087   7.173  18.161  0.00  0.00    +0.000 A 
ATOM      4  C   UNL     1       2.909   6.852  18.813  0.00  0.00    +0.000 A 
ATOM      5  C   UNL     1       2.347   5.609  18.570  0.00  0.00    +0.000 A 
ATOM      6  C   UNL     1       3.017   4.628  17.784  0.00  0.00    +0.000 A 
ENDROOT
BRANCH   4   7
ATOM      7  N   UNL     1       2.279   7.751  19.688  0.00  0.00    +0.000 N 
ATOM      8  C   UNL     1       1.454   8.776  19.256  0.00  0.00    +0.000 C 
ATOM      9  O   UNL     1       1.284   9.126  18.090  0.00  0.00    +0.000 OA
ATOM     10  H   UNL     1       2.513   7.751  20.678  0.00  0.00    +0.000 HD
BRANCH   8  11
ATOM     11  C   UNL     1       0.733   9.513  20.316  0.00  0.00    +0.000 A 
ATOM     12  C   UNL     1       0.880   9.055  21.615  0.00  0.00    +0.000 A 
ATOM     13  C   UNL     1       0.144   9.673  22.608  0.00  0.00    +0.000 A 
ATOM     14  C   UNL     1      -0.741  10.696  22.258  0.00  0.00    +0.000 A 
ATOM     15  C   UNL     1      -1.583  11.260  23.223  0.00  0.00    +0.000 A 
ATOM     16  C   UNL     1      -2.493  12.246  22.848  0.00  0.00    +0.000 A 
ATOM     17  C   UNL     1      -2.531  12.694  21.539  0.00  0.00    +0.000 A 
ATOM     18  C   UNL     1      -1.675  12.141  20.586  0.00  0.00    +0.000 A 
ATOM     19  C   UNL     1      -0.791  11.123  20.907  0.00  0.00    +0.000 A 
ATOM     20  N   UNL     1      -0.045  10.560  19.941  0.00  0.00    +0.000 NA
ENDBRANCH   8  11
ENDBRANCH   4   7
BRANCH   6  21
ATOM     21  S   UNL     1       2.031   3.162  17.636  0.00  0.00    +0.000 S 
ATOM     22  O   UNL     1       0.662   3.620  17.806  0.00  0.00    +0.000 OA
ATOM     23  O   UNL     1       2.422   2.597  16.360  0.00  0.00    +0.000 OA
BRANCH  21  24
ATOM     24  N   UNL     1       2.241   1.945  18.811  0.00  0.00    +0.000 NA
ATOM     25  C   UNL     1       1.683   2.128  20.185  0.00  0.00    +0.000 C 
ATOM     26  C   UNL     1       2.455   3.172  20.996  0.00  0.00    +0.000 C 
ATOM     27  O   UNL     1       3.846   2.839  21.103  0.00  0.00    +0.000 OA
ATOM     28  C   UNL     1       4.453   2.670  19.814  0.00  0.00    +0.000 C 
ATOM     29  C   UNL     1       3.718   1.602  18.982  0.00  0.00    +0.000 C 
ENDBRANCH  21  24
ENDBRANCH   6  21
BRANCH   1  31
ATOM     30  C   UNL     1       5.411   4.309  15.253  0.00  0.00    +0.000 C 
ATOM     31  O   UNL     1       5.008   3.971  16.588  0.00  0.00    +0.000 OA
ENDBRANCH   1  31
TORSDOF 5
ENDMDL
