MODEL 1
REMARK VINA RESULT:      -7.8      0.000      0.000
REMARK  Name = 
REMARK  7 active torsions:
REMARK  status: ('A' for Active; 'I' for Inactive)
REMARK    1  A    between atoms: C_1  and  N_2
REMARK    2  A    between atoms: C_6  and  C_7
REMARK    3  A    between atoms: C_7  and  C_8
REMARK    4  A    between atoms: C_10  and  C_11
REMARK    5  A    between atoms: C_11  and  O_12
REMARK    6  A    between atoms: C_14  and  N_15
REMARK    7  A    between atoms: C_22  and  C_23
REMARK                            x       y       z     vdW  Elec       q    Type
REMARK                         _______ _______ _______ _____ _____    ______ ____
ROOT
ATOM      1  C   UNL     1      -5.364  11.721  18.048  0.00  0.00    +0.000 A 
ATOM      2  C   UNL     1      -4.917  11.334  16.775  0.00  0.00    +0.000 A 
ATOM      3  C   UNL     1      -3.601  10.900  16.569  0.00  0.00    +0.000 A 
ATOM      4  C   UNL     1      -2.735  10.859  17.656  0.00  0.00    +0.000 A 
ATOM      5  C   UNL     1      -3.067  11.571  18.815  0.00  0.00    +0.000 A 
ATOM      6  C   UNL     1      -4.415  11.852  19.074  0.00  0.00    +0.000 A 
ENDROOT
BRANCH   5   7
ATOM      7  N   UNL     1      -2.046  12.458  19.368  0.00  0.00    +0.000 N 
ATOM      8  C   UNL     1      -0.706  12.097  18.846  0.00  0.00    +0.000 C 
ATOM      9  C   UNL     1      -0.201  11.131  19.884  0.00  0.00    +0.000 A 
ATOM     10  C   UNL     1      -0.856  11.424  21.082  0.00  0.00    +0.000 A 
ATOM     11  C   UNL     1      -0.769  10.615  22.204  0.00  0.00    +0.000 A 
ATOM     12  C   UNL     1       0.021   9.470  22.107  0.00  0.00    +0.000 A 
ATOM     13  C   UNL     1       0.697   9.166  20.910  0.00  0.00    +0.000 A 
ATOM     14  C   UNL     1       0.602   9.998  19.773  0.00  0.00    +0.000 A 
ATOM     15  C   UNL     1      -1.923  12.414  20.785  0.00  0.00    +0.000 C 
ATOM     16  O   UNL     1      -2.658  12.879  21.631  0.00  0.00    +0.000 OA
BRANCH  14  17
ATOM     17  C   UNL     1       1.283   9.577  18.498  0.00  0.00    +0.000 C 
ATOM     18  F   UNL     1       2.096   8.494  18.626  0.00  0.00    +0.000 F 
ATOM     19  F   UNL     1       0.393   9.256  17.519  0.00  0.00    +0.000 F 
ATOM     20  F   UNL     1       2.069  10.562  17.976  0.00  0.00    +0.000 F 
ENDBRANCH  14  17
ENDBRANCH   5   7
BRANCH   1  21
ATOM     21  C   UNL     1      -6.836  11.998  18.275  0.00  0.00    +0.000 C 
BRANCH  21  27
ATOM     22  C   UNL     1      -7.351   9.374  19.945  0.00  0.00    +0.000 C 
ATOM     23  N   UNL     1      -7.497  10.732  20.395  0.00  0.00    +0.000 N 
ATOM     24  C   UNL     1      -7.842  11.110  21.657  0.00  0.00    +0.000 A 
ATOM     25  N   UNL     1      -7.877  12.418  21.730  0.00  0.00    +0.000 NA
ATOM     26  N   UNL     1      -7.539  12.911  20.495  0.00  0.00    +0.000 NA
ATOM     27  C   UNL     1      -7.307  11.892  19.689  0.00  0.00    +0.000 A 
ENDBRANCH  21  27
ENDBRANCH   1  21
BRANCH   3  28
ATOM     28  C   UNL     1      -3.030  10.710  15.190  0.00  0.00    +0.000 C 
BRANCH  28  29
ATOM     29  O   UNL     1      -3.933  10.006  14.362  0.00  0.00    +0.000 OA
ATOM     30  H   UNL     1      -4.796  10.439  14.479  0.00  0.00    +0.000 HD
ENDBRANCH  28  29
ENDBRANCH   3  28
TORSDOF 6
ENDMDL
MODEL 2
REMARK VINA RESULT:      -7.6      0.776      1.413
REMARK  Name = 
REMARK  7 active torsions:
REMARK  status: ('A' for Active; 'I' for Inactive)
REMARK    1  A    between atoms: C_1  and  N_2
REMARK    2  A    between atoms: C_6  and  C_7
REMARK    3  A    between atoms: C_7  and  C_8
REMARK    4  A    between atoms: C_10  and  C_11
REMARK    5  A    between atoms: C_11  and  O_12
REMARK    6  A    between atoms: C_14  and  N_15
REMARK    7  A    between atoms: C_22  and  C_23
REMARK                            x       y       z     vdW  Elec       q    Type
REMARK                         _______ _______ _______ _____ _____    ______ ____
ROOT
ATOM      1  C   UNL     1      -5.271  12.035  18.504  0.00  0.00    +0.000 A 
ATOM      2  C   UNL     1      -4.950  11.681  17.184  0.00  0.00    +0.000 A 
ATOM      3  C   UNL     1      -3.671  11.221  16.847  0.00  0.00    +0.000 A 
ATOM      4  C   UNL     1      -2.713  11.121  17.850  0.00  0.00    +0.000 A 
ATOM      5  C   UNL     1      -2.920  11.801  19.055  0.00  0.00    +0.000 A 
ATOM      6  C   UNL     1      -4.231  12.107  19.443  0.00  0.00    +0.000 A 
ENDROOT
BRANCH   5   7
ATOM      7  N   UNL     1      -1.829  12.642  19.542  0.00  0.00    +0.000 N 
ATOM      8  C   UNL     1      -0.535  12.199  18.970  0.00  0.00    +0.000 C 
ATOM      9  C   UNL     1      -0.036  11.228  20.006  0.00  0.00    +0.000 A 
ATOM     10  C   UNL     1      -0.619  11.580  21.226  0.00  0.00    +0.000 A 
ATOM     11  C   UNL     1      -0.524  10.791  22.360  0.00  0.00    +0.000 A 
ATOM     12  C   UNL     1       0.198   9.603  22.255  0.00  0.00    +0.000 A 
ATOM     13  C   UNL     1       0.801   9.238  21.037  0.00  0.00    +0.000 A 
ATOM     14  C   UNL     1       0.700  10.050  19.886  0.00  0.00    +0.000 A 
ATOM     15  C   UNL     1      -1.645  12.621  20.954  0.00  0.00    +0.000 C 
ATOM     16  O   UNL     1      -2.314  13.142  21.820  0.00  0.00    +0.000 OA
BRANCH  14  17
ATOM     17  C   UNL     1       1.298   9.567  18.592  0.00  0.00    +0.000 C 
ATOM     18  F   UNL     1       2.180  10.433  18.023  0.00  0.00    +0.000 F 
ATOM     19  F   UNL     1       1.977   8.396  18.742  0.00  0.00    +0.000 F 
ATOM     20  F   UNL     1       0.354   9.330  17.636  0.00  0.00    +0.000 F 
ENDBRANCH  14  17
ENDBRANCH   5   7
BRANCH   1  21
ATOM     21  C   UNL     1      -6.708  12.342  18.871  0.00  0.00    +0.000 C 
BRANCH  21  27
ATOM     22  C   UNL     1      -7.426  14.202  21.312  0.00  0.00    +0.000 C 
ATOM     23  N   UNL     1      -7.462  12.765  21.276  0.00  0.00    +0.000 N 
ATOM     24  C   UNL     1      -7.867  11.962  22.298  0.00  0.00    +0.000 A 
ATOM     25  N   UNL     1      -7.784  10.706  21.931  0.00  0.00    +0.000 NA
ATOM     26  N   UNL     1      -7.324  10.682  20.638  0.00  0.00    +0.000 NA
ATOM     27  C   UNL     1      -7.132  11.926  20.242  0.00  0.00    +0.000 A 
ENDBRANCH  21  27
ENDBRANCH   1  21
BRANCH   3  28
ATOM     28  C   UNL     1      -3.230  11.064  15.417  0.00  0.00    +0.000 C 
BRANCH  28  29
ATOM     29  O   UNL     1      -2.804   9.740  15.162  0.00  0.00    +0.000 OA
ATOM     30  H   UNL     1      -3.571   9.172  15.347  0.00  0.00    +0.000 HD
ENDBRANCH  28  29
ENDBRANCH   3  28
TORSDOF 6
ENDMDL
MODEL 3
REMARK VINA RESULT:      -7.6      1.301      1.958
REMARK  Name = 
REMARK  7 active torsions:
REMARK  status: ('A' for Active; 'I' for Inactive)
REMARK    1  A    between atoms: C_1  and  N_2
REMARK    2  A    between atoms: C_6  and  C_7
REMARK    3  A    between atoms: C_7  and  C_8
REMARK    4  A    between atoms: C_10  and  C_11
REMARK    5  A    between atoms: C_11  and  O_12
REMARK    6  A    between atoms: C_14  and  N_15
REMARK    7  A    between atoms: C_22  and  C_23
REMARK                            x       y       z     vdW  Elec       q    Type
REMARK                         _______ _______ _______ _____ _____    ______ ____
ROOT
ATOM      1  C   UNL     1      -4.894  11.621  17.862  0.00  0.00    +0.000 A 
ATOM      2  C   UNL     1      -4.561  11.138  16.586  0.00  0.00    +0.000 A 
ATOM      3  C   UNL     1      -3.290  10.615  16.318  0.00  0.00    +0.000 A 
ATOM      4  C   UNL     1      -2.351  10.582  17.344  0.00  0.00    +0.000 A 
ATOM      5  C   UNL     1      -2.560  11.376  18.478  0.00  0.00    +0.000 A 
ATOM      6  C   UNL     1      -3.867  11.752  18.811  0.00  0.00    +0.000 A 
ENDROOT
BRANCH   5   7
ATOM      7  N   UNL     1      -1.453  12.230  18.906  0.00  0.00    +0.000 N 
ATOM      8  C   UNL     1      -0.280  11.408  19.289  0.00  0.00    +0.000 C 
ATOM      9  C   UNL     1      -0.489  11.210  20.766  0.00  0.00    +0.000 A 
ATOM     10  C   UNL     1      -1.263  12.278  21.227  0.00  0.00    +0.000 A 
ATOM     11  C   UNL     1      -1.798  12.322  22.504  0.00  0.00    +0.000 A 
ATOM     12  C   UNL     1      -1.532  11.245  23.348  0.00  0.00    +0.000 A 
ATOM     13  C   UNL     1      -0.745  10.166  22.903  0.00  0.00    +0.000 A 
ATOM     14  C   UNL     1      -0.202  10.131  21.600  0.00  0.00    +0.000 A 
ATOM     15  C   UNL     1      -1.733  13.041  20.042  0.00  0.00    +0.000 C 
ATOM     16  O   UNL     1      -2.416  14.041  20.118  0.00  0.00    +0.000 OA
BRANCH  14  17
ATOM     17  C   UNL     1       0.564   8.912  21.157  0.00  0.00    +0.000 C 
ATOM     18  F   UNL     1       1.739   8.719  21.812  0.00  0.00    +0.000 F 
ATOM     19  F   UNL     1      -0.148   7.764  21.329  0.00  0.00    +0.000 F 
ATOM     20  F   UNL     1       0.888   8.953  19.832  0.00  0.00    +0.000 F 
ENDBRANCH  14  17
ENDBRANCH   5   7
BRANCH   1  21
ATOM     21  C   UNL     1      -6.327  11.998  18.171  0.00  0.00    +0.000 C 
BRANCH  21  27
ATOM     22  C   UNL     1      -7.574  13.542  20.621  0.00  0.00    +0.000 C 
ATOM     23  N   UNL     1      -7.455  12.117  20.462  0.00  0.00    +0.000 N 
ATOM     24  C   UNL     1      -7.916  11.187  21.342  0.00  0.00    +0.000 A 
ATOM     25  N   UNL     1      -7.653   9.985  20.890  0.00  0.00    +0.000 NA
ATOM     26  N   UNL     1      -7.014  10.127  19.684  0.00  0.00    +0.000 NA
ATOM     27  C   UNL     1      -6.897  11.416  19.424  0.00  0.00    +0.000 A 
ENDBRANCH  21  27
ENDBRANCH   1  21
BRANCH   3  28
ATOM     28  C   UNL     1      -2.829  10.314  14.917  0.00  0.00    +0.000 C 
BRANCH  28  29
ATOM     29  O   UNL     1      -3.930  10.061  14.068  0.00  0.00    +0.000 OA
ATOM     30  H   UNL     1      -3.708   9.253  13.576  0.00  0.00    +0.000 HD
ENDBRANCH  28  29
ENDBRANCH   3  28
TORSDOF 6
ENDMDL
MODEL 4
REMARK VINA RESULT:      -7.6      2.106      2.872
REMARK  Name = 
REMARK  7 active torsions:
REMARK  status: ('A' for Active; 'I' for Inactive)
REMARK    1  A    between atoms: C_1  and  N_2
REMARK    2  A    between atoms: C_6  and  C_7
REMARK    3  A    between atoms: C_7  and  C_8
REMARK    4  A    between atoms: C_10  and  C_11
REMARK    5  A    between atoms: C_11  and  O_12
REMARK    6  A    between atoms: C_14  and  N_15
REMARK    7  A    between atoms: C_22  and  C_23
REMARK                            x       y       z     vdW  Elec       q    Type
REMARK                         _______ _______ _______ _____ _____    ______ ____
ROOT
ATOM      1  C   UNL     1      -4.215  11.694  17.939  0.00  0.00    +0.000 A 
ATOM      2  C   UNL     1      -4.231  11.154  16.642  0.00  0.00    +0.000 A 
ATOM      3  C   UNL     1      -3.207  10.310  16.196  0.00  0.00    +0.000 A 
ATOM      4  C   UNL     1      -2.162  10.013  17.063  0.00  0.00    +0.000 A 
ATOM      5  C   UNL     1      -1.966  10.819  18.190  0.00  0.00    +0.000 A 
ATOM      6  C   UNL     1      -3.055  11.531  18.711  0.00  0.00    +0.000 A 
ENDROOT
BRANCH   5   7
ATOM      7  N   UNL     1      -0.617  11.337  18.414  0.00  0.00    +0.000 N 
ATOM      8  C   UNL     1       0.119  10.472  19.366  0.00  0.00    +0.000 C 
ATOM      9  C   UNL     1      -0.177  11.121  20.692  0.00  0.00    +0.000 A 
ATOM     10  C   UNL     1      -0.463  12.465  20.446  0.00  0.00    +0.000 A 
ATOM     11  C   UNL     1      -0.958  13.319  21.418  0.00  0.00    +0.000 A 
ATOM     12  C   UNL     1      -1.161  12.789  22.692  0.00  0.00    +0.000 A 
ATOM     13  C   UNL     1      -0.867  11.439  22.960  0.00  0.00    +0.000 A 
ATOM     14  C   UNL     1      -0.362  10.577  21.962  0.00  0.00    +0.000 A 
ATOM     15  C   UNL     1      -0.567  12.644  18.974  0.00  0.00    +0.000 C 
ATOM     16  O   UNL     1      -0.792  13.712  18.444  0.00  0.00    +0.000 OA
BRANCH  14  17
ATOM     17  C   UNL     1      -0.143   9.124  22.289  0.00  0.00    +0.000 C 
ATOM     18  F   UNL     1       1.090   8.653  21.958  0.00  0.00    +0.000 F 
ATOM     19  F   UNL     1      -0.291   8.866  23.617  0.00  0.00    +0.000 F 
ATOM     20  F   UNL     1      -1.027   8.306  21.650  0.00  0.00    +0.000 F 
ENDBRANCH  14  17
ENDBRANCH   5   7
BRANCH   1  21
ATOM     21  C   UNL     1      -5.427  12.441  18.456  0.00  0.00    +0.000 C 
BRANCH  21  27
ATOM     22  C   UNL     1      -4.375  14.481  20.617  0.00  0.00    +0.000 C 
ATOM     23  N   UNL     1      -5.185  13.314  20.845  0.00  0.00    +0.000 N 
ATOM     24  C   UNL     1      -5.678  12.923  22.053  0.00  0.00    +0.000 A 
ATOM     25  N   UNL     1      -6.380  11.826  21.907  0.00  0.00    +0.000 NA
ATOM     26  N   UNL     1      -6.357  11.494  20.576  0.00  0.00    +0.000 NA
ATOM     27  C   UNL     1      -5.637  12.394  19.934  0.00  0.00    +0.000 A 
ENDBRANCH  21  27
ENDBRANCH   1  21
BRANCH   3  28
ATOM     28  C   UNL     1      -3.073   9.914  14.750  0.00  0.00    +0.000 C 
BRANCH  28  29
ATOM     29  O   UNL     1      -4.331   9.924  14.105  0.00  0.00    +0.000 OA
ATOM     30  H   UNL     1      -4.470   9.020  13.777  0.00  0.00    +0.000 HD
ENDBRANCH  28  29
ENDBRANCH   3  28
TORSDOF 6
ENDMDL
MODEL 5
REMARK VINA RESULT:      -7.5      1.729      2.374
REMARK  Name = 
REMARK  7 active torsions:
REMARK  status: ('A' for Active; 'I' for Inactive)
REMARK    1  A    between atoms: C_1  and  N_2
REMARK    2  A    between atoms: C_6  and  C_7
REMARK    3  A    between atoms: C_7  and  C_8
REMARK    4  A    between atoms: C_10  and  C_11
REMARK    5  A    between atoms: C_11  and  O_12
REMARK    6  A    between atoms: C_14  and  N_15
REMARK    7  A    between atoms: C_22  and  C_23
REMARK                            x       y       z     vdW  Elec       q    Type
REMARK                         _______ _______ _______ _____ _____    ______ ____
ROOT
ATOM      1  C   UNL     1      -4.451  12.691  20.017  0.00  0.00    +0.000 A 
ATOM      2  C   UNL     1      -4.412  12.223  18.694  0.00  0.00    +0.000 A 
ATOM      3  C   UNL     1      -3.354  11.427  18.237  0.00  0.00    +0.000 A 
ATOM      4  C   UNL     1      -2.330  11.106  19.121  0.00  0.00    +0.000 A 
ATOM      5  C   UNL     1      -2.190  11.854  20.296  0.00  0.00    +0.000 A 
ATOM      6  C   UNL     1      -3.312  12.512  20.818  0.00  0.00    +0.000 A 
ENDROOT
BRANCH   5   7
ATOM      7  N   UNL     1      -0.862  12.389  20.592  0.00  0.00    +0.000 N 
ATOM      8  C   UNL     1       0.111  11.962  19.558  0.00  0.00    +0.000 C 
ATOM      9  C   UNL     1       0.669  10.691  20.141  0.00  0.00    +0.000 A 
ATOM     10  C   UNL     1       0.521  10.765  21.528  0.00  0.00    +0.000 A 
ATOM     11  C   UNL     1       0.760   9.690  22.368  0.00  0.00    +0.000 A 
ATOM     12  C   UNL     1       1.174   8.496  21.779  0.00  0.00    +0.000 A 
ATOM     13  C   UNL     1       1.338   8.407  20.384  0.00  0.00    +0.000 A 
ATOM     14  C   UNL     1       1.093   9.509  19.536  0.00  0.00    +0.000 A 
ATOM     15  C   UNL     1      -0.310  11.959  21.831  0.00  0.00    +0.000 C 
ATOM     16  O   UNL     1      -0.602  12.303  22.958  0.00  0.00    +0.000 OA
BRANCH  14  17
ATOM     17  C   UNL     1       1.209   9.329  18.045  0.00  0.00    +0.000 C 
ATOM     18  F   UNL     1       2.085  10.178  17.443  0.00  0.00    +0.000 F 
ATOM     19  F   UNL     1       1.621   8.075  17.708  0.00  0.00    +0.000 F 
ATOM     20  F   UNL     1       0.021   9.516  17.403  0.00  0.00    +0.000 F 
ENDBRANCH  14  17
ENDBRANCH   5   7
BRANCH   1  21
ATOM     21  C   UNL     1      -5.696  13.381  20.533  0.00  0.00    +0.000 C 
BRANCH  21  27
ATOM     22  C   UNL     1      -5.380  14.554  23.443  0.00  0.00    +0.000 C 
ATOM     23  N   UNL     1      -6.125  13.387  23.053  0.00  0.00    +0.000 N 
ATOM     24  C   UNL     1      -6.869  12.613  23.890  0.00  0.00    +0.000 A 
ATOM     25  N   UNL     1      -7.423  11.637  23.212  0.00  0.00    +0.000 NA
ATOM     26  N   UNL     1      -7.044  11.777  21.901  0.00  0.00    +0.000 NA
ATOM     27  C   UNL     1      -6.262  12.836  21.804  0.00  0.00    +0.000 A 
ENDBRANCH  21  27
ENDBRANCH   1  21
BRANCH   3  28
ATOM     28  C   UNL     1      -3.164  11.114  16.777  0.00  0.00    +0.000 C 
BRANCH  28  29
ATOM     29  O   UNL     1      -2.081  11.846  16.240  0.00  0.00    +0.000 OA
ATOM     30  H   UNL     1      -1.280  11.476  16.647  0.00  0.00    +0.000 HD
ENDBRANCH  28  29
ENDBRANCH   3  28
TORSDOF 6
ENDMDL
MODEL 6
REMARK VINA RESULT:      -7.4      8.813     12.038
REMARK  Name = 
REMARK  7 active torsions:
REMARK  status: ('A' for Active; 'I' for Inactive)
REMARK    1  A    between atoms: C_1  and  N_2
REMARK    2  A    between atoms: C_6  and  C_7
REMARK    3  A    between atoms: C_7  and  C_8
REMARK    4  A    between atoms: C_10  and  C_11
REMARK    5  A    between atoms: C_11  and  O_12
REMARK    6  A    between atoms: C_14  and  N_15
REMARK    7  A    between atoms: C_22  and  C_23
REMARK                            x       y       z     vdW  Elec       q    Type
REMARK                         _______ _______ _______ _____ _____    ______ ____
ROOT
ATOM      1  C   UNL     1       5.985   4.632  16.569  0.00  0.00    +0.000 A 
ATOM      2  C   UNL     1       7.074   5.475  16.844  0.00  0.00    +0.000 A 
ATOM      3  C   UNL     1       7.192   6.127  18.078  0.00  0.00    +0.000 A 
ATOM      4  C   UNL     1       6.204   5.927  19.036  0.00  0.00    +0.000 A 
ATOM      5  C   UNL     1       4.972   5.395  18.637  0.00  0.00    +0.000 A 
ATOM      6  C   UNL     1       4.916   4.610  17.479  0.00  0.00    +0.000 A 
ENDROOT
BRANCH   5   7
ATOM      7  N   UNL     1       3.769   6.111  19.059  0.00  0.00    +0.000 N 
ATOM      8  C   UNL     1       3.226   5.523  20.306  0.00  0.00    +0.000 C 
ATOM      9  C   UNL     1       2.245   4.505  19.787  0.00  0.00    +0.000 A 
ATOM     10  C   UNL     1       1.838   4.925  18.518  0.00  0.00    +0.000 A 
ATOM     11  C   UNL     1       1.078   4.133  17.673  0.00  0.00    +0.000 A 
ATOM     12  C   UNL     1       0.709   2.871  18.136  0.00  0.00    +0.000 A 
ATOM     13  C   UNL     1       1.101   2.438  19.417  0.00  0.00    +0.000 A 
ATOM     14  C   UNL     1       1.875   3.252  20.272  0.00  0.00    +0.000 A 
ATOM     15  C   UNL     1       2.696   6.073  18.124  0.00  0.00    +0.000 C 
ATOM     16  O   UNL     1       2.575   6.669  17.075  0.00  0.00    +0.000 OA
BRANCH  14  17
ATOM     17  C   UNL     1       2.330   2.701  21.597  0.00  0.00    +0.000 C 
ATOM     18  F   UNL     1       3.553   2.107  21.568  0.00  0.00    +0.000 F 
ATOM     19  F   UNL     1       2.411   3.663  22.557  0.00  0.00    +0.000 F 
ATOM     20  F   UNL     1       1.479   1.756  22.090  0.00  0.00    +0.000 F 
ENDBRANCH  14  17
ENDBRANCH   5   7
BRANCH   1  21
ATOM     21  C   UNL     1       5.985   3.793  15.308  0.00  0.00    +0.000 C 
BRANCH  21  27
ATOM     22  C   UNL     1       5.703   3.063  12.254  0.00  0.00    +0.000 C 
ATOM     23  N   UNL     1       6.602   4.022  12.838  0.00  0.00    +0.000 N 
ATOM     24  C   UNL     1       7.459   4.820  12.145  0.00  0.00    +0.000 A 
ATOM     25  N   UNL     1       8.125   5.581  12.979  0.00  0.00    +0.000 NA
ATOM     26  N   UNL     1       7.690   5.285  14.246  0.00  0.00    +0.000 NA
ATOM     27  C   UNL     1       6.768   4.344  14.161  0.00  0.00    +0.000 A 
ENDBRANCH  21  27
ENDBRANCH   1  21
BRANCH   3  28
ATOM     28  C   UNL     1       8.208   7.212  18.313  0.00  0.00    +0.000 C 
BRANCH  28  29
ATOM     29  O   UNL     1       7.747   8.452  17.816  0.00  0.00    +0.000 OA
ATOM     30  H   UNL     1       7.579   8.314  16.868  0.00  0.00    +0.000 HD
ENDBRANCH  28  29
ENDBRANCH   3  28
TORSDOF 6
ENDMDL
MODEL 7
REMARK VINA RESULT:      -7.4      1.307      1.716
REMARK  Name = 
REMARK  7 active torsions:
REMARK  status: ('A' for Active; 'I' for Inactive)
REMARK    1  A    between atoms: C_1  and  N_2
REMARK    2  A    between atoms: C_6  and  C_7
REMARK    3  A    between atoms: C_7  and  C_8
REMARK    4  A    between atoms: C_10  and  C_11
REMARK    5  A    between atoms: C_11  and  O_12
REMARK    6  A    between atoms: C_14  and  N_15
REMARK    7  A    between atoms: C_22  and  C_23
REMARK                            x       y       z     vdW  Elec       q    Type
REMARK                         _______ _______ _______ _____ _____    ______ ____
ROOT
ATOM      1  C   UNL     1      -4.856  11.707  17.717  0.00  0.00    +0.000 A 
ATOM      2  C   UNL     1      -4.488  11.086  16.512  0.00  0.00    +0.000 A 
ATOM      3  C   UNL     1      -3.244  10.460  16.370  0.00  0.00    +0.000 A 
ATOM      4  C   UNL     1      -2.367  10.465  17.450  0.00  0.00    +0.000 A 
ATOM      5  C   UNL     1      -2.582  11.374  18.492  0.00  0.00    +0.000 A 
ATOM      6  C   UNL     1      -3.877  11.862  18.710  0.00  0.00    +0.000 A 
ENDROOT
BRANCH   5   7
ATOM      7  N   UNL     1      -1.444  12.192  18.908  0.00  0.00    +0.000 N 
ATOM      8  C   UNL     1      -0.311  11.332  19.325  0.00  0.00    +0.000 C 
ATOM      9  C   UNL     1      -0.541  11.185  20.805  0.00  0.00    +0.000 A 
ATOM     10  C   UNL     1      -1.272  12.297  21.229  0.00  0.00    +0.000 A 
ATOM     11  C   UNL     1      -1.817  12.400  22.498  0.00  0.00    +0.000 A 
ATOM     12  C   UNL     1      -1.604  11.336  23.375  0.00  0.00    +0.000 A 
ATOM     13  C   UNL     1      -0.860  10.213  22.968  0.00  0.00    +0.000 A 
ATOM     14  C   UNL     1      -0.307  10.118  21.672  0.00  0.00    +0.000 A 
ATOM     15  C   UNL     1      -1.699  13.046  20.018  0.00  0.00    +0.000 C 
ATOM     16  O   UNL     1      -2.340  14.075  20.059  0.00  0.00    +0.000 OA
BRANCH  14  17
ATOM     17  C   UNL     1       0.410   8.857  21.270  0.00  0.00    +0.000 C 
ATOM     18  F   UNL     1       1.521   8.584  22.006  0.00  0.00    +0.000 F 
ATOM     19  F   UNL     1      -0.383   7.755  21.379  0.00  0.00    +0.000 F 
ATOM     20  F   UNL     1       0.831   8.886  19.973  0.00  0.00    +0.000 F 
ENDBRANCH  14  17
ENDBRANCH   5   7
BRANCH   1  21
ATOM     21  C   UNL     1      -6.275  12.202  17.903  0.00  0.00    +0.000 C 
BRANCH  21  27
ATOM     22  C   UNL     1      -7.049   9.485  19.300  0.00  0.00    +0.000 C 
ATOM     23  N   UNL     1      -7.160  10.807  19.853  0.00  0.00    +0.000 N 
ATOM     24  C   UNL     1      -7.581  11.100  21.115  0.00  0.00    +0.000 A 
ATOM     25  N   UNL     1      -7.554  12.398  21.298  0.00  0.00    +0.000 NA
ATOM     26  N   UNL     1      -7.098  12.970  20.137  0.00  0.00    +0.000 NA
ATOM     27  C   UNL     1      -6.857  12.009  19.265  0.00  0.00    +0.000 A 
ENDBRANCH  21  27
ENDBRANCH   1  21
BRANCH   3  28
ATOM     28  C   UNL     1      -2.730  10.000  15.033  0.00  0.00    +0.000 C 
BRANCH  28  29
ATOM     29  O   UNL     1      -3.753  10.038  14.059  0.00  0.00    +0.000 OA
ATOM     30  H   UNL     1      -4.327   9.274  14.244  0.00  0.00    +0.000 HD
ENDBRANCH  28  29
ENDBRANCH   3  28
TORSDOF 6
ENDMDL
MODEL 8
REMARK VINA RESULT:      -7.2      1.329      2.106
REMARK  Name = 
REMARK  7 active torsions:
REMARK  status: ('A' for Active; 'I' for Inactive)
REMARK    1  A    between atoms: C_1  and  N_2
REMARK    2  A    between atoms: C_6  and  C_7
REMARK    3  A    between atoms: C_7  and  C_8
REMARK    4  A    between atoms: C_10  and  C_11
REMARK    5  A    between atoms: C_11  and  O_12
REMARK    6  A    between atoms: C_14  and  N_15
REMARK    7  A    between atoms: C_22  and  C_23
REMARK                            x       y       z     vdW  Elec       q    Type
REMARK                         _______ _______ _______ _____ _____    ______ ____
ROOT
ATOM      1  C   UNL     1      -5.073  11.847  18.052  0.00  0.00    +0.000 A 
ATOM      2  C   UNL     1      -4.668  11.369  16.795  0.00  0.00    +0.000 A 
ATOM      3  C   UNL     1      -3.387  10.837  16.600  0.00  0.00    +0.000 A 
ATOM      4  C   UNL     1      -2.512  10.792  17.680  0.00  0.00    +0.000 A 
ATOM      5  C   UNL     1      -2.782  11.581  18.804  0.00  0.00    +0.000 A 
ATOM      6  C   UNL     1      -4.104  11.965  19.061  0.00  0.00    +0.000 A 
ENDROOT
BRANCH   5   7
ATOM      7  N   UNL     1      -1.697  12.424  19.302  0.00  0.00    +0.000 N 
ATOM      8  C   UNL     1      -0.397  11.985  18.740  0.00  0.00    +0.000 C 
ATOM      9  C   UNL     1       0.096  11.013  19.778  0.00  0.00    +0.000 A 
ATOM     10  C   UNL     1      -0.499  11.360  20.993  0.00  0.00    +0.000 A 
ATOM     11  C   UNL     1      -0.412  10.567  22.126  0.00  0.00    +0.000 A 
ATOM     12  C   UNL     1       0.314   9.381  22.024  0.00  0.00    +0.000 A 
ATOM     13  C   UNL     1       0.929   9.022  20.810  0.00  0.00    +0.000 A 
ATOM     14  C   UNL     1       0.835   9.837  19.661  0.00  0.00    +0.000 A 
ATOM     15  C   UNL     1      -1.525  12.399  20.715  0.00  0.00    +0.000 C 
ATOM     16  O   UNL     1      -2.203  12.916  21.577  0.00  0.00    +0.000 OA
BRANCH  14  17
ATOM     17  C   UNL     1       1.446   9.359  18.370  0.00  0.00    +0.000 C 
ATOM     18  F   UNL     1       2.269  10.261  17.771  0.00  0.00    +0.000 F 
ATOM     19  F   UNL     1       2.193   8.233  18.538  0.00  0.00    +0.000 F 
ATOM     20  F   UNL     1       0.507   9.045  17.432  0.00  0.00    +0.000 F 
ENDBRANCH  14  17
ENDBRANCH   5   7
BRANCH   1  21
ATOM     21  C   UNL     1      -6.520  12.233  18.277  0.00  0.00    +0.000 C 
BRANCH  21  27
ATOM     22  C   UNL     1      -7.002  14.791  16.498  0.00  0.00    +0.000 C 
ATOM     23  N   UNL     1      -6.986  14.723  17.934  0.00  0.00    +0.000 N 
ATOM     24  C   UNL     1      -7.230  15.767  18.774  0.00  0.00    +0.000 A 
ATOM     25  N   UNL     1      -7.144  15.361  20.017  0.00  0.00    +0.000 NA
ATOM     26  N   UNL     1      -6.847  14.022  19.996  0.00  0.00    +0.000 NA
ATOM     27  C   UNL     1      -6.754  13.635  18.737  0.00  0.00    +0.000 A 
ENDBRANCH  21  27
ENDBRANCH   1  21
BRANCH   3  28
ATOM     28  C   UNL     1      -2.847  10.542  15.227  0.00  0.00    +0.000 C 
BRANCH  28  29
ATOM     29  O   UNL     1      -3.858  10.019  14.388  0.00  0.00    +0.000 OA
ATOM     30  H   UNL     1      -3.514  10.086  13.481  0.00  0.00    +0.000 HD
ENDBRANCH  28  29
ENDBRANCH   3  28
TORSDOF 6
ENDMDL
MODEL 9
REMARK VINA RESULT:      -7.1      5.122      7.680
REMARK  Name = 
REMARK  7 active torsions:
REMARK  status: ('A' for Active; 'I' for Inactive)
REMARK    1  A    between atoms: C_1  and  N_2
REMARK    2  A    between atoms: C_6  and  C_7
REMARK    3  A    between atoms: C_7  and  C_8
REMARK    4  A    between atoms: C_10  and  C_11
REMARK    5  A    between atoms: C_11  and  O_12
REMARK    6  A    between atoms: C_14  and  N_15
REMARK    7  A    between atoms: C_22  and  C_23
REMARK                            x       y       z     vdW  Elec       q    Type
REMARK                         _______ _______ _______ _____ _____    ______ ____
ROOT
ATOM      1  C   UNL     1       0.706   8.286  20.722  0.00  0.00    +0.000 A 
ATOM      2  C   UNL     1       1.257   8.996  19.644  0.00  0.00    +0.000 A 
ATOM      3  C   UNL     1       2.026   8.351  18.668  0.00  0.00    +0.000 A 
ATOM      4  C   UNL     1       2.240   6.981  18.785  0.00  0.00    +0.000 A 
ATOM      5  C   UNL     1       2.005   6.362  20.018  0.00  0.00    +0.000 A 
ATOM      6  C   UNL     1       1.103   6.954  20.912  0.00  0.00    +0.000 A 
ENDROOT
BRANCH   5   7
ATOM      7  N   UNL     1       3.070   5.515  20.552  0.00  0.00    +0.000 N 
ATOM      8  C   UNL     1       4.197   5.431  19.593  0.00  0.00    +0.000 C 
ATOM      9  C   UNL     1       3.848   4.209  18.786  0.00  0.00    +0.000 A 
ATOM     10  C   UNL     1       3.040   3.397  19.585  0.00  0.00    +0.000 A 
ATOM     11  C   UNL     1       2.386   2.277  19.098  0.00  0.00    +0.000 A 
ATOM     12  C   UNL     1       2.566   1.965  17.751  0.00  0.00    +0.000 A 
ATOM     13  C   UNL     1       3.386   2.767  16.935  0.00  0.00    +0.000 A 
ATOM     14  C   UNL     1       4.050   3.906  17.441  0.00  0.00    +0.000 A 
ATOM     15  C   UNL     1       2.688   4.168  20.805  0.00  0.00    +0.000 C 
ATOM     16  O   UNL     1       2.005   3.723  21.704  0.00  0.00    +0.000 OA
BRANCH  14  17
ATOM     17  C   UNL     1       4.849   4.768  16.500  0.00  0.00    +0.000 C 
ATOM     18  F   UNL     1       4.391   6.044  16.383  0.00  0.00    +0.000 F 
ATOM     19  F   UNL     1       6.152   4.878  16.880  0.00  0.00    +0.000 F 
ATOM     20  F   UNL     1       4.872   4.272  15.230  0.00  0.00    +0.000 F 
ENDBRANCH  14  17
ENDBRANCH   5   7
BRANCH   1  21
ATOM     21  C   UNL     1      -0.277   8.972  21.649  0.00  0.00    +0.000 C 
BRANCH  21  27
ATOM     22  C   UNL     1      -1.583  10.785  19.425  0.00  0.00    +0.000 C 
ATOM     23  N   UNL     1      -0.899  11.224  20.612  0.00  0.00    +0.000 N 
ATOM     24  C   UNL     1      -0.745  12.521  20.997  0.00  0.00    +0.000 A 
ATOM     25  N   UNL     1      -0.082  12.568  22.127  0.00  0.00    +0.000 NA
ATOM     26  N   UNL     1       0.197  11.277  22.498  0.00  0.00    +0.000 NA
ATOM     27  C   UNL     1      -0.298  10.465  21.583  0.00  0.00    +0.000 A 
ENDBRANCH  21  27
ENDBRANCH   1  21
BRANCH   3  28
ATOM     28  C   UNL     1       2.822   9.115  17.644  0.00  0.00    +0.000 C 
BRANCH  28  29
ATOM     29  O   UNL     1       2.186  10.335  17.319  0.00  0.00    +0.000 OA
ATOM     30  H   UNL     1       2.278  10.901  18.103  0.00  0.00    +0.000 HD
ENDBRANCH  28  29
ENDBRANCH   3  28
TORSDOF 6
ENDMDL
