MODEL 1
REMARK VINA RESULT:      -9.2      0.000      0.000
REMARK  Name = 
REMARK  5 active torsions:
REMARK  status: ('A' for Active; 'I' for Inactive)
REMARK    1  A    between atoms: C_1  and  C_2
REMARK    2  A    between atoms: C_7  and  N_8
REMARK    3  A    between atoms: N_8  and  S_9
REMARK    4  A    between atoms: S_9  and  C_12
REMARK    5  A    between atoms: C_15  and  C_16
REMARK                            x       y       z     vdW  Elec       q    Type
REMARK                         _______ _______ _______ _____ _____    ______ ____
ROOT
ATOM      1  C   UNL     1       4.196   6.056  18.272  0.00  0.00    +0.000 A 
ATOM      2  C   UNL     1       3.512   6.007  19.494  0.00  0.00    +0.000 A 
ATOM      3  C   UNL     1       2.530   6.972  19.795  0.00  0.00    +0.000 A 
ATOM      4  C   UNL     1       2.232   7.994  18.882  0.00  0.00    +0.000 A 
ATOM      5  C   UNL     1       2.975   8.072  17.693  0.00  0.00    +0.000 A 
ATOM      6  C   UNL     1       3.947   7.109  17.386  0.00  0.00    +0.000 A 
ENDROOT
BRANCH   4   7
ATOM      7  C   UNL     1       1.113   8.971  19.190  0.00  0.00    +0.000 C 
ATOM      8  O   UNL     1       0.968   9.372  20.336  0.00  0.00    +0.000 OA
ATOM      9  N   UNL     1       0.321   9.246  18.087  0.00  0.00    +0.000 N 
ATOM     10  C   UNL     1      -0.814  10.021  18.074  0.00  0.00    +0.000 A 
ATOM     11  N   UNL     1      -1.398  10.757  18.993  0.00  0.00    +0.000 NA
ATOM     12  C   UNL     1      -2.581  11.208  18.424  0.00  0.00    +0.000 A 
ATOM     13  C   UNL     1      -3.619  12.000  18.947  0.00  0.00    +0.000 A 
ATOM     14  C   UNL     1      -4.755  12.242  18.152  0.00  0.00    +0.000 A 
ATOM     15  C   UNL     1      -4.853  11.723  16.858  0.00  0.00    +0.000 A 
ATOM     16  C   UNL     1      -3.813  10.973  16.305  0.00  0.00    +0.000 A 
ATOM     17  C   UNL     1      -2.704  10.745  17.122  0.00  0.00    +0.000 A 
ATOM     18  N   UNL     1      -1.538  10.066  16.905  0.00  0.00    +0.000 N 
ATOM     19  H   UNL     1       0.513   8.732  17.247  0.00  0.00    +0.000 HD
ATOM     20  H   UNL     1      -1.281   9.619  16.043  0.00  0.00    +0.000 HD
ENDBRANCH   4   7
BRANCH   1  21
ATOM     21  S   UNL     1       5.543   4.924  17.929  0.00  0.00    +0.000 S 
ATOM     22  O   UNL     1       6.292   4.782  19.158  0.00  0.00    +0.000 OA
ATOM     23  O   UNL     1       6.189   5.373  16.715  0.00  0.00    +0.000 OA
BRANCH  21  24
ATOM     24  N   UNL     1       4.834   3.434  17.657  0.00  0.00    +0.000 N 
ATOM     25  H   UNL     1       5.341   2.788  17.055  0.00  0.00    +0.000 HD
BRANCH  24  32
ATOM     26  C   UNL     1       4.488   2.021  20.278  0.00  0.00    +0.000 C 
ATOM     27  C   UNL     1       3.358   2.436  19.379  0.00  0.00    +0.000 A 
ATOM     28  C   UNL     1       2.040   2.205  19.821  0.00  0.00    +0.000 A 
ATOM     29  C   UNL     1       0.945   2.628  19.066  0.00  0.00    +0.000 A 
ATOM     30  C   UNL     1       1.151   3.299  17.864  0.00  0.00    +0.000 A 
ATOM     31  C   UNL     1       2.448   3.530  17.409  0.00  0.00    +0.000 A 
ATOM     32  C   UNL     1       3.550   3.082  18.145  0.00  0.00    +0.000 A 
ENDBRANCH  24  32
ENDBRANCH  21  24
ENDBRANCH   1  21
TORSDOF 4
ENDMDL
MODEL 2
REMARK VINA RESULT:      -9.2      2.200      3.153
REMARK  Name = 
REMARK  5 active torsions:
REMARK  status: ('A' for Active; 'I' for Inactive)
REMARK    1  A    between atoms: C_1  and  C_2
REMARK    2  A    between atoms: C_7  and  N_8
REMARK    3  A    between atoms: N_8  and  S_9
REMARK    4  A    between atoms: S_9  and  C_12
REMARK    5  A    between atoms: C_15  and  C_16
REMARK                            x       y       z     vdW  Elec       q    Type
REMARK                         _______ _______ _______ _____ _____    ______ ____
ROOT
ATOM      1  C   UNL     1       4.322   5.822  18.398  0.00  0.00    +0.000 A 
ATOM      2  C   UNL     1       4.103   6.661  17.298  0.00  0.00    +0.000 A 
ATOM      3  C   UNL     1       3.169   7.713  17.385  0.00  0.00    +0.000 A 
ATOM      4  C   UNL     1       2.445   7.926  18.566  0.00  0.00    +0.000 A 
ATOM      5  C   UNL     1       2.623   7.034  19.636  0.00  0.00    +0.000 A 
ATOM      6  C   UNL     1       3.558   5.992  19.557  0.00  0.00    +0.000 A 
ENDROOT
BRANCH   4   7
ATOM      7  C   UNL     1       1.507   9.115  18.665  0.00  0.00    +0.000 C 
ATOM      8  O   UNL     1       1.423   9.890  17.724  0.00  0.00    +0.000 OA
ATOM      9  N   UNL     1       0.884   9.205  19.899  0.00  0.00    +0.000 N 
ATOM     10  C   UNL     1       0.052  10.217  20.318  0.00  0.00    +0.000 A 
ATOM     11  N   UNL     1      -0.448  11.266  19.706  0.00  0.00    +0.000 NA
ATOM     12  C   UNL     1      -1.124  11.988  20.678  0.00  0.00    +0.000 A 
ATOM     13  C   UNL     1      -1.819  13.210  20.613  0.00  0.00    +0.000 A 
ATOM     14  C   UNL     1      -2.353  13.752  21.797  0.00  0.00    +0.000 A 
ATOM     15  C   UNL     1      -2.214  13.089  23.020  0.00  0.00    +0.000 A 
ATOM     16  C   UNL     1      -1.566  11.854  23.098  0.00  0.00    +0.000 A 
ATOM     17  C   UNL     1      -1.043  11.347  21.907  0.00  0.00    +0.000 A 
ATOM     18  N   UNL     1      -0.363  10.195  21.629  0.00  0.00    +0.000 N 
ATOM     19  H   UNL     1       1.163   8.546  20.602  0.00  0.00    +0.000 HD
ATOM     20  H   UNL     1      -0.149   9.475  22.297  0.00  0.00    +0.000 HD
ENDBRANCH   4   7
BRANCH   1  21
ATOM     21  S   UNL     1       5.401   4.396  18.264  0.00  0.00    +0.000 S 
ATOM     22  O   UNL     1       6.272   4.421  19.419  0.00  0.00    +0.000 OA
ATOM     23  O   UNL     1       5.947   4.388  16.925  0.00  0.00    +0.000 OA
BRANCH  21  24
ATOM     24  N   UNL     1       4.420   3.056  18.468  0.00  0.00    +0.000 N 
ATOM     25  H   UNL     1       4.611   2.253  17.871  0.00  0.00    +0.000 HD
BRANCH  24  32
ATOM     26  C   UNL     1       1.634   3.577  17.491  0.00  0.00    +0.000 C 
ATOM     27  C   UNL     1       1.991   3.253  18.914  0.00  0.00    +0.000 A 
ATOM     28  C   UNL     1       0.943   3.122  19.847  0.00  0.00    +0.000 A 
ATOM     29  C   UNL     1       1.200   2.756  21.168  0.00  0.00    +0.000 A 
ATOM     30  C   UNL     1       2.506   2.503  21.575  0.00  0.00    +0.000 A 
ATOM     31  C   UNL     1       3.555   2.635  20.667  0.00  0.00    +0.000 A 
ATOM     32  C   UNL     1       3.310   3.031  19.348  0.00  0.00    +0.000 A 
ENDBRANCH  24  32
ENDBRANCH  21  24
ENDBRANCH   1  21
TORSDOF 4
ENDMDL
MODEL 3
REMARK VINA RESULT:      -9.1      2.102      2.827
REMARK  Name = 
REMARK  5 active torsions:
REMARK  status: ('A' for Active; 'I' for Inactive)
REMARK    1  A    between atoms: C_1  and  C_2
REMARK    2  A    between atoms: C_7  and  N_8
REMARK    3  A    between atoms: N_8  and  S_9
REMARK    4  A    between atoms: S_9  and  C_12
REMARK    5  A    between atoms: C_15  and  C_16
REMARK                            x       y       z     vdW  Elec       q    Type
REMARK                         _______ _______ _______ _____ _____    ______ ____
ROOT
ATOM      1  C   UNL     1       4.562   5.901  18.162  0.00  0.00    +0.000 A 
ATOM      2  C   UNL     1       4.297   6.790  17.112  0.00  0.00    +0.000 A 
ATOM      3  C   UNL     1       3.294   7.771  17.251  0.00  0.00    +0.000 A 
ATOM      4  C   UNL     1       2.547   7.864  18.434  0.00  0.00    +0.000 A 
ATOM      5  C   UNL     1       2.775   6.921  19.450  0.00  0.00    +0.000 A 
ATOM      6  C   UNL     1       3.778   5.949  19.319  0.00  0.00    +0.000 A 
ENDROOT
BRANCH   4   7
ATOM      7  C   UNL     1       1.532   8.980  18.594  0.00  0.00    +0.000 C 
ATOM      8  O   UNL     1       1.340   9.751  17.664  0.00  0.00    +0.000 OA
ATOM      9  N   UNL     1       0.973   9.020  19.860  0.00  0.00    +0.000 N 
ATOM     10  C   UNL     1       0.093   9.966  20.332  0.00  0.00    +0.000 A 
ATOM     11  N   UNL     1      -0.515  10.978  19.756  0.00  0.00    +0.000 NA
ATOM     12  C   UNL     1      -1.188  11.645  20.770  0.00  0.00    +0.000 A 
ATOM     13  C   UNL     1      -1.972  12.812  20.752  0.00  0.00    +0.000 A 
ATOM     14  C   UNL     1      -2.478  13.309  21.967  0.00  0.00    +0.000 A 
ATOM     15  C   UNL     1      -2.224  12.654  23.175  0.00  0.00    +0.000 A 
ATOM     16  C   UNL     1      -1.485  11.469  23.208  0.00  0.00    +0.000 A 
ATOM     17  C   UNL     1      -0.993  11.006  21.987  0.00  0.00    +0.000 A 
ATOM     18  N   UNL     1      -0.246   9.908  21.663  0.00  0.00    +0.000 N 
ATOM     19  H   UNL     1       1.338   8.380  20.542  0.00  0.00    +0.000 HD
ATOM     20  H   UNL     1       0.056   9.203  22.312  0.00  0.00    +0.000 HD
ENDBRANCH   4   7
BRANCH   1  21
ATOM     21  S   UNL     1       5.734   4.560  17.955  0.00  0.00    +0.000 S 
ATOM     22  O   UNL     1       6.377   4.366  19.236  0.00  0.00    +0.000 OA
ATOM     23  O   UNL     1       6.513   4.843  16.770  0.00  0.00    +0.000 OA
BRANCH  21  24
ATOM     24  N   UNL     1       4.817   3.184  17.697  0.00  0.00    +0.000 N 
ATOM     25  H   UNL     1       5.206   2.486  17.065  0.00  0.00    +0.000 HD
BRANCH  24  32
ATOM     26  C   UNL     1       4.407   2.015  20.426  0.00  0.00    +0.000 C 
ATOM     27  C   UNL     1       3.299   2.473  19.520  0.00  0.00    +0.000 A 
ATOM     28  C   UNL     1       1.977   2.409  20.006  0.00  0.00    +0.000 A 
ATOM     29  C   UNL     1       0.909   2.881  19.242  0.00  0.00    +0.000 A 
ATOM     30  C   UNL     1       1.146   3.435  17.989  0.00  0.00    +0.000 A 
ATOM     31  C   UNL     1       2.447   3.500  17.491  0.00  0.00    +0.000 A 
ATOM     32  C   UNL     1       3.519   3.001  18.237  0.00  0.00    +0.000 A 
ENDBRANCH  24  32
ENDBRANCH  21  24
ENDBRANCH   1  21
TORSDOF 4
ENDMDL
MODEL 4
REMARK VINA RESULT:      -8.9      1.078      1.746
REMARK  Name = 
REMARK  5 active torsions:
REMARK  status: ('A' for Active; 'I' for Inactive)
REMARK    1  A    between atoms: C_1  and  C_2
REMARK    2  A    between atoms: C_7  and  N_8
REMARK    3  A    between atoms: N_8  and  S_9
REMARK    4  A    between atoms: S_9  and  C_12
REMARK    5  A    between atoms: C_15  and  C_16
REMARK                            x       y       z     vdW  Elec       q    Type
REMARK                         _______ _______ _______ _____ _____    ______ ____
ROOT
ATOM      1  C   UNL     1       3.431   6.749  18.441  0.00  0.00    +0.000 A 
ATOM      2  C   UNL     1       2.858   6.784  19.718  0.00  0.00    +0.000 A 
ATOM      3  C   UNL     1       1.912   7.778  20.043  0.00  0.00    +0.000 A 
ATOM      4  C   UNL     1       1.540   8.743  19.097  0.00  0.00    +0.000 A 
ATOM      5  C   UNL     1       2.176   8.738  17.843  0.00  0.00    +0.000 A 
ATOM      6  C   UNL     1       3.110   7.746  17.514  0.00  0.00    +0.000 A 
ENDROOT
BRANCH   4   7
ATOM      7  C   UNL     1       0.459   9.751  19.439  0.00  0.00    +0.000 C 
ATOM      8  O   UNL     1       0.478  10.301  20.531  0.00  0.00    +0.000 OA
ATOM      9  N   UNL     1      -0.494   9.875  18.442  0.00  0.00    +0.000 N 
ATOM     10  C   UNL     1      -1.636  10.640  18.499  0.00  0.00    +0.000 A 
ATOM     11  N   UNL     1      -2.092  11.490  19.390  0.00  0.00    +0.000 NA
ATOM     12  C   UNL     1      -3.355  11.860  18.953  0.00  0.00    +0.000 A 
ATOM     13  C   UNL     1      -4.321  12.712  19.518  0.00  0.00    +0.000 A 
ATOM     14  C   UNL     1      -5.568  12.844  18.880  0.00  0.00    +0.000 A 
ATOM     15  C   UNL     1      -5.847  12.158  17.695  0.00  0.00    +0.000 A 
ATOM     16  C   UNL     1      -4.885  11.342  17.093  0.00  0.00    +0.000 A 
ATOM     17  C   UNL     1      -3.662  11.227  17.756  0.00  0.00    +0.000 A 
ATOM     18  N   UNL     1      -2.527  10.528  17.457  0.00  0.00    +0.000 N 
ATOM     19  H   UNL     1      -0.419   9.254  17.657  0.00  0.00    +0.000 HD
ATOM     20  H   UNL     1      -2.392   9.970  16.632  0.00  0.00    +0.000 HD
ENDBRANCH   4   7
BRANCH   1  21
ATOM     21  S   UNL     1       4.736   5.582  18.052  0.00  0.00    +0.000 S 
ATOM     22  O   UNL     1       5.672   5.621  19.154  0.00  0.00    +0.000 OA
ATOM     23  O   UNL     1       5.171   5.851  16.699  0.00  0.00    +0.000 OA
BRANCH  21  24
ATOM     24  N   UNL     1       4.030   4.066  18.113  0.00  0.00    +0.000 N 
ATOM     25  H   UNL     1       4.273   3.417  17.366  0.00  0.00    +0.000 HD
BRANCH  24  32
ATOM     26  C   UNL     1       1.094   4.136  17.516  0.00  0.00    +0.000 C 
ATOM     27  C   UNL     1       1.687   3.699  18.826  0.00  0.00    +0.000 A 
ATOM     28  C   UNL     1       0.811   3.230  19.826  0.00  0.00    +0.000 A 
ATOM     29  C   UNL     1       1.301   2.746  21.039  0.00  0.00    +0.000 A 
ATOM     30  C   UNL     1       2.673   2.713  21.267  0.00  0.00    +0.000 A 
ATOM     31  C   UNL     1       3.552   3.179  20.292  0.00  0.00    +0.000 A 
ATOM     32  C   UNL     1       3.068   3.694  19.085  0.00  0.00    +0.000 A 
ENDBRANCH  24  32
ENDBRANCH  21  24
ENDBRANCH   1  21
TORSDOF 4
ENDMDL
MODEL 5
REMARK VINA RESULT:      -8.8      3.081      4.105
REMARK  Name = 
REMARK  5 active torsions:
REMARK  status: ('A' for Active; 'I' for Inactive)
REMARK    1  A    between atoms: C_1  and  C_2
REMARK    2  A    between atoms: C_7  and  N_8
REMARK    3  A    between atoms: N_8  and  S_9
REMARK    4  A    between atoms: S_9  and  C_12
REMARK    5  A    between atoms: C_15  and  C_16
REMARK                            x       y       z     vdW  Elec       q    Type
REMARK                         _______ _______ _______ _____ _____    ______ ____
ROOT
ATOM      1  C   UNL     1       2.484   4.748  18.916  0.00  0.00    +0.000 A 
ATOM      2  C   UNL     1       2.545   5.947  18.194  0.00  0.00    +0.000 A 
ATOM      3  C   UNL     1       2.192   7.164  18.811  0.00  0.00    +0.000 A 
ATOM      4  C   UNL     1       1.770   7.189  20.148  0.00  0.00    +0.000 A 
ATOM      5  C   UNL     1       1.647   5.971  20.838  0.00  0.00    +0.000 A 
ATOM      6  C   UNL     1       2.006   4.759  20.230  0.00  0.00    +0.000 A 
ENDROOT
BRANCH   4   7
ATOM      7  C   UNL     1       1.477   8.518  20.817  0.00  0.00    +0.000 C 
ATOM      8  O   UNL     1       1.381   8.566  22.035  0.00  0.00    +0.000 OA
ATOM      9  N   UNL     1       1.281   9.545  19.908  0.00  0.00    +0.000 N 
ATOM     10  C   UNL     1       0.915  10.836  20.206  0.00  0.00    +0.000 A 
ATOM     11  N   UNL     1       0.745  11.471  21.344  0.00  0.00    +0.000 NA
ATOM     12  C   UNL     1       0.256  12.726  21.011  0.00  0.00    +0.000 A 
ATOM     13  C   UNL     1      -0.139  13.812  21.813  0.00  0.00    +0.000 A 
ATOM     14  C   UNL     1      -0.677  14.955  21.193  0.00  0.00    +0.000 A 
ATOM     15  C   UNL     1      -0.807  15.026  19.803  0.00  0.00    +0.000 A 
ATOM     16  C   UNL     1      -0.379  13.977  18.986  0.00  0.00    +0.000 A 
ATOM     17  C   UNL     1       0.144  12.856  19.633  0.00  0.00    +0.000 A 
ATOM     18  N   UNL     1       0.641  11.677  19.153  0.00  0.00    +0.000 N 
ATOM     19  H   UNL     1       1.278   9.300  18.935  0.00  0.00    +0.000 HD
ATOM     20  H   UNL     1       0.732  11.442  18.180  0.00  0.00    +0.000 HD
ENDBRANCH   4   7
BRANCH   1  21
ATOM     21  S   UNL     1       2.794   3.175  18.112  0.00  0.00    +0.000 S 
ATOM     22  O   UNL     1       2.306   3.297  16.755  0.00  0.00    +0.000 OA
ATOM     23  O   UNL     1       2.301   2.135  18.987  0.00  0.00    +0.000 OA
BRANCH  21  24
ATOM     24  N   UNL     1       4.457   3.045  17.983  0.00  0.00    +0.000 N 
ATOM     25  H   UNL     1       4.905   2.321  18.544  0.00  0.00    +0.000 HD
BRANCH  24  32
ATOM     26  C   UNL     1       6.063   5.221  19.276  0.00  0.00    +0.000 C 
ATOM     27  C   UNL     1       6.028   4.951  17.798  0.00  0.00    +0.000 A 
ATOM     28  C   UNL     1       6.853   5.731  16.963  0.00  0.00    +0.000 A 
ATOM     29  C   UNL     1       6.919   5.488  15.590  0.00  0.00    +0.000 A 
ATOM     30  C   UNL     1       6.173   4.454  15.034  0.00  0.00    +0.000 A 
ATOM     31  C   UNL     1       5.347   3.677  15.845  0.00  0.00    +0.000 A 
ATOM     32  C   UNL     1       5.251   3.934  17.217  0.00  0.00    +0.000 A 
ENDBRANCH  24  32
ENDBRANCH  21  24
ENDBRANCH   1  21
TORSDOF 4
ENDMDL
MODEL 6
REMARK VINA RESULT:      -8.8      6.807      8.902
REMARK  Name = 
REMARK  5 active torsions:
REMARK  status: ('A' for Active; 'I' for Inactive)
REMARK    1  A    between atoms: C_1  and  C_2
REMARK    2  A    between atoms: C_7  and  N_8
REMARK    3  A    between atoms: N_8  and  S_9
REMARK    4  A    between atoms: S_9  and  C_12
REMARK    5  A    between atoms: C_15  and  C_16
REMARK                            x       y       z     vdW  Elec       q    Type
REMARK                         _______ _______ _______ _____ _____    ______ ____
ROOT
ATOM      1  C   UNL     1       7.353   6.648  17.804  0.00  0.00    +0.000 A 
ATOM      2  C   UNL     1       8.187   6.661  18.929  0.00  0.00    +0.000 A 
ATOM      3  C   UNL     1       8.805   7.861  19.339  0.00  0.00    +0.000 A 
ATOM      4  C   UNL     1       8.598   9.048  18.624  0.00  0.00    +0.000 A 
ATOM      5  C   UNL     1       7.816   9.005  17.457  0.00  0.00    +0.000 A 
ATOM      6  C   UNL     1       7.193   7.816  17.051  0.00  0.00    +0.000 A 
ENDROOT
BRANCH   4   7
ATOM      7  C   UNL     1       9.203  10.344  19.131  0.00  0.00    +0.000 C 
ATOM      8  O   UNL     1       9.223  10.564  20.333  0.00  0.00    +0.000 OA
ATOM      9  N   UNL     1       9.617  11.180  18.107  0.00  0.00    +0.000 N 
ATOM     10  C   UNL     1      10.121  12.452  18.249  0.00  0.00    +0.000 A 
ATOM     11  N   UNL     1      10.432  13.171  19.303  0.00  0.00    +0.000 NA
ATOM     12  C   UNL     1      10.781  14.424  18.820  0.00  0.00    +0.000 A 
ATOM     13  C   UNL     1      11.167  15.601  19.485  0.00  0.00    +0.000 A 
ATOM     14  C   UNL     1      11.394  16.766  18.729  0.00  0.00    +0.000 A 
ATOM     15  C   UNL     1      11.257  16.760  17.338  0.00  0.00    +0.000 A 
ATOM     16  C   UNL     1      10.919  15.589  16.654  0.00  0.00    +0.000 A 
ATOM     17  C   UNL     1      10.694  14.454  17.435  0.00  0.00    +0.000 A 
ATOM     18  N   UNL     1      10.352  13.173  17.101  0.00  0.00    +0.000 N 
ATOM     19  H   UNL     1       9.413  10.889  17.168  0.00  0.00    +0.000 HD
ATOM     20  H   UNL     1      10.230  12.833  16.163  0.00  0.00    +0.000 HD
ENDBRANCH   4   7
BRANCH   1  21
ATOM     21  S   UNL     1       6.672   5.109  17.185  0.00  0.00    +0.000 S 
ATOM     22  O   UNL     1       6.494   4.242  18.329  0.00  0.00    +0.000 OA
ATOM     23  O   UNL     1       7.482   4.696  16.060  0.00  0.00    +0.000 OA
BRANCH  21  24
ATOM     24  N   UNL     1       5.129   5.472  16.649  0.00  0.00    +0.000 N 
ATOM     25  H   UNL     1       5.052   6.176  15.916  0.00  0.00    +0.000 HD
BRANCH  24  32
ATOM     26  C   UNL     1       3.143   7.184  18.102  0.00  0.00    +0.000 C 
ATOM     27  C   UNL     1       2.999   5.703  17.893  0.00  0.00    +0.000 A 
ATOM     28  C   UNL     1       1.822   5.080  18.354  0.00  0.00    +0.000 A 
ATOM     29  C   UNL     1       1.595   3.721  18.131  0.00  0.00    +0.000 A 
ATOM     30  C   UNL     1       2.534   2.968  17.434  0.00  0.00    +0.000 A 
ATOM     31  C   UNL     1       3.706   3.567  16.976  0.00  0.00    +0.000 A 
ATOM     32  C   UNL     1       3.956   4.921  17.222  0.00  0.00    +0.000 A 
ENDBRANCH  24  32
ENDBRANCH  21  24
ENDBRANCH   1  21
TORSDOF 4
ENDMDL
MODEL 7
REMARK VINA RESULT:      -8.7      3.020      4.164
REMARK  Name = 
REMARK  5 active torsions:
REMARK  status: ('A' for Active; 'I' for Inactive)
REMARK    1  A    between atoms: C_1  and  C_2
REMARK    2  A    between atoms: C_7  and  N_8
REMARK    3  A    between atoms: N_8  and  S_9
REMARK    4  A    between atoms: S_9  and  C_12
REMARK    5  A    between atoms: C_15  and  C_16
REMARK                            x       y       z     vdW  Elec       q    Type
REMARK                         _______ _______ _______ _____ _____    ______ ____
ROOT
ATOM      1  C   UNL     1       2.491   4.676  18.787  0.00  0.00    +0.000 A 
ATOM      2  C   UNL     1       2.527   5.876  18.065  0.00  0.00    +0.000 A 
ATOM      3  C   UNL     1       2.197   7.092  18.697  0.00  0.00    +0.000 A 
ATOM      4  C   UNL     1       1.823   7.115  20.047  0.00  0.00    +0.000 A 
ATOM      5  C   UNL     1       1.722   5.896  20.739  0.00  0.00    +0.000 A 
ATOM      6  C   UNL     1       2.058   4.685  20.117  0.00  0.00    +0.000 A 
ENDROOT
BRANCH   4   7
ATOM      7  C   UNL     1       1.554   8.444  20.729  0.00  0.00    +0.000 C 
ATOM      8  O   UNL     1       1.522   8.493  21.950  0.00  0.00    +0.000 OA
ATOM      9  N   UNL     1       1.303   9.467  19.829  0.00  0.00    +0.000 N 
ATOM     10  C   UNL     1       0.942  10.756  20.144  0.00  0.00    +0.000 A 
ATOM     11  N   UNL     1       0.827  11.392  21.288  0.00  0.00    +0.000 NA
ATOM     12  C   UNL     1       0.311  12.642  20.979  0.00  0.00    +0.000 A 
ATOM     13  C   UNL     1      -0.050  13.726  21.799  0.00  0.00    +0.000 A 
ATOM     14  C   UNL     1      -0.629  14.863  21.206  0.00  0.00    +0.000 A 
ATOM     15  C   UNL     1      -0.833  14.931  19.825  0.00  0.00    +0.000 A 
ATOM     16  C   UNL     1      -0.440  13.883  18.989  0.00  0.00    +0.000 A 
ATOM     17  C   UNL     1       0.125  12.768  19.610  0.00  0.00    +0.000 A 
ATOM     18  N   UNL     1       0.606  11.592  19.106  0.00  0.00    +0.000 N 
ATOM     19  H   UNL     1       1.250   9.220  18.858  0.00  0.00    +0.000 HD
ATOM     20  H   UNL     1       0.648  11.356  18.130  0.00  0.00    +0.000 HD
ENDBRANCH   4   7
BRANCH   1  21
ATOM     21  S   UNL     1       2.771   3.104  17.970  0.00  0.00    +0.000 S 
ATOM     22  O   UNL     1       2.323   3.259  16.603  0.00  0.00    +0.000 OA
ATOM     23  O   UNL     1       2.220   2.069  18.817  0.00  0.00    +0.000 OA
BRANCH  21  24
ATOM     24  N   UNL     1       4.432   2.921  17.883  0.00  0.00    +0.000 N 
ATOM     25  H   UNL     1       4.788   1.966  17.895  0.00  0.00    +0.000 HD
BRANCH  24  32
ATOM     26  C   UNL     1       5.297   4.243  15.336  0.00  0.00    +0.000 C 
ATOM     27  C   UNL     1       5.744   4.662  16.709  0.00  0.00    +0.000 A 
ATOM     28  C   UNL     1       6.579   5.793  16.817  0.00  0.00    +0.000 A 
ATOM     29  C   UNL     1       6.975   6.275  18.065  0.00  0.00    +0.000 A 
ATOM     30  C   UNL     1       6.533   5.643  19.223  0.00  0.00    +0.000 A 
ATOM     31  C   UNL     1       5.713   4.520  19.133  0.00  0.00    +0.000 A 
ATOM     32  C   UNL     1       5.337   4.011  17.886  0.00  0.00    +0.000 A 
ENDBRANCH  24  32
ENDBRANCH  21  24
ENDBRANCH   1  21
TORSDOF 4
ENDMDL
MODEL 8
REMARK VINA RESULT:      -8.7      2.887      4.026
REMARK  Name = 
REMARK  5 active torsions:
REMARK  status: ('A' for Active; 'I' for Inactive)
REMARK    1  A    between atoms: C_1  and  C_2
REMARK    2  A    between atoms: C_7  and  N_8
REMARK    3  A    between atoms: N_8  and  S_9
REMARK    4  A    between atoms: S_9  and  C_12
REMARK    5  A    between atoms: C_15  and  C_16
REMARK                            x       y       z     vdW  Elec       q    Type
REMARK                         _______ _______ _______ _____ _____    ______ ____
ROOT
ATOM      1  C   UNL     1       2.468   4.782  18.976  0.00  0.00    +0.000 A 
ATOM      2  C   UNL     1       2.604   6.020  18.335  0.00  0.00    +0.000 A 
ATOM      3  C   UNL     1       2.235   7.206  19.001  0.00  0.00    +0.000 A 
ATOM      4  C   UNL     1       1.724   7.162  20.305  0.00  0.00    +0.000 A 
ATOM      5  C   UNL     1       1.527   5.908  20.909  0.00  0.00    +0.000 A 
ATOM      6  C   UNL     1       1.901   4.726  20.253  0.00  0.00    +0.000 A 
ENDROOT
BRANCH   4   7
ATOM      7  C   UNL     1       1.413   8.456  21.034  0.00  0.00    +0.000 C 
ATOM      8  O   UNL     1       1.889   8.645  22.144  0.00  0.00    +0.000 OA
ATOM      9  N   UNL     1       0.533   9.266  20.336  0.00  0.00    +0.000 N 
ATOM     10  C   UNL     1      -0.001  10.455  20.777  0.00  0.00    +0.000 A 
ATOM     11  N   UNL     1       0.209  11.178  21.854  0.00  0.00    +0.000 NA
ATOM     12  C   UNL     1      -0.712  12.214  21.802  0.00  0.00    +0.000 A 
ATOM     13  C   UNL     1      -0.976  13.267  22.696  0.00  0.00    +0.000 A 
ATOM     14  C   UNL     1      -2.041  14.144  22.418  0.00  0.00    +0.000 A 
ATOM     15  C   UNL     1      -2.820  13.989  21.268  0.00  0.00    +0.000 A 
ATOM     16  C   UNL     1      -2.546  12.977  20.345  0.00  0.00    +0.000 A 
ATOM     17  C   UNL     1      -1.487  12.121  20.655  0.00  0.00    +0.000 A 
ATOM     18  N   UNL     1      -0.961  11.048  19.992  0.00  0.00    +0.000 N 
ATOM     19  H   UNL     1       0.145   8.897  19.488  0.00  0.00    +0.000 HD
ATOM     20  H   UNL     1      -1.273  10.712  19.097  0.00  0.00    +0.000 HD
ENDBRANCH   4   7
BRANCH   1  21
ATOM     21  S   UNL     1       2.799   3.253  18.099  0.00  0.00    +0.000 S 
ATOM     22  O   UNL     1       2.348   3.447  16.738  0.00  0.00    +0.000 OA
ATOM     23  O   UNL     1       2.280   2.169  18.904  0.00  0.00    +0.000 OA
BRANCH  21  24
ATOM     24  N   UNL     1       4.465   3.126  18.009  0.00  0.00    +0.000 N 
ATOM     25  H   UNL     1       4.902   2.417  18.596  0.00  0.00    +0.000 HD
BRANCH  24  32
ATOM     26  C   UNL     1       6.097   5.287  19.293  0.00  0.00    +0.000 C 
ATOM     27  C   UNL     1       6.062   5.009  17.817  0.00  0.00    +0.000 A 
ATOM     28  C   UNL     1       6.899   5.773  16.979  0.00  0.00    +0.000 A 
ATOM     29  C   UNL     1       6.964   5.521  15.608  0.00  0.00    +0.000 A 
ATOM     30  C   UNL     1       6.205   4.495  15.056  0.00  0.00    +0.000 A 
ATOM     31  C   UNL     1       5.367   3.734  15.870  0.00  0.00    +0.000 A 
ATOM     32  C   UNL     1       5.272   4.000  17.240  0.00  0.00    +0.000 A 
ENDBRANCH  24  32
ENDBRANCH  21  24
ENDBRANCH   1  21
TORSDOF 4
ENDMDL
MODEL 9
REMARK VINA RESULT:      -8.7      3.122      4.383
REMARK  Name = 
REMARK  5 active torsions:
REMARK  status: ('A' for Active; 'I' for Inactive)
REMARK    1  A    between atoms: C_1  and  C_2
REMARK    2  A    between atoms: C_7  and  N_8
REMARK    3  A    between atoms: N_8  and  S_9
REMARK    4  A    between atoms: S_9  and  C_12
REMARK    5  A    between atoms: C_15  and  C_16
REMARK                            x       y       z     vdW  Elec       q    Type
REMARK                         _______ _______ _______ _____ _____    ______ ____
ROOT
ATOM      1  C   UNL     1       3.359   5.063  18.885  0.00  0.00    +0.000 A 
ATOM      2  C   UNL     1       3.321   5.709  17.643  0.00  0.00    +0.000 A 
ATOM      3  C   UNL     1       2.786   7.008  17.537  0.00  0.00    +0.000 A 
ATOM      4  C   UNL     1       2.281   7.665  18.667  0.00  0.00    +0.000 A 
ATOM      5  C   UNL     1       2.260   6.978  19.893  0.00  0.00    +0.000 A 
ATOM      6  C   UNL     1       2.800   5.688  20.004  0.00  0.00    +0.000 A 
ENDROOT
BRANCH   4   7
ATOM      7  C   UNL     1       1.788   9.095  18.546  0.00  0.00    +0.000 C 
ATOM      8  O   UNL     1       2.048   9.733  17.536  0.00  0.00    +0.000 OA
ATOM      9  N   UNL     1       1.128   9.533  19.682  0.00  0.00    +0.000 N 
ATOM     10  C   UNL     1       0.648  10.803  19.905  0.00  0.00    +0.000 A 
ATOM     11  N   UNL     1       0.581  11.873  19.146  0.00  0.00    +0.000 NA
ATOM     12  C   UNL     1       0.103  12.889  19.961  0.00  0.00    +0.000 A 
ATOM     13  C   UNL     1      -0.136  14.251  19.704  0.00  0.00    +0.000 A 
ATOM     14  C   UNL     1      -0.558  15.078  20.761  0.00  0.00    +0.000 A 
ATOM     15  C   UNL     1      -0.753  14.563  22.045  0.00  0.00    +0.000 A 
ATOM     16  C   UNL     1      -0.564  13.204  22.311  0.00  0.00    +0.000 A 
ATOM     17  C   UNL     1      -0.140  12.413  21.242  0.00  0.00    +0.000 A 
ATOM     18  N   UNL     1       0.138  11.078  21.152  0.00  0.00    +0.000 N 
ATOM     19  H   UNL     1       1.110   8.911  20.470  0.00  0.00    +0.000 HD
ATOM     20  H   UNL     1       0.042  10.416  21.903  0.00  0.00    +0.000 HD
ENDBRANCH   4   7
BRANCH   1  21
ATOM     21  S   UNL     1       3.905   3.360  19.018  0.00  0.00    +0.000 S 
ATOM     22  O   UNL     1       3.384   2.663  17.862  0.00  0.00    +0.000 OA
ATOM     23  O   UNL     1       3.598   2.908  20.357  0.00  0.00    +0.000 OA
BRANCH  21  24
ATOM     24  N   UNL     1       5.566   3.393  18.815  0.00  0.00    +0.000 N 
ATOM     25  H   UNL     1       6.090   2.605  19.193  0.00  0.00    +0.000 HD
BRANCH  24  32
ATOM     26  C   UNL     1       5.811   3.691  15.842  0.00  0.00    +0.000 C 
ATOM     27  C   UNL     1       6.372   4.660  16.845  0.00  0.00    +0.000 A 
ATOM     28  C   UNL     1       7.003   5.824  16.361  0.00  0.00    +0.000 A 
ATOM     29  C   UNL     1       7.485   6.796  17.237  0.00  0.00    +0.000 A 
ATOM     30  C   UNL     1       7.332   6.627  18.610  0.00  0.00    +0.000 A 
ATOM     31  C   UNL     1       6.716   5.480  19.106  0.00  0.00    +0.000 A 
ATOM     32  C   UNL     1       6.258   4.486  18.235  0.00  0.00    +0.000 A 
ENDBRANCH  24  32
ENDBRANCH  21  24
ENDBRANCH   1  21
TORSDOF 4
ENDMDL
