MODEL 1
REMARK VINA RESULT:      -9.4      0.000      0.000
REMARK  Name = 
REMARK  5 active torsions:
REMARK  status: ('A' for Active; 'I' for Inactive)
REMARK    1  A    between atoms: C_2  and  C_21
REMARK    2  A    between atoms: N_3  and  C_4
REMARK    3  A    between atoms: C_8  and  C_9
REMARK    4  A    between atoms: C_16  and  C_17
REMARK    5  A    between atoms: C_17  and  O_19
REMARK                            x       y       z     vdW  Elec       q    Type
REMARK                         _______ _______ _______ _____ _____    ______ ____
ROOT
ATOM      1  C   UNL     1       7.533   7.662  17.965  0.00  0.00    +0.000 A 
ATOM      2  C   UNL     1       8.378   6.875  18.761  0.00  0.00    +0.000 A 
ATOM      3  C   UNL     1       8.141   5.527  18.945  0.00  0.00    +0.000 A 
ATOM      4  C   UNL     1       7.047   4.939  18.335  0.00  0.00    +0.000 A 
ATOM      5  C   UNL     1       6.091   5.706  17.661  0.00  0.00    +0.000 A 
ATOM      6  C   UNL     1       6.355   7.085  17.453  0.00  0.00    +0.000 A 
ENDROOT
BRANCH   5   7
ATOM      7  C   UNL     1       4.869   5.068  17.055  0.00  0.00    +0.000 C 
ATOM      8  O   UNL     1       4.718   5.194  15.834  0.00  0.00    +0.000 OA
ATOM      9  N   UNL     1       3.964   4.322  17.850  0.00  0.00    +0.000 N 
ATOM     10  C   UNL     1       2.857   3.610  17.174  0.00  0.00    +0.000 C 
ATOM     11  C   UNL     1       1.480   4.113  17.613  0.00  0.00    +0.000 C 
ATOM     12  C   UNL     1       1.332   4.178  19.129  0.00  0.00    +0.000 C 
ATOM     13  C   UNL     1       2.480   4.964  19.738  0.00  0.00    +0.000 C 
ATOM     14  C   UNL     1       3.828   4.379  19.331  0.00  0.00    +0.000 C 
BRANCH  14  15
ATOM     15  C   UNL     1       4.099   3.009  19.996  0.00  0.00    +0.000 C 
ATOM     16  O   UNL     1       3.464   2.558  20.936  0.00  0.00    +0.000 OA
BRANCH  15  17
ATOM     17  O   UNL     1       5.189   2.367  19.500  0.00  0.00    +0.000 OA
ATOM     18  H   UNL     1       5.773   2.972  18.995  0.00  0.00    +0.000 HD
ENDBRANCH  15  17
ENDBRANCH  14  15
ENDBRANCH   5   7
BRANCH   1  21
ATOM     19  O   UNL     1       9.200   9.472  19.520  0.00  0.00    +0.000 OA
ATOM     20  C   UNL     1       8.649   9.826  18.481  0.00  0.00    +0.000 C 
ATOM     21  N   UNL     1       7.864   9.006  17.674  0.00  0.00    +0.000 N 
ATOM     22  H   UNL     1       7.616   9.408  16.772  0.00  0.00    +0.000 HD
BRANCH  20  23
ATOM     23  C   UNL     1       8.826  11.202  17.996  0.00  0.00    +0.000 A 
ATOM     24  N   UNL     1       7.871  11.880  17.319  0.00  0.00    +0.000 NA
ATOM     25  N   UNL     1       8.401  13.114  17.148  0.00  0.00    +0.000 N 
ATOM     26  C   UNL     1       9.651  13.242  17.672  0.00  0.00    +0.000 A 
ATOM     27  C   UNL     1       9.981  12.009  18.182  0.00  0.00    +0.000 A 
ATOM     28  C   UNL     1      11.303  11.726  18.809  0.00  0.00    +0.000 C 
ATOM     29  C   UNL     1      12.333  12.772  18.335  0.00  0.00    +0.000 C 
ATOM     30  C   UNL     1      11.786  14.202  18.505  0.00  0.00    +0.000 C 
ATOM     31  C   UNL     1      10.515  14.450  17.657  0.00  0.00    +0.000 C 
ATOM     32  H   UNL     1       7.848  13.815  16.666  0.00  0.00    +0.000 HD
ENDBRANCH  20  23
ENDBRANCH   1  21
TORSDOF 5
ENDMDL
MODEL 2
REMARK VINA RESULT:      -9.0      5.128      7.716
REMARK  Name = 
REMARK  5 active torsions:
REMARK  status: ('A' for Active; 'I' for Inactive)
REMARK    1  A    between atoms: C_2  and  C_21
REMARK    2  A    between atoms: N_3  and  C_4
REMARK    3  A    between atoms: C_8  and  C_9
REMARK    4  A    between atoms: C_16  and  C_17
REMARK    5  A    between atoms: C_17  and  O_19
REMARK                            x       y       z     vdW  Elec       q    Type
REMARK                         _______ _______ _______ _____ _____    ______ ____
ROOT
ATOM      1  C   UNL     1       1.961   5.252  20.485  0.00  0.00    +0.000 A 
ATOM      2  C   UNL     1       2.214   4.199  21.376  0.00  0.00    +0.000 A 
ATOM      3  C   UNL     1       2.897   3.067  20.975  0.00  0.00    +0.000 A 
ATOM      4  C   UNL     1       3.336   2.966  19.667  0.00  0.00    +0.000 A 
ATOM      5  C   UNL     1       2.977   3.913  18.704  0.00  0.00    +0.000 A 
ATOM      6  C   UNL     1       2.300   5.086  19.128  0.00  0.00    +0.000 A 
ENDROOT
BRANCH   5   7
ATOM      7  C   UNL     1       3.406   3.763  17.267  0.00  0.00    +0.000 C 
ATOM      8  O   UNL     1       2.755   2.978  16.568  0.00  0.00    +0.000 OA
ATOM      9  N   UNL     1       4.479   4.524  16.742  0.00  0.00    +0.000 N 
ATOM     10  C   UNL     1       4.765   4.429  15.294  0.00  0.00    +0.000 C 
ATOM     11  C   UNL     1       6.159   3.866  15.006  0.00  0.00    +0.000 C 
ATOM     12  C   UNL     1       7.253   4.569  15.803  0.00  0.00    +0.000 C 
ATOM     13  C   UNL     1       6.905   4.581  17.280  0.00  0.00    +0.000 C 
ATOM     14  C   UNL     1       5.540   5.217  17.522  0.00  0.00    +0.000 C 
BRANCH  14  15
ATOM     15  C   UNL     1       5.550   6.743  17.266  0.00  0.00    +0.000 C 
ATOM     16  O   UNL     1       6.558   7.409  17.087  0.00  0.00    +0.000 OA
BRANCH  15  17
ATOM     17  O   UNL     1       4.323   7.319  17.352  0.00  0.00    +0.000 OA
ATOM     18  H   UNL     1       4.048   7.727  16.504  0.00  0.00    +0.000 HD
ENDBRANCH  15  17
ENDBRANCH  14  15
ENDBRANCH   5   7
BRANCH   1  21
ATOM     19  O   UNL     1       2.273   7.919  19.364  0.00  0.00    +0.000 OA
ATOM     20  C   UNL     1       1.601   7.712  20.371  0.00  0.00    +0.000 C 
ATOM     21  N   UNL     1       1.385   6.460  20.943  0.00  0.00    +0.000 N 
ATOM     22  H   UNL     1       0.679   6.443  21.676  0.00  0.00    +0.000 HD
BRANCH  20  23
ATOM     23  C   UNL     1       0.930   8.834  21.042  0.00  0.00    +0.000 A 
ATOM     24  N   UNL     1       1.003   9.053  22.375  0.00  0.00    +0.000 NA
ATOM     25  N   UNL     1       0.334  10.217  22.554  0.00  0.00    +0.000 N 
ATOM     26  C   UNL     1      -0.169  10.733  21.401  0.00  0.00    +0.000 A 
ATOM     27  C   UNL     1       0.151   9.839  20.408  0.00  0.00    +0.000 A 
ATOM     28  C   UNL     1      -0.268  10.027  18.990  0.00  0.00    +0.000 C 
ATOM     29  C   UNL     1      -1.467  10.995  18.930  0.00  0.00    +0.000 C 
ATOM     30  C   UNL     1      -1.183  12.277  19.738  0.00  0.00    +0.000 C 
ATOM     31  C   UNL     1      -0.952  11.987  21.240  0.00  0.00    +0.000 C 
ATOM     32  H   UNL     1       0.267  10.595  23.494  0.00  0.00    +0.000 HD
ENDBRANCH  20  23
ENDBRANCH   1  21
TORSDOF 5
ENDMDL
MODEL 3
REMARK VINA RESULT:      -8.6      5.988      8.427
REMARK  Name = 
REMARK  5 active torsions:
REMARK  status: ('A' for Active; 'I' for Inactive)
REMARK    1  A    between atoms: C_2  and  C_21
REMARK    2  A    between atoms: N_3  and  C_4
REMARK    3  A    between atoms: C_8  and  C_9
REMARK    4  A    between atoms: C_16  and  C_17
REMARK    5  A    between atoms: C_17  and  O_19
REMARK                            x       y       z     vdW  Elec       q    Type
REMARK                         _______ _______ _______ _____ _____    ______ ____
ROOT
ATOM      1  C   UNL     1       1.544   8.534  19.503  0.00  0.00    +0.000 A 
ATOM      2  C   UNL     1       1.763   9.015  18.204  0.00  0.00    +0.000 A 
ATOM      3  C   UNL     1       2.565   8.331  17.311  0.00  0.00    +0.000 A 
ATOM      4  C   UNL     1       3.167   7.149  17.705  0.00  0.00    +0.000 A 
ATOM      5  C   UNL     1       3.106   6.708  19.031  0.00  0.00    +0.000 A 
ATOM      6  C   UNL     1       2.260   7.400  19.935  0.00  0.00    +0.000 A 
ENDROOT
BRANCH   5   7
ATOM      7  C   UNL     1       3.818   5.454  19.467  0.00  0.00    +0.000 C 
ATOM      8  O   UNL     1       4.953   5.589  19.938  0.00  0.00    +0.000 OA
ATOM      9  N   UNL     1       3.188   4.188  19.377  0.00  0.00    +0.000 N 
ATOM     10  C   UNL     1       3.888   3.015  19.944  0.00  0.00    +0.000 C 
ATOM     11  C   UNL     1       4.220   1.961  18.885  0.00  0.00    +0.000 C 
ATOM     12  C   UNL     1       3.019   1.600  18.016  0.00  0.00    +0.000 C 
ATOM     13  C   UNL     1       2.390   2.854  17.437  0.00  0.00    +0.000 C 
ATOM     14  C   UNL     1       2.010   3.840  18.537  0.00  0.00    +0.000 C 
BRANCH  14  15
ATOM     15  C   UNL     1       0.815   3.344  19.385  0.00  0.00    +0.000 C 
ATOM     16  O   UNL     1       0.068   2.434  19.061  0.00  0.00    +0.000 OA
BRANCH  15  17
ATOM     17  O   UNL     1       0.596   4.080  20.505  0.00  0.00    +0.000 OA
ATOM     18  H   UNL     1      -0.356   4.126  20.734  0.00  0.00    +0.000 HD
ENDBRANCH  15  17
ENDBRANCH  14  15
ENDBRANCH   5   7
BRANCH   1  21
ATOM     19  O   UNL     1       1.428  11.344  20.250  0.00  0.00    +0.000 OA
ATOM     20  C   UNL     1       0.634  10.520  20.695  0.00  0.00    +0.000 C 
ATOM     21  N   UNL     1       0.613   9.168  20.358  0.00  0.00    +0.000 N 
ATOM     22  H   UNL     1      -0.204   8.660  20.691  0.00  0.00    +0.000 HD
BRANCH  20  23
ATOM     23  C   UNL     1      -0.411  10.950  21.635  0.00  0.00    +0.000 A 
ATOM     24  N   UNL     1      -0.396  10.645  22.953  0.00  0.00    +0.000 NA
ATOM     25  N   UNL     1      -1.469  11.301  23.455  0.00  0.00    +0.000 N 
ATOM     26  C   UNL     1      -2.168  11.992  22.514  0.00  0.00    +0.000 A 
ATOM     27  C   UNL     1      -1.544  11.745  21.315  0.00  0.00    +0.000 A 
ATOM     28  C   UNL     1      -2.042  12.295  20.022  0.00  0.00    +0.000 C 
ATOM     29  C   UNL     1      -3.529  12.678  20.162  0.00  0.00    +0.000 C 
ATOM     30  C   UNL     1      -3.758  13.551  21.412  0.00  0.00    +0.000 C 
ATOM     31  C   UNL     1      -3.390  12.812  22.721  0.00  0.00    +0.000 C 
ATOM     32  H   UNL     1      -1.656  11.230  24.450  0.00  0.00    +0.000 HD
ENDBRANCH  20  23
ENDBRANCH   1  21
TORSDOF 5
ENDMDL
MODEL 4
REMARK VINA RESULT:      -8.5      1.539      1.901
REMARK  Name = 
REMARK  5 active torsions:
REMARK  status: ('A' for Active; 'I' for Inactive)
REMARK    1  A    between atoms: C_2  and  C_21
REMARK    2  A    between atoms: N_3  and  C_4
REMARK    3  A    between atoms: C_8  and  C_9
REMARK    4  A    between atoms: C_16  and  C_17
REMARK    5  A    between atoms: C_17  and  O_19
REMARK                            x       y       z     vdW  Elec       q    Type
REMARK                         _______ _______ _______ _____ _____    ______ ____
ROOT
ATOM      1  C   UNL     1       6.580   7.352  17.377  0.00  0.00    +0.000 A 
ATOM      2  C   UNL     1       7.347   6.260  16.947  0.00  0.00    +0.000 A 
ATOM      3  C   UNL     1       6.799   4.997  16.837  0.00  0.00    +0.000 A 
ATOM      4  C   UNL     1       5.468   4.802  17.160  0.00  0.00    +0.000 A 
ATOM      5  C   UNL     1       4.704   5.821  17.738  0.00  0.00    +0.000 A 
ATOM      6  C   UNL     1       5.264   7.121  17.823  0.00  0.00    +0.000 A 
ENDROOT
BRANCH   5   7
ATOM      7  C   UNL     1       3.273   5.583  18.147  0.00  0.00    +0.000 C 
ATOM      8  O   UNL     1       2.497   6.540  18.051  0.00  0.00    +0.000 OA
ATOM      9  N   UNL     1       2.840   4.305  18.577  0.00  0.00    +0.000 N 
ATOM     10  C   UNL     1       1.397   4.103  18.837  0.00  0.00    +0.000 C 
ATOM     11  C   UNL     1       1.108   3.739  20.295  0.00  0.00    +0.000 C 
ATOM     12  C   UNL     1       1.988   2.601  20.804  0.00  0.00    +0.000 C 
ATOM     13  C   UNL     1       3.451   2.909  20.541  0.00  0.00    +0.000 C 
ATOM     14  C   UNL     1       3.700   3.193  19.064  0.00  0.00    +0.000 C 
BRANCH  14  15
ATOM     15  C   UNL     1       3.563   1.923  18.190  0.00  0.00    +0.000 C 
ATOM     16  O   UNL     1       2.782   1.805  17.259  0.00  0.00    +0.000 OA
BRANCH  15  17
ATOM     17  O   UNL     1       4.334   0.886  18.608  0.00  0.00    +0.000 OA
ATOM     18  H   UNL     1       3.795   0.130  18.921  0.00  0.00    +0.000 HD
ENDBRANCH  15  17
ENDBRANCH  14  15
ENDBRANCH   5   7
BRANCH   1  21
ATOM     19  O   UNL     1       8.775   8.418  18.964  0.00  0.00    +0.000 OA
ATOM     20  C   UNL     1       8.153   9.113  18.164  0.00  0.00    +0.000 C 
ATOM     21  N   UNL     1       7.115   8.661  17.353  0.00  0.00    +0.000 N 
ATOM     22  H   UNL     1       6.817   9.321  16.637  0.00  0.00    +0.000 HD
BRANCH  20  23
ATOM     23  C   UNL     1       8.515  10.527  17.992  0.00  0.00    +0.000 A 
ATOM     24  N   UNL     1       7.912  11.345  17.100  0.00  0.00    +0.000 NA
ATOM     25  N   UNL     1       8.473  12.556  17.333  0.00  0.00    +0.000 N 
ATOM     26  C   UNL     1       9.411  12.536  18.318  0.00  0.00    +0.000 A 
ATOM     27  C   UNL     1       9.504  11.230  18.732  0.00  0.00    +0.000 A 
ATOM     28  C   UNL     1      10.466  10.785  19.781  0.00  0.00    +0.000 C 
ATOM     29  C   UNL     1      11.605  11.818  19.908  0.00  0.00    +0.000 C 
ATOM     30  C   UNL     1      11.042  13.245  20.054  0.00  0.00    +0.000 C 
ATOM     31  C   UNL     1      10.215  13.680  18.820  0.00  0.00    +0.000 C 
ATOM     32  H   UNL     1       8.161  13.347  16.779  0.00  0.00    +0.000 HD
ENDBRANCH  20  23
ENDBRANCH   1  21
TORSDOF 5
ENDMDL
MODEL 5
REMARK VINA RESULT:      -8.4      2.638     10.033
REMARK  Name = 
REMARK  5 active torsions:
REMARK  status: ('A' for Active; 'I' for Inactive)
REMARK    1  A    between atoms: C_2  and  C_21
REMARK    2  A    between atoms: N_3  and  C_4
REMARK    3  A    between atoms: C_8  and  C_9
REMARK    4  A    between atoms: C_16  and  C_17
REMARK    5  A    between atoms: C_17  and  O_19
REMARK                            x       y       z     vdW  Elec       q    Type
REMARK                         _______ _______ _______ _____ _____    ______ ____
ROOT
ATOM      1  C   UNL     1       8.905   9.952  18.499  0.00  0.00    +0.000 A 
ATOM      2  C   UNL     1       8.971   9.984  19.900  0.00  0.00    +0.000 A 
ATOM      3  C   UNL     1       9.583  11.028  20.566  0.00  0.00    +0.000 A 
ATOM      4  C   UNL     1      10.146  12.062  19.839  0.00  0.00    +0.000 A 
ATOM      5  C   UNL     1      10.243  12.002  18.445  0.00  0.00    +0.000 A 
ATOM      6  C   UNL     1       9.589  10.942  17.767  0.00  0.00    +0.000 A 
ENDROOT
BRANCH   5   7
ATOM      7  C   UNL     1      10.914  13.103  17.664  0.00  0.00    +0.000 C 
ATOM      8  O   UNL     1      11.893  12.786  16.979  0.00  0.00    +0.000 OA
ATOM      9  N   UNL     1      10.410  14.426  17.687  0.00  0.00    +0.000 N 
ATOM     10  C   UNL     1      11.033  15.430  16.797  0.00  0.00    +0.000 C 
ATOM     11  C   UNL     1      11.677  16.583  17.571  0.00  0.00    +0.000 C 
ATOM     12  C   UNL     1      10.743  17.185  18.616  0.00  0.00    +0.000 C 
ATOM     13  C   UNL     1      10.186  16.096  19.516  0.00  0.00    +0.000 C 
ATOM     14  C   UNL     1       9.491  15.009  18.702  0.00  0.00    +0.000 C 
BRANCH  14  15
ATOM     15  C   UNL     1       8.165  15.501  18.075  0.00  0.00    +0.000 C 
ATOM     16  O   UNL     1       7.561  16.501  18.430  0.00  0.00    +0.000 OA
BRANCH  15  17
ATOM     17  O   UNL     1       7.660  14.661  17.136  0.00  0.00    +0.000 OA
ATOM     18  H   UNL     1       7.018  15.111  16.547  0.00  0.00    +0.000 HD
ENDBRANCH  15  17
ENDBRANCH  14  15
ENDBRANCH   5   7
BRANCH   1  21
ATOM     19  O   UNL     1       8.649   7.142  19.213  0.00  0.00    +0.000 OA
ATOM     20  C   UNL     1       8.100   7.613  18.220  0.00  0.00    +0.000 C 
ATOM     21  N   UNL     1       8.156   8.952  17.837  0.00  0.00    +0.000 N 
ATOM     22  H   UNL     1       7.520   9.205  17.084  0.00  0.00    +0.000 HD
BRANCH  20  23
ATOM     23  C   UNL     1       7.289   6.745  17.356  0.00  0.00    +0.000 A 
ATOM     24  N   UNL     1       7.490   6.627  16.023  0.00  0.00    +0.000 NA
ATOM     25  N   UNL     1       6.604   5.677  15.640  0.00  0.00    +0.000 N 
ATOM     26  C   UNL     1       5.846   5.201  16.664  0.00  0.00    +0.000 A 
ATOM     27  C   UNL     1       6.223   5.907  17.781  0.00  0.00    +0.000 A 
ATOM     28  C   UNL     1       5.585   5.706  19.113  0.00  0.00    +0.000 C 
ATOM     29  C   UNL     1       4.201   5.052  18.929  0.00  0.00    +0.000 C 
ATOM     30  C   UNL     1       4.293   3.812  18.019  0.00  0.00    +0.000 C 
ATOM     31  C   UNL     1       4.785   4.163  16.594  0.00  0.00    +0.000 C 
ATOM     32  H   UNL     1       6.580   5.406  14.662  0.00  0.00    +0.000 HD
ENDBRANCH  20  23
ENDBRANCH   1  21
TORSDOF 5
ENDMDL
MODEL 6
REMARK VINA RESULT:      -8.3      6.261     10.419
REMARK  Name = 
REMARK  5 active torsions:
REMARK  status: ('A' for Active; 'I' for Inactive)
REMARK    1  A    between atoms: C_2  and  C_21
REMARK    2  A    between atoms: N_3  and  C_4
REMARK    3  A    between atoms: C_8  and  C_9
REMARK    4  A    between atoms: C_16  and  C_17
REMARK    5  A    between atoms: C_17  and  O_19
REMARK                            x       y       z     vdW  Elec       q    Type
REMARK                         _______ _______ _______ _____ _____    ______ ____
ROOT
ATOM      1  C   UNL     1       0.738   9.892  18.397  0.00  0.00    +0.000 A 
ATOM      2  C   UNL     1      -0.586   9.976  17.943  0.00  0.00    +0.000 A 
ATOM      3  C   UNL     1      -1.392  11.048  18.272  0.00  0.00    +0.000 A 
ATOM      4  C   UNL     1      -0.886  12.060  19.069  0.00  0.00    +0.000 A 
ATOM      5  C   UNL     1       0.371  11.950  19.672  0.00  0.00    +0.000 A 
ATOM      6  C   UNL     1       1.203  10.860  19.309  0.00  0.00    +0.000 A 
ENDROOT
BRANCH   5   7
ATOM      7  C   UNL     1       0.889  13.027  20.591  0.00  0.00    +0.000 C 
ATOM      8  O   UNL     1       0.709  12.863  21.803  0.00  0.00    +0.000 OA
ATOM      9  N   UNL     1       1.587  14.148  20.080  0.00  0.00    +0.000 N 
ATOM     10  C   UNL     1       2.184  15.101  21.041  0.00  0.00    +0.000 C 
ATOM     11  C   UNL     1       1.589  16.505  20.924  0.00  0.00    +0.000 C 
ATOM     12  C   UNL     1       1.564  17.017  19.488  0.00  0.00    +0.000 C 
ATOM     13  C   UNL     1       0.894  16.004  18.577  0.00  0.00    +0.000 C 
ATOM     14  C   UNL     1       1.570  14.640  18.675  0.00  0.00    +0.000 C 
BRANCH  14  15
ATOM     15  C   UNL     1       2.980  14.636  18.039  0.00  0.00    +0.000 C 
ATOM     16  O   UNL     1       3.576  15.637  17.671  0.00  0.00    +0.000 OA
BRANCH  15  17
ATOM     17  O   UNL     1       3.481  13.391  17.827  0.00  0.00    +0.000 OA
ATOM     18  H   UNL     1       4.403  13.306  18.150  0.00  0.00    +0.000 HD
ENDBRANCH  15  17
ENDBRANCH  14  15
ENDBRANCH   5   7
BRANCH   1  21
ATOM     19  O   UNL     1       1.970   7.766  19.957  0.00  0.00    +0.000 OA
ATOM     20  C   UNL     1       2.171   7.888  18.751  0.00  0.00    +0.000 C 
ATOM     21  N   UNL     1       1.593   8.862  17.940  0.00  0.00    +0.000 N 
ATOM     22  H   UNL     1       1.740   8.726  16.942  0.00  0.00    +0.000 HD
BRANCH  20  23
ATOM     23  C   UNL     1       3.059   6.943  18.061  0.00  0.00    +0.000 A 
ATOM     24  N   UNL     1       4.173   7.321  17.394  0.00  0.00    +0.000 NA
ATOM     25  N   UNL     1       4.733   6.153  16.998  0.00  0.00    +0.000 N 
ATOM     26  C   UNL     1       4.017   5.057  17.372  0.00  0.00    +0.000 A 
ATOM     27  C   UNL     1       2.900   5.531  18.016  0.00  0.00    +0.000 A 
ATOM     28  C   UNL     1       1.834   4.632  18.542  0.00  0.00    +0.000 C 
ATOM     29  C   UNL     1       1.908   3.268  17.826  0.00  0.00    +0.000 C 
ATOM     30  C   UNL     1       3.345   2.713  17.845  0.00  0.00    +0.000 C 
ATOM     31  C   UNL     1       4.342   3.633  17.101  0.00  0.00    +0.000 C 
ATOM     32  H   UNL     1       5.605   6.186  16.479  0.00  0.00    +0.000 HD
ENDBRANCH  20  23
ENDBRANCH   1  21
TORSDOF 5
ENDMDL
MODEL 7
REMARK VINA RESULT:      -8.3      5.265      6.349
REMARK  Name = 
REMARK  5 active torsions:
REMARK  status: ('A' for Active; 'I' for Inactive)
REMARK    1  A    between atoms: C_2  and  C_21
REMARK    2  A    between atoms: N_3  and  C_4
REMARK    3  A    between atoms: C_8  and  C_9
REMARK    4  A    between atoms: C_16  and  C_17
REMARK    5  A    between atoms: C_17  and  O_19
REMARK                            x       y       z     vdW  Elec       q    Type
REMARK                         _______ _______ _______ _____ _____    ______ ____
ROOT
ATOM      1  C   UNL     1       2.502   8.294  17.709  0.00  0.00    +0.000 A 
ATOM      2  C   UNL     1       3.874   8.291  17.419  0.00  0.00    +0.000 A 
ATOM      3  C   UNL     1       4.566   7.110  17.236  0.00  0.00    +0.000 A 
ATOM      4  C   UNL     1       3.896   5.904  17.344  0.00  0.00    +0.000 A 
ATOM      5  C   UNL     1       2.569   5.847  17.782  0.00  0.00    +0.000 A 
ATOM      6  C   UNL     1       1.857   7.063  17.941  0.00  0.00    +0.000 A 
ENDROOT
BRANCH   5   7
ATOM      7  C   UNL     1       1.865   4.526  17.959  0.00  0.00    +0.000 C 
ATOM      8  O   UNL     1       0.920   4.289  17.198  0.00  0.00    +0.000 OA
ATOM      9  N   UNL     1       2.304   3.590  18.927  0.00  0.00    +0.000 N 
ATOM     10  C   UNL     1       1.656   2.260  18.961  0.00  0.00    +0.000 C 
ATOM     11  C   UNL     1       0.937   1.990  20.285  0.00  0.00    +0.000 C 
ATOM     12  C   UNL     1       1.814   2.277  21.500  0.00  0.00    +0.000 C 
ATOM     13  C   UNL     1       2.400   3.675  21.410  0.00  0.00    +0.000 C 
ATOM     14  C   UNL     1       3.167   3.869  20.106  0.00  0.00    +0.000 C 
BRANCH  14  15
ATOM     15  C   UNL     1       4.483   3.057  20.072  0.00  0.00    +0.000 C 
ATOM     16  O   UNL     1       4.804   2.224  20.906  0.00  0.00    +0.000 OA
BRANCH  15  17
ATOM     17  O   UNL     1       5.322   3.417  19.066  0.00  0.00    +0.000 OA
ATOM     18  H   UNL     1       5.596   4.356  19.135  0.00  0.00    +0.000 HD
ENDBRANCH  15  17
ENDBRANCH  14  15
ENDBRANCH   5   7
BRANCH   1  21
ATOM     19  O   UNL     1       1.093   9.450  19.978  0.00  0.00    +0.000 OA
ATOM     20  C   UNL     1       1.102   9.990  18.875  0.00  0.00    +0.000 C 
ATOM     21  N   UNL     1       1.778   9.508  17.756  0.00  0.00    +0.000 N 
ATOM     22  H   UNL     1       1.814  10.154  16.970  0.00  0.00    +0.000 HD
BRANCH  20  23
ATOM     23  C   UNL     1       0.383  11.256  18.678  0.00  0.00    +0.000 A 
ATOM     24  N   UNL     1      -0.945  11.327  18.434  0.00  0.00    +0.000 NA
ATOM     25  N   UNL     1      -1.206  12.655  18.411  0.00  0.00    +0.000 N 
ATOM     26  C   UNL     1      -0.103  13.426  18.614  0.00  0.00    +0.000 A 
ATOM     27  C   UNL     1       0.954  12.556  18.737  0.00  0.00    +0.000 A 
ATOM     28  C   UNL     1       2.358  13.020  18.928  0.00  0.00    +0.000 C 
ATOM     29  C   UNL     1       2.489  14.480  18.450  0.00  0.00    +0.000 C 
ATOM     30  C   UNL     1       1.386  15.363  19.067  0.00  0.00    +0.000 C 
ATOM     31  C   UNL     1      -0.033  14.910  18.648  0.00  0.00    +0.000 C 
ATOM     32  H   UNL     1      -2.162  12.957  18.254  0.00  0.00    +0.000 HD
ENDBRANCH  20  23
ENDBRANCH   1  21
TORSDOF 5
ENDMDL
MODEL 8
REMARK VINA RESULT:      -8.3      4.873      7.622
REMARK  Name = 
REMARK  5 active torsions:
REMARK  status: ('A' for Active; 'I' for Inactive)
REMARK    1  A    between atoms: C_2  and  C_21
REMARK    2  A    between atoms: N_3  and  C_4
REMARK    3  A    between atoms: C_8  and  C_9
REMARK    4  A    between atoms: C_16  and  C_17
REMARK    5  A    between atoms: C_17  and  O_19
REMARK                            x       y       z     vdW  Elec       q    Type
REMARK                         _______ _______ _______ _____ _____    ______ ____
ROOT
ATOM      1  C   UNL     1       1.854   6.155  20.147  0.00  0.00    +0.000 A 
ATOM      2  C   UNL     1       1.846   5.213  21.186  0.00  0.00    +0.000 A 
ATOM      3  C   UNL     1       2.384   3.952  21.016  0.00  0.00    +0.000 A 
ATOM      4  C   UNL     1       2.938   3.607  19.796  0.00  0.00    +0.000 A 
ATOM      5  C   UNL     1       2.832   4.451  18.686  0.00  0.00    +0.000 A 
ATOM      6  C   UNL     1       2.304   5.754  18.874  0.00  0.00    +0.000 A 
ENDROOT
BRANCH   5   7
ATOM      7  C   UNL     1       3.382   4.041  17.344  0.00  0.00    +0.000 C 
ATOM      8  O   UNL     1       2.750   3.183  16.718  0.00  0.00    +0.000 OA
ATOM      9  N   UNL     1       4.546   4.651  16.815  0.00  0.00    +0.000 N 
ATOM     10  C   UNL     1       4.958   4.300  15.438  0.00  0.00    +0.000 C 
ATOM     11  C   UNL     1       6.333   3.631  15.388  0.00  0.00    +0.000 C 
ATOM     12  C   UNL     1       7.392   4.404  16.168  0.00  0.00    +0.000 C 
ATOM     13  C   UNL     1       6.911   4.680  17.581  0.00  0.00    +0.000 C 
ATOM     14  C   UNL     1       5.573   5.413  17.575  0.00  0.00    +0.000 C 
BRANCH  14  15
ATOM     15  C   UNL     1       5.705   6.872  17.079  0.00  0.00    +0.000 C 
ATOM     16  O   UNL     1       6.762   7.472  16.964  0.00  0.00    +0.000 OA
BRANCH  15  17
ATOM     17  O   UNL     1       4.512   7.485  16.863  0.00  0.00    +0.000 OA
ATOM     18  H   UNL     1       3.971   7.012  16.194  0.00  0.00    +0.000 HD
ENDBRANCH  15  17
ENDBRANCH  14  15
ENDBRANCH   5   7
BRANCH   1  21
ATOM     19  O   UNL     1       2.016   8.424  18.331  0.00  0.00    +0.000 OA
ATOM     20  C   UNL     1       1.562   8.531  19.467  0.00  0.00    +0.000 C 
ATOM     21  N   UNL     1       1.428   7.484  20.376  0.00  0.00    +0.000 N 
ATOM     22  H   UNL     1       0.890   7.711  21.210  0.00  0.00    +0.000 HD
BRANCH  20  23
ATOM     23  C   UNL     1       1.084   9.838  19.940  0.00  0.00    +0.000 A 
ATOM     24  N   UNL     1       1.303  10.995  19.274  0.00  0.00    +0.000 NA
ATOM     25  N   UNL     1       0.627  11.922  19.993  0.00  0.00    +0.000 N 
ATOM     26  C   UNL     1       0.005  11.408  21.088  0.00  0.00    +0.000 A 
ATOM     27  C   UNL     1       0.321  10.071  21.117  0.00  0.00    +0.000 A 
ATOM     28  C   UNL     1      -0.140   9.158  22.201  0.00  0.00    +0.000 C 
ATOM     29  C   UNL     1      -0.516   9.986  23.447  0.00  0.00    +0.000 C 
ATOM     30  C   UNL     1      -1.465  11.142  23.075  0.00  0.00    +0.000 C 
ATOM     31  C   UNL     1      -0.815  12.141  22.088  0.00  0.00    +0.000 C 
ATOM     32  H   UNL     1       0.637  12.884  19.671  0.00  0.00    +0.000 HD
ENDBRANCH  20  23
ENDBRANCH   1  21
TORSDOF 5
ENDMDL
MODEL 9
REMARK VINA RESULT:      -8.2      5.899      9.090
REMARK  Name = 
REMARK  5 active torsions:
REMARK  status: ('A' for Active; 'I' for Inactive)
REMARK    1  A    between atoms: C_2  and  C_21
REMARK    2  A    between atoms: N_3  and  C_4
REMARK    3  A    between atoms: C_8  and  C_9
REMARK    4  A    between atoms: C_16  and  C_17
REMARK    5  A    between atoms: C_17  and  O_19
REMARK                            x       y       z     vdW  Elec       q    Type
REMARK                         _______ _______ _______ _____ _____    ______ ____
ROOT
ATOM      1  C   UNL     1       1.751   7.853  20.311  0.00  0.00    +0.000 A 
ATOM      2  C   UNL     1       0.981   7.533  21.438  0.00  0.00    +0.000 A 
ATOM      3  C   UNL     1      -0.150   8.256  21.765  0.00  0.00    +0.000 A 
ATOM      4  C   UNL     1      -0.530   9.320  20.967  0.00  0.00    +0.000 A 
ATOM      5  C   UNL     1       0.284   9.775  19.925  0.00  0.00    +0.000 A 
ATOM      6  C   UNL     1       1.429   9.012  19.579  0.00  0.00    +0.000 A 
ENDROOT
BRANCH   5   7
ATOM      7  C   UNL     1      -0.106  10.975  19.101  0.00  0.00    +0.000 C 
ATOM      8  O   UNL     1      -0.549  10.756  17.968  0.00  0.00    +0.000 OA
ATOM      9  N   UNL     1      -0.006  12.286  19.627  0.00  0.00    +0.000 N 
ATOM     10  C   UNL     1      -0.528  13.409  18.819  0.00  0.00    +0.000 C 
ATOM     11  C   UNL     1       0.562  14.411  18.431  0.00  0.00    +0.000 C 
ATOM     12  C   UNL     1       1.406  14.853  19.622  0.00  0.00    +0.000 C 
ATOM     13  C   UNL     1       1.941  13.644  20.367  0.00  0.00    +0.000 C 
ATOM     14  C   UNL     1       0.811  12.714  20.796  0.00  0.00    +0.000 C 
BRANCH  14  15
ATOM     15  C   UNL     1      -0.057  13.323  21.922  0.00  0.00    +0.000 C 
ATOM     16  O   UNL     1       0.320  14.193  22.692  0.00  0.00    +0.000 OA
BRANCH  15  17
ATOM     17  O   UNL     1      -1.273  12.734  22.054  0.00  0.00    +0.000 OA
ATOM     18  H   UNL     1      -1.990  13.393  22.172  0.00  0.00    +0.000 HD
ENDBRANCH  15  17
ENDBRANCH  14  15
ENDBRANCH   5   7
BRANCH   1  21
ATOM     19  O   UNL     1       1.610   5.220  19.079  0.00  0.00    +0.000 OA
ATOM     20  C   UNL     1       2.683   5.754  19.350  0.00  0.00    +0.000 C 
ATOM     21  N   UNL     1       2.823   7.022  19.912  0.00  0.00    +0.000 N 
ATOM     22  H   UNL     1       3.777   7.378  19.924  0.00  0.00    +0.000 HD
BRANCH  20  23
ATOM     23  C   UNL     1       3.940   5.056  19.052  0.00  0.00    +0.000 A 
ATOM     24  N   UNL     1       4.251   3.838  19.551  0.00  0.00    +0.000 NA
ATOM     25  N   UNL     1       5.431   3.532  18.962  0.00  0.00    +0.000 N 
ATOM     26  C   UNL     1       5.886   4.504  18.127  0.00  0.00    +0.000 A 
ATOM     27  C   UNL     1       4.975   5.529  18.199  0.00  0.00    +0.000 A 
ATOM     28  C   UNL     1       5.142   6.809  17.453  0.00  0.00    +0.000 C 
ATOM     29  C   UNL     1       6.626   6.994  17.073  0.00  0.00    +0.000 C 
ATOM     30  C   UNL     1       7.183   5.727  16.395  0.00  0.00    +0.000 C 
ATOM     31  C   UNL     1       7.140   4.494  17.328  0.00  0.00    +0.000 C 
ATOM     32  H   UNL     1       5.862   2.639  19.180  0.00  0.00    +0.000 HD
ENDBRANCH  20  23
ENDBRANCH   1  21
TORSDOF 5
ENDMDL
