MODEL 1
REMARK VINA RESULT:      -8.1      0.000      0.000
REMARK  Name = 
REMARK  6 active torsions:
REMARK  status: ('A' for Active; 'I' for Inactive)
REMARK    1  A    between atoms: C_1  and  O_2
REMARK    2  A    between atoms: O_2  and  C_3
REMARK    3  A    between atoms: C_6  and  C_7
REMARK    4  A    between atoms: C_10  and  S_11
REMARK    5  A    between atoms: S_11  and  C_12
REMARK    6  A    between atoms: C_12  and  C_13
REMARK                            x       y       z     vdW  Elec       q    Type
REMARK                         _______ _______ _______ _____ _____    ______ ____
ROOT
ATOM      1  C   UNL     1       0.351   8.475  21.603  0.00  0.00    +0.000 C 
ENDROOT
BRANCH   1   2
ATOM      2  C   UNL     1       1.276   7.900  20.551  0.00  0.00    +0.000 A 
ATOM      3  N   UNL     1       1.783   6.713  20.690  0.00  0.00    +0.000 NA
ATOM      4  C   UNL     1       2.596   6.319  19.673  0.00  0.00    +0.000 A 
ATOM      5  S   UNL     1       3.322   4.773  19.647  0.00  0.00    +0.000 S 
ATOM      6  C   UNL     1       4.076   5.086  18.152  0.00  0.00    +0.000 A 
ATOM      7  C   UNL     1       3.825   6.359  17.681  0.00  0.00    +0.000 A 
ATOM      8  C   UNL     1       2.940   7.059  18.558  0.00  0.00    +0.000 A 
ATOM      9  C   UNL     1       2.374   8.384  18.436  0.00  0.00    +0.000 A 
ATOM     10  O   UNL     1       2.619   9.157  17.517  0.00  0.00    +0.000 OA
ATOM     11  N   UNL     1       1.521   8.717  19.461  0.00  0.00    +0.000 N 
ATOM     12  C   UNL     1       4.386   6.860  16.383  0.00  0.00    +0.000 C 
ATOM     13  C   UNL     1       5.493   5.942  15.840  0.00  0.00    +0.000 C 
ATOM     14  C   UNL     1       5.130   4.457  15.988  0.00  0.00    +0.000 C 
ATOM     15  C   UNL     1       4.936   4.071  17.463  0.00  0.00    +0.000 C 
ATOM     16  H   UNL     1       1.173   9.668  19.435  0.00  0.00    +0.000 HD
ENDBRANCH   1   2
BRANCH   1  17
ATOM     17  S   UNL     1       0.680  10.248  21.838  0.00  0.00    +0.000 S 
BRANCH  17  21
ATOM     18  C   UNL     1      -1.803  11.259  19.116  0.00  0.00    +0.000 A 
ATOM     19  N   UNL     1      -1.976  12.281  19.934  0.00  0.00    +0.000 NA
ATOM     20  N   UNL     1      -1.110  12.092  20.988  0.00  0.00    +0.000 NA
ATOM     21  C   UNL     1      -0.480  10.957  20.758  0.00  0.00    +0.000 A 
ATOM     22  O   UNL     1      -0.866  10.373  19.581  0.00  0.00    +0.000 OA
BRANCH  18  26
ATOM     23  C   UNL     1      -3.616  10.301  15.348  0.00  0.00    +0.000 A 
ATOM     24  C   UNL     1      -2.410   9.719  15.729  0.00  0.00    +0.000 A 
ATOM     25  C   UNL     1      -1.817  10.062  16.952  0.00  0.00    +0.000 A 
ATOM     26  C   UNL     1      -2.420  10.984  17.822  0.00  0.00    +0.000 A 
ATOM     27  C   UNL     1      -3.624  11.578  17.420  0.00  0.00    +0.000 A 
ATOM     28  C   UNL     1      -4.218  11.229  16.199  0.00  0.00    +0.000 A 
BRANCH  23  30
ATOM     29  C   UNL     1      -3.519   9.750  13.036  0.00  0.00    +0.000 C 
ATOM     30  O   UNL     1      -4.299  10.049  14.189  0.00  0.00    +0.000 OA
ENDBRANCH  23  30
ENDBRANCH  18  26
ENDBRANCH  17  21
ENDBRANCH   1  17
TORSDOF 5
ENDMDL
MODEL 2
REMARK VINA RESULT:      -8.0      4.770      9.291
REMARK  Name = 
REMARK  6 active torsions:
REMARK  status: ('A' for Active; 'I' for Inactive)
REMARK    1  A    between atoms: C_1  and  O_2
REMARK    2  A    between atoms: O_2  and  C_3
REMARK    3  A    between atoms: C_6  and  C_7
REMARK    4  A    between atoms: C_10  and  S_11
REMARK    5  A    between atoms: S_11  and  C_12
REMARK    6  A    between atoms: C_12  and  C_13
REMARK                            x       y       z     vdW  Elec       q    Type
REMARK                         _______ _______ _______ _____ _____    ______ ____
ROOT
ATOM      1  C   UNL     1       4.669   5.114  17.105  0.00  0.00    +0.000 C 
ENDROOT
BRANCH   1   2
ATOM      2  C   UNL     1       3.751   6.014  17.905  0.00  0.00    +0.000 A 
ATOM      3  N   UNL     1       3.464   7.209  17.488  0.00  0.00    +0.000 NA
ATOM      4  C   UNL     1       2.629   7.910  18.301  0.00  0.00    +0.000 A 
ATOM      5  S   UNL     1       2.094   9.483  17.904  0.00  0.00    +0.000 S 
ATOM      6  C   UNL     1       1.157   9.588  19.323  0.00  0.00    +0.000 A 
ATOM      7  C   UNL     1       1.267   8.468  20.122  0.00  0.00    +0.000 A 
ATOM      8  C   UNL     1       2.103   7.486  19.506  0.00  0.00    +0.000 A 
ATOM      9  C   UNL     1       2.453   6.156  19.955  0.00  0.00    +0.000 A 
ATOM     10  O   UNL     1       2.083   5.668  21.017  0.00  0.00    +0.000 OA
ATOM     11  N   UNL     1       3.256   5.469  19.077  0.00  0.00    +0.000 N 
ATOM     12  C   UNL     1       0.533   8.335  21.424  0.00  0.00    +0.000 C 
ATOM     13  C   UNL     1      -0.059   9.675  21.892  0.00  0.00    +0.000 C 
ATOM     14  C   UNL     1      -0.700  10.453  20.734  0.00  0.00    +0.000 C 
ATOM     15  C   UNL     1       0.333  10.796  19.648  0.00  0.00    +0.000 C 
ATOM     16  H   UNL     1       3.574   4.566  19.407  0.00  0.00    +0.000 HD
ENDBRANCH   1   2
BRANCH   1  17
ATOM     17  S   UNL     1       5.665   6.094  15.941  0.00  0.00    +0.000 S 
BRANCH  17  21
ATOM     18  C   UNL     1       7.957   8.313  18.044  0.00  0.00    +0.000 A 
ATOM     19  N   UNL     1       8.237   7.150  18.601  0.00  0.00    +0.000 NA
ATOM     20  N   UNL     1       7.501   6.201  17.926  0.00  0.00    +0.000 NA
ATOM     21  C   UNL     1       6.802   6.847  17.015  0.00  0.00    +0.000 A 
ATOM     22  O   UNL     1       7.044   8.195  17.027  0.00  0.00    +0.000 OA
BRANCH  18  26
ATOM     23  C   UNL     1       9.687  12.149  18.876  0.00  0.00    +0.000 A 
ATOM     24  C   UNL     1       9.945  11.055  19.698  0.00  0.00    +0.000 A 
ATOM     25  C   UNL     1       9.352   9.814  19.427  0.00  0.00    +0.000 A 
ATOM     26  C   UNL     1       8.497   9.639  18.327  0.00  0.00    +0.000 A 
ATOM     27  C   UNL     1       8.229  10.750  17.518  0.00  0.00    +0.000 A 
ATOM     28  C   UNL     1       8.828  11.989  17.787  0.00  0.00    +0.000 A 
BRANCH  23  30
ATOM     29  C   UNL     1       9.710  14.179  20.114  0.00  0.00    +0.000 C 
ATOM     30  O   UNL     1      10.205  13.406  19.026  0.00  0.00    +0.000 OA
ENDBRANCH  23  30
ENDBRANCH  18  26
ENDBRANCH  17  21
ENDBRANCH   1  17
TORSDOF 5
ENDMDL
MODEL 3
REMARK VINA RESULT:      -7.7      1.640      2.166
REMARK  Name = 
REMARK  6 active torsions:
REMARK  status: ('A' for Active; 'I' for Inactive)
REMARK    1  A    between atoms: C_1  and  O_2
REMARK    2  A    between atoms: O_2  and  C_3
REMARK    3  A    between atoms: C_6  and  C_7
REMARK    4  A    between atoms: C_10  and  S_11
REMARK    5  A    between atoms: S_11  and  C_12
REMARK    6  A    between atoms: C_12  and  C_13
REMARK                            x       y       z     vdW  Elec       q    Type
REMARK                         _______ _______ _______ _____ _____    ______ ____
ROOT
ATOM      1  C   UNL     1       0.898   7.537  21.653  0.00  0.00    +0.000 C 
ENDROOT
BRANCH   1   2
ATOM      2  C   UNL     1       1.798   6.928  20.598  0.00  0.00    +0.000 A 
ATOM      3  N   UNL     1       2.183   7.624  19.572  0.00  0.00    +0.000 NA
ATOM      4  C   UNL     1       2.987   6.956  18.702  0.00  0.00    +0.000 A 
ATOM      5  S   UNL     1       3.638   7.711  17.315  0.00  0.00    +0.000 S 
ATOM      6  C   UNL     1       4.464   6.293  16.856  0.00  0.00    +0.000 A 
ATOM      7  C   UNL     1       4.228   5.235  17.711  0.00  0.00    +0.000 A 
ATOM      8  C   UNL     1       3.391   5.638  18.797  0.00  0.00    +0.000 A 
ATOM      9  C   UNL     1       2.934   4.882  19.942  0.00  0.00    +0.000 A 
ATOM     10  O   UNL     1       3.190   3.698  20.134  0.00  0.00    +0.000 OA
ATOM     11  N   UNL     1       2.166   5.612  20.817  0.00  0.00    +0.000 N 
ATOM     12  C   UNL     1       4.848   3.884  17.506  0.00  0.00    +0.000 C 
ATOM     13  C   UNL     1       5.473   3.741  16.110  0.00  0.00    +0.000 C 
ATOM     14  C   UNL     1       6.247   5.003  15.697  0.00  0.00    +0.000 C 
ATOM     15  C   UNL     1       5.324   6.231  15.631  0.00  0.00    +0.000 C 
ATOM     16  H   UNL     1       1.774   5.082  21.585  0.00  0.00    +0.000 HD
ENDBRANCH   1   2
BRANCH   1  17
ATOM     17  S   UNL     1       1.518   9.173  22.149  0.00  0.00    +0.000 S 
BRANCH  17  21
ATOM     18  C   UNL     1      -0.908  10.951  19.793  0.00  0.00    +0.000 A 
ATOM     19  N   UNL     1      -0.674  11.946  20.627  0.00  0.00    +0.000 NA
ATOM     20  N   UNL     1       0.232  11.479  21.554  0.00  0.00    +0.000 NA
ATOM     21  C   UNL     1       0.478  10.223  21.239  0.00  0.00    +0.000 A 
ATOM     22  O   UNL     1      -0.209   9.819  20.125  0.00  0.00    +0.000 OA
BRANCH  18  26
ATOM     23  C   UNL     1      -3.367  10.686  16.288  0.00  0.00    +0.000 A 
ATOM     24  C   UNL     1      -2.191   9.948  16.393  0.00  0.00    +0.000 A 
ATOM     25  C   UNL     1      -1.386  10.065  17.534  0.00  0.00    +0.000 A 
ATOM     26  C   UNL     1      -1.741  10.913  18.595  0.00  0.00    +0.000 A 
ATOM     27  C   UNL     1      -2.916  11.666  18.470  0.00  0.00    +0.000 A 
ATOM     28  C   UNL     1      -3.724  11.543  17.331  0.00  0.00    +0.000 A 
BRANCH  23  30
ATOM     29  C   UNL     1      -3.813   9.977  14.062  0.00  0.00    +0.000 C 
ATOM     30  O   UNL     1      -4.242  10.659  15.236  0.00  0.00    +0.000 OA
ENDBRANCH  23  30
ENDBRANCH  18  26
ENDBRANCH  17  21
ENDBRANCH   1  17
TORSDOF 5
ENDMDL
MODEL 4
REMARK VINA RESULT:      -7.7      3.257      8.530
REMARK  Name = 
REMARK  6 active torsions:
REMARK  status: ('A' for Active; 'I' for Inactive)
REMARK    1  A    between atoms: C_1  and  O_2
REMARK    2  A    between atoms: O_2  and  C_3
REMARK    3  A    between atoms: C_6  and  C_7
REMARK    4  A    between atoms: C_10  and  S_11
REMARK    5  A    between atoms: S_11  and  C_12
REMARK    6  A    between atoms: C_12  and  C_13
REMARK                            x       y       z     vdW  Elec       q    Type
REMARK                         _______ _______ _______ _____ _____    ______ ____
ROOT
ATOM      1  C   UNL     1       2.306   5.825  20.829  0.00  0.00    +0.000 C 
ENDROOT
BRANCH   1   2
ATOM      2  C   UNL     1       1.795   7.207  20.478  0.00  0.00    +0.000 A 
ATOM      3  N   UNL     1       1.078   7.883  21.324  0.00  0.00    +0.000 NA
ATOM      4  C   UNL     1       0.684   9.108  20.882  0.00  0.00    +0.000 A 
ATOM      5  S   UNL     1      -0.225  10.170  21.864  0.00  0.00    +0.000 S 
ATOM      6  C   UNL     1      -0.253  11.365  20.650  0.00  0.00    +0.000 A 
ATOM      7  C   UNL     1       0.381  10.966  19.491  0.00  0.00    +0.000 A 
ATOM      8  C   UNL     1       0.947   9.663  19.645  0.00  0.00    +0.000 A 
ATOM      9  C   UNL     1       1.735   8.881  18.717  0.00  0.00    +0.000 A 
ATOM     10  O   UNL     1       2.014   9.238  17.578  0.00  0.00    +0.000 OA
ATOM     11  N   UNL     1       2.150   7.674  19.225  0.00  0.00    +0.000 N 
ATOM     12  C   UNL     1       0.481  11.853  18.284  0.00  0.00    +0.000 C 
ATOM     13  C   UNL     1      -0.457  13.067  18.381  0.00  0.00    +0.000 C 
ATOM     14  C   UNL     1      -0.445  13.689  19.785  0.00  0.00    +0.000 C 
ATOM     15  C   UNL     1      -0.928  12.688  20.848  0.00  0.00    +0.000 C 
ATOM     16  H   UNL     1       2.638   7.079  18.567  0.00  0.00    +0.000 HD
ENDBRANCH   1   2
BRANCH   1  17
ATOM     17  S   UNL     1       1.266   4.548  20.058  0.00  0.00    +0.000 S 
BRANCH  17  21
ATOM     18  C   UNL     1       3.888   3.777  17.388  0.00  0.00    +0.000 A 
ATOM     19  N   UNL     1       3.367   2.570  17.511  0.00  0.00    +0.000 NA
ATOM     20  N   UNL     1       2.354   2.671  18.439  0.00  0.00    +0.000 NA
ATOM     21  C   UNL     1       2.335   3.927  18.839  0.00  0.00    +0.000 A 
ATOM     22  O   UNL     1       3.280   4.692  18.208  0.00  0.00    +0.000 OA
BRANCH  18  26
ATOM     23  C   UNL     1       7.106   5.128  14.895  0.00  0.00    +0.000 A 
ATOM     24  C   UNL     1       6.937   5.634  16.180  0.00  0.00    +0.000 A 
ATOM     25  C   UNL     1       5.866   5.201  16.973  0.00  0.00    +0.000 A 
ATOM     26  C   UNL     1       4.947   4.250  16.502  0.00  0.00    +0.000 A 
ATOM     27  C   UNL     1       5.116   3.761  15.200  0.00  0.00    +0.000 A 
ATOM     28  C   UNL     1       6.192   4.191  14.411  0.00  0.00    +0.000 A 
BRANCH  23  30
ATOM     29  C   UNL     1       7.842   5.285  12.638  0.00  0.00    +0.000 C 
ATOM     30  O   UNL     1       8.109   5.461  14.025  0.00  0.00    +0.000 OA
ENDBRANCH  23  30
ENDBRANCH  18  26
ENDBRANCH  17  21
ENDBRANCH   1  17
TORSDOF 5
ENDMDL
MODEL 5
REMARK VINA RESULT:      -7.6      0.471      1.004
REMARK  Name = 
REMARK  6 active torsions:
REMARK  status: ('A' for Active; 'I' for Inactive)
REMARK    1  A    between atoms: C_1  and  O_2
REMARK    2  A    between atoms: O_2  and  C_3
REMARK    3  A    between atoms: C_6  and  C_7
REMARK    4  A    between atoms: C_10  and  S_11
REMARK    5  A    between atoms: S_11  and  C_12
REMARK    6  A    between atoms: C_12  and  C_13
REMARK                            x       y       z     vdW  Elec       q    Type
REMARK                         _______ _______ _______ _____ _____    ______ ____
ROOT
ATOM      1  C   UNL     1       0.638   8.101  21.455  0.00  0.00    +0.000 C 
ENDROOT
BRANCH   1   2
ATOM      2  C   UNL     1       1.567   7.602  20.368  0.00  0.00    +0.000 A 
ATOM      3  N   UNL     1       2.173   6.460  20.485  0.00  0.00    +0.000 NA
ATOM      4  C   UNL     1       2.976   6.133  19.437  0.00  0.00    +0.000 A 
ATOM      5  S   UNL     1       3.823   4.651  19.379  0.00  0.00    +0.000 S 
ATOM      6  C   UNL     1       4.493   5.023  17.858  0.00  0.00    +0.000 A 
ATOM      7  C   UNL     1       4.122   6.272  17.400  0.00  0.00    +0.000 A 
ATOM      8  C   UNL     1       3.217   6.898  18.312  0.00  0.00    +0.000 A 
ATOM      9  C   UNL     1       2.541   8.173  18.215  0.00  0.00    +0.000 A 
ATOM     10  O   UNL     1       2.688   8.963  17.289  0.00  0.00    +0.000 OA
ATOM     11  N   UNL     1       1.703   8.437  19.272  0.00  0.00    +0.000 N 
ATOM     12  C   UNL     1       4.591   6.816  16.083  0.00  0.00    +0.000 C 
ATOM     13  C   UNL     1       5.748   5.991  15.496  0.00  0.00    +0.000 C 
ATOM     14  C   UNL     1       5.511   4.481  15.654  0.00  0.00    +0.000 C 
ATOM     15  C   UNL     1       5.406   4.081  17.134  0.00  0.00    +0.000 C 
ATOM     16  H   UNL     1       1.279   9.356  19.261  0.00  0.00    +0.000 HD
ENDBRANCH   1   2
BRANCH   1  17
ATOM     17  S   UNL     1       0.970   9.851  21.821  0.00  0.00    +0.000 S 
BRANCH  17  21
ATOM     18  C   UNL     1      -1.700  11.087  19.384  0.00  0.00    +0.000 A 
ATOM     19  N   UNL     1      -1.890  11.966  20.351  0.00  0.00    +0.000 NA
ATOM     20  N   UNL     1      -0.962  11.681  21.329  0.00  0.00    +0.000 NA
ATOM     21  C   UNL     1      -0.281  10.635  20.908  0.00  0.00    +0.000 A 
ATOM     22  O   UNL     1      -0.692  10.204  19.674  0.00  0.00    +0.000 OA
BRANCH  18  26
ATOM     23  C   UNL     1      -3.654  10.884  15.571  0.00  0.00    +0.000 A 
ATOM     24  C   UNL     1      -4.205  11.618  16.618  0.00  0.00    +0.000 A 
ATOM     25  C   UNL     1      -3.567  11.654  17.866  0.00  0.00    +0.000 A 
ATOM     26  C   UNL     1      -2.365  10.965  18.091  0.00  0.00    +0.000 A 
ATOM     27  C   UNL     1      -1.830  10.213  17.037  0.00  0.00    +0.000 A 
ATOM     28  C   UNL     1      -2.466  10.183  15.788  0.00  0.00    +0.000 A 
BRANCH  23  30
ATOM     29  C   UNL     1      -3.729   9.666  13.529  0.00  0.00    +0.000 C 
ATOM     30  O   UNL     1      -4.171  10.772  14.309  0.00  0.00    +0.000 OA
ENDBRANCH  23  30
ENDBRANCH  18  26
ENDBRANCH  17  21
ENDBRANCH   1  17
TORSDOF 5
ENDMDL
MODEL 6
REMARK VINA RESULT:      -7.5      3.672      9.270
REMARK  Name = 
REMARK  6 active torsions:
REMARK  status: ('A' for Active; 'I' for Inactive)
REMARK    1  A    between atoms: C_1  and  O_2
REMARK    2  A    between atoms: O_2  and  C_3
REMARK    3  A    between atoms: C_6  and  C_7
REMARK    4  A    between atoms: C_10  and  S_11
REMARK    5  A    between atoms: S_11  and  C_12
REMARK    6  A    between atoms: C_12  and  C_13
REMARK                            x       y       z     vdW  Elec       q    Type
REMARK                         _______ _______ _______ _____ _____    ______ ____
ROOT
ATOM      1  C   UNL     1       1.830   8.143  19.744  0.00  0.00    +0.000 C 
ENDROOT
BRANCH   1   2
ATOM      2  C   UNL     1       0.886   9.162  20.345  0.00  0.00    +0.000 A 
ATOM      3  N   UNL     1       0.238   9.995  19.588  0.00  0.00    +0.000 NA
ATOM      4  C   UNL     1      -0.575  10.856  20.257  0.00  0.00    +0.000 A 
ATOM      5  S   UNL     1      -1.548  11.997  19.437  0.00  0.00    +0.000 S 
ATOM      6  C   UNL     1      -2.198  12.583  20.899  0.00  0.00    +0.000 A 
ATOM      7  C   UNL     1      -1.666  11.959  22.010  0.00  0.00    +0.000 A 
ATOM      8  C   UNL     1      -0.744  10.937  21.625  0.00  0.00    +0.000 A 
ATOM      9  C   UNL     1       0.002  10.008  22.446  0.00  0.00    +0.000 A 
ATOM     10  O   UNL     1      -0.029   9.991  23.671  0.00  0.00    +0.000 OA
ATOM     11  N   UNL     1       0.770   9.127  21.724  0.00  0.00    +0.000 N 
ATOM     12  C   UNL     1      -2.086  12.312  23.407  0.00  0.00    +0.000 C 
ATOM     13  C   UNL     1      -2.892  13.620  23.454  0.00  0.00    +0.000 C 
ATOM     14  C   UNL     1      -3.912  13.707  22.309  0.00  0.00    +0.000 C 
ATOM     15  C   UNL     1      -3.219  13.678  20.937  0.00  0.00    +0.000 C 
ATOM     16  H   UNL     1       1.358   8.518  22.280  0.00  0.00    +0.000 HD
ENDBRANCH   1   2
BRANCH   1  17
ATOM     17  S   UNL     1       1.740   6.574  20.659  0.00  0.00    +0.000 S 
BRANCH  17  21
ATOM     18  C   UNL     1       4.054   4.785  18.202  0.00  0.00    +0.000 A 
ATOM     19  N   UNL     1       3.411   3.733  18.673  0.00  0.00    +0.000 NA
ATOM     20  N   UNL     1       2.487   4.208  19.577  0.00  0.00    +0.000 NA
ATOM     21  C   UNL     1       2.639   5.517  19.616  0.00  0.00    +0.000 A 
ATOM     22  O   UNL     1       3.615   5.956  18.762  0.00  0.00    +0.000 OA
BRANCH  18  26
ATOM     23  C   UNL     1       6.993   5.025  15.087  0.00  0.00    +0.000 A 
ATOM     24  C   UNL     1       6.001   4.049  15.058  0.00  0.00    +0.000 A 
ATOM     25  C   UNL     1       5.063   3.968  16.097  0.00  0.00    +0.000 A 
ATOM     26  C   UNL     1       5.092   4.862  17.178  0.00  0.00    +0.000 A 
ATOM     27  C   UNL     1       6.106   5.828  17.207  0.00  0.00    +0.000 A 
ATOM     28  C   UNL     1       7.040   5.912  16.164  0.00  0.00    +0.000 A 
BRANCH  23  30
ATOM     29  C   UNL     1       7.574   5.027  12.780  0.00  0.00    +0.000 C 
ATOM     30  O   UNL     1       7.960   5.215  14.138  0.00  0.00    +0.000 OA
ENDBRANCH  23  30
ENDBRANCH  18  26
ENDBRANCH  17  21
ENDBRANCH   1  17
TORSDOF 5
ENDMDL
MODEL 7
REMARK VINA RESULT:      -7.5      2.511      9.228
REMARK  Name = 
REMARK  6 active torsions:
REMARK  status: ('A' for Active; 'I' for Inactive)
REMARK    1  A    between atoms: C_1  and  O_2
REMARK    2  A    between atoms: O_2  and  C_3
REMARK    3  A    between atoms: C_6  and  C_7
REMARK    4  A    between atoms: C_10  and  S_11
REMARK    5  A    between atoms: S_11  and  C_12
REMARK    6  A    between atoms: C_12  and  C_13
REMARK                            x       y       z     vdW  Elec       q    Type
REMARK                         _______ _______ _______ _____ _____    ______ ____
ROOT
ATOM      1  C   UNL     1       0.703   9.731  18.217  0.00  0.00    +0.000 C 
ENDROOT
BRANCH   1   2
ATOM      2  C   UNL     1      -0.696  10.312  18.200  0.00  0.00    +0.000 A 
ATOM      3  N   UNL     1      -1.130  11.027  19.193  0.00  0.00    +0.000 NA
ATOM      4  C   UNL     1      -2.402  11.486  19.049  0.00  0.00    +0.000 A 
ATOM      5  S   UNL     1      -3.138  12.484  20.225  0.00  0.00    +0.000 S 
ATOM      6  C   UNL     1      -4.574  12.599  19.316  0.00  0.00    +0.000 A 
ATOM      7  C   UNL     1      -4.530  11.862  18.149  0.00  0.00    +0.000 A 
ATOM      8  C   UNL     1      -3.253  11.241  17.989  0.00  0.00    +0.000 A 
ATOM      9  C   UNL     1      -2.749  10.428  16.904  0.00  0.00    +0.000 A 
ATOM     10  O   UNL     1      -3.406  10.108  15.920  0.00  0.00    +0.000 OA
ATOM     11  N   UNL     1      -1.445  10.030  17.071  0.00  0.00    +0.000 N 
ATOM     12  C   UNL     1      -5.682  11.810  17.189  0.00  0.00    +0.000 C 
ATOM     13  C   UNL     1      -6.972  12.378  17.802  0.00  0.00    +0.000 C 
ATOM     14  C   UNL     1      -6.707  13.661  18.604  0.00  0.00    +0.000 C 
ATOM     15  C   UNL     1      -5.750  13.403  19.779  0.00  0.00    +0.000 C 
ATOM     16  H   UNL     1      -1.097   9.398  16.360  0.00  0.00    +0.000 HD
ENDBRANCH   1   2
BRANCH   1  17
ATOM     17  S   UNL     1       1.150   9.197  19.897  0.00  0.00    +0.000 S 
BRANCH  17  21
ATOM     18  C   UNL     1       3.442   6.366  18.743  0.00  0.00    +0.000 A 
ATOM     19  N   UNL     1       2.812   5.731  19.714  0.00  0.00    +0.000 NA
ATOM     20  N   UNL     1       1.897   6.618  20.237  0.00  0.00    +0.000 NA
ATOM     21  C   UNL     1       2.041   7.744  19.568  0.00  0.00    +0.000 A 
ATOM     22  O   UNL     1       3.004   7.657  18.597  0.00  0.00    +0.000 OA
BRANCH  18  26
ATOM     23  C   UNL     1       6.344   4.943  15.924  0.00  0.00    +0.000 A 
ATOM     24  C   UNL     1       5.168   4.235  16.157  0.00  0.00    +0.000 A 
ATOM     25  C   UNL     1       4.241   4.700  17.100  0.00  0.00    +0.000 A 
ATOM     26  C   UNL     1       4.466   5.883  17.822  0.00  0.00    +0.000 A 
ATOM     27  C   UNL     1       5.661   6.576  17.594  0.00  0.00    +0.000 A 
ATOM     28  C   UNL     1       6.584   6.113  16.645  0.00  0.00    +0.000 A 
BRANCH  23  30
ATOM     29  C   UNL     1       6.969   4.623  13.651  0.00  0.00    +0.000 C 
ATOM     30  O   UNL     1       7.323   4.602  15.030  0.00  0.00    +0.000 OA
ENDBRANCH  23  30
ENDBRANCH  18  26
ENDBRANCH  17  21
ENDBRANCH   1  17
TORSDOF 5
ENDMDL
MODEL 8
REMARK VINA RESULT:      -7.5      3.482      8.827
REMARK  Name = 
REMARK  6 active torsions:
REMARK  status: ('A' for Active; 'I' for Inactive)
REMARK    1  A    between atoms: C_1  and  O_2
REMARK    2  A    between atoms: O_2  and  C_3
REMARK    3  A    between atoms: C_6  and  C_7
REMARK    4  A    between atoms: C_10  and  S_11
REMARK    5  A    between atoms: S_11  and  C_12
REMARK    6  A    between atoms: C_12  and  C_13
REMARK                            x       y       z     vdW  Elec       q    Type
REMARK                         _______ _______ _______ _____ _____    ______ ____
ROOT
ATOM      1  C   UNL     1       3.045   5.210  19.298  0.00  0.00    +0.000 C 
ENDROOT
BRANCH   1   2
ATOM      2  C   UNL     1       2.431   6.584  19.471  0.00  0.00    +0.000 A 
ATOM      3  N   UNL     1       1.898   6.937  20.601  0.00  0.00    +0.000 NA
ATOM      4  C   UNL     1       1.385   8.196  20.619  0.00  0.00    +0.000 A 
ATOM      5  S   UNL     1       0.684   8.863  22.027  0.00  0.00    +0.000 S 
ATOM      6  C   UNL     1       0.358  10.338  21.239  0.00  0.00    +0.000 A 
ATOM      7  C   UNL     1       0.734  10.330  19.911  0.00  0.00    +0.000 A 
ATOM      8  C   UNL     1       1.355   9.090  19.567  0.00  0.00    +0.000 A 
ATOM      9  C   UNL     1       1.942   8.666  18.314  0.00  0.00    +0.000 A 
ATOM     10  O   UNL     1       1.955   9.345  17.294  0.00  0.00    +0.000 OA
ATOM     11  N   UNL     1       2.491   7.407  18.359  0.00  0.00    +0.000 N 
ATOM     12  C   UNL     1       0.543  11.519  19.015  0.00  0.00    +0.000 C 
ATOM     13  C   UNL     1      -0.383  12.573  19.644  0.00  0.00    +0.000 C 
ATOM     14  C   UNL     1      -0.081  12.784  21.135  0.00  0.00    +0.000 C 
ATOM     15  C   UNL     1      -0.292  11.491  21.940  0.00  0.00    +0.000 C 
ATOM     16  H   UNL     1       2.839   7.061  17.473  0.00  0.00    +0.000 HD
ENDBRANCH   1   2
BRANCH   1  17
ATOM     17  S   UNL     1       4.859   5.312  19.358  0.00  0.00    +0.000 S 
BRANCH  17  21
ATOM     18  C   UNL     1       5.708   5.515  15.639  0.00  0.00    +0.000 A 
ATOM     19  N   UNL     1       5.524   6.800  15.872  0.00  0.00    +0.000 NA
ATOM     20  N   UNL     1       5.231   6.919  17.213  0.00  0.00    +0.000 NA
ATOM     21  C   UNL     1       5.235   5.698  17.708  0.00  0.00    +0.000 A 
ATOM     22  O   UNL     1       5.535   4.751  16.765  0.00  0.00    +0.000 OA
BRANCH  18  26
ATOM     23  C   UNL     1       6.980   3.485  12.080  0.00  0.00    +0.000 A 
ATOM     24  C   UNL     1       7.734   4.525  12.618  0.00  0.00    +0.000 A 
ATOM     25  C   UNL     1       7.291   5.195  13.767  0.00  0.00    +0.000 A 
ATOM     26  C   UNL     1       6.094   4.836  14.405  0.00  0.00    +0.000 A 
ATOM     27  C   UNL     1       5.334   3.801  13.845  0.00  0.00    +0.000 A 
ATOM     28  C   UNL     1       5.781   3.128  12.699  0.00  0.00    +0.000 A 
BRANCH  23  30
ATOM     29  C   UNL     1       6.805   1.417  10.919  0.00  0.00    +0.000 C 
ATOM     30  O   UNL     1       7.302   2.750  10.972  0.00  0.00    +0.000 OA
ENDBRANCH  23  30
ENDBRANCH  18  26
ENDBRANCH  17  21
ENDBRANCH   1  17
TORSDOF 5
ENDMDL
MODEL 9
REMARK VINA RESULT:      -7.3      2.795      9.033
REMARK  Name = 
REMARK  6 active torsions:
REMARK  status: ('A' for Active; 'I' for Inactive)
REMARK    1  A    between atoms: C_1  and  O_2
REMARK    2  A    between atoms: O_2  and  C_3
REMARK    3  A    between atoms: C_6  and  C_7
REMARK    4  A    between atoms: C_10  and  S_11
REMARK    5  A    between atoms: S_11  and  C_12
REMARK    6  A    between atoms: C_12  and  C_13
REMARK                            x       y       z     vdW  Elec       q    Type
REMARK                         _______ _______ _______ _____ _____    ______ ____
ROOT
ATOM      1  C   UNL     1       1.071  11.913  19.228  0.00  0.00    +0.000 C 
ENDROOT
BRANCH   1   2
ATOM      2  C   UNL     1      -0.438  11.920  19.094  0.00  0.00    +0.000 A 
ATOM      3  N   UNL     1      -1.189  12.345  20.063  0.00  0.00    +0.000 NA
ATOM      4  C   UNL     1      -2.524  12.297  19.811  0.00  0.00    +0.000 A 
ATOM      5  S   UNL     1      -3.676  12.857  20.941  0.00  0.00    +0.000 S 
ATOM      6  C   UNL     1      -4.971  12.481  19.899  0.00  0.00    +0.000 A 
ATOM      7  C   UNL     1      -4.556  11.900  18.718  0.00  0.00    +0.000 A 
ATOM      8  C   UNL     1      -3.131  11.822  18.664  0.00  0.00    +0.000 A 
ATOM      9  C   UNL     1      -2.270  11.339  17.606  0.00  0.00    +0.000 A 
ATOM     10  O   UNL     1      -2.675  10.863  16.551  0.00  0.00    +0.000 OA
ATOM     11  N   UNL     1      -0.930  11.454  17.887  0.00  0.00    +0.000 N 
ATOM     12  C   UNL     1      -5.521  11.482  17.647  0.00  0.00    +0.000 C 
ATOM     13  C   UNL     1      -6.974  11.474  18.150  0.00  0.00    +0.000 C 
ATOM     14  C   UNL     1      -7.286  12.702  19.017  0.00  0.00    +0.000 C 
ATOM     15  C   UNL     1      -6.398  12.745  20.271  0.00  0.00    +0.000 C 
ATOM     16  H   UNL     1      -0.312  11.053  17.192  0.00  0.00    +0.000 HD
ENDBRANCH   1   2
BRANCH   1  17
ATOM     17  S   UNL     1       1.809  10.730  18.061  0.00  0.00    +0.000 S 
BRANCH  17  21
ATOM     18  C   UNL     1       2.226   7.296  19.683  0.00  0.00    +0.000 A 
ATOM     19  N   UNL     1       1.522   7.882  20.633  0.00  0.00    +0.000 NA
ATOM     20  N   UNL     1       1.247   9.157  20.190  0.00  0.00    +0.000 NA
ATOM     21  C   UNL     1       1.818   9.276  19.009  0.00  0.00    +0.000 A 
ATOM     22  O   UNL     1       2.456   8.128  18.618  0.00  0.00    +0.000 OA
BRANCH  18  26
ATOM     23  C   UNL     1       3.828   3.319  19.548  0.00  0.00    +0.000 A 
ATOM     24  C   UNL     1       4.615   4.418  19.215  0.00  0.00    +0.000 A 
ATOM     25  C   UNL     1       4.070   5.709  19.239  0.00  0.00    +0.000 A 
ATOM     26  C   UNL     1       2.732   5.929  19.604  0.00  0.00    +0.000 A 
ATOM     27  C   UNL     1       1.944   4.815  19.918  0.00  0.00    +0.000 A 
ATOM     28  C   UNL     1       2.493   3.525  19.899  0.00  0.00    +0.000 A 
BRANCH  23  30
ATOM     29  C   UNL     1       3.682   1.149  18.585  0.00  0.00    +0.000 C 
ATOM     30  O   UNL     1       4.239   2.014  19.569  0.00  0.00    +0.000 OA
ENDBRANCH  23  30
ENDBRANCH  18  26
ENDBRANCH  17  21
ENDBRANCH   1  17
TORSDOF 5
ENDMDL
