MODEL 1
REMARK VINA RESULT:      -8.4      0.000      0.000
REMARK  Name = 
REMARK  4 active torsions:
REMARK  status: ('A' for Active; 'I' for Inactive)
REMARK    1  A    between atoms: N_1  and  C_2
REMARK    2  A    between atoms: C_4  and  C_5
REMARK    3  A    between atoms: C_7  and  C_8
REMARK    4  A    between atoms: N_11  and  C_12
REMARK                            x       y       z     vdW  Elec       q    Type
REMARK                         _______ _______ _______ _____ _____    ______ ____
ROOT
ATOM      1  C   UNL     1       6.305   4.266  13.748  0.00  0.00    +0.000 A 
ATOM      2  N   UNL     1       5.649   4.039  14.863  0.00  0.00    +0.000 NA
ATOM      3  C   UNL     1       6.336   4.816  15.769  0.00  0.00    +0.000 A 
ATOM      4  N   UNL     1       7.370   5.494  15.250  0.00  0.00    +0.000 NA
ATOM      5  O   UNL     1       7.354   5.127  13.904  0.00  0.00    +0.000 OA
ENDROOT
BRANCH   1   8
ATOM      6  C   UNL     1       6.112   1.778  10.947  0.00  0.00    +0.000 C 
ATOM      7  C   UNL     1       6.824   2.401  12.159  0.00  0.00    +0.000 C 
ATOM      8  C   UNL     1       6.079   3.735  12.379  0.00  0.00    +0.000 C 
ATOM      9  C   UNL     1       4.644   3.386  12.023  0.00  0.00    +0.000 C 
ATOM     10  C   UNL     1       4.131   3.472  10.610  0.00  0.00    +0.000 C 
ATOM     11  C   UNL     1       4.673   2.170  11.136  0.00  0.00    +0.000 C 
BRANCH   6  12
ATOM     12  N   UNL     1       6.256   0.337  10.913  0.00  0.00    +0.000 NA
ATOM     13  H   UNL     1       7.199   0.078  11.195  0.00  0.00    +0.000 HD
ATOM     14  H   UNL     1       6.146   0.010   9.953  0.00  0.00    +0.000 HD
ENDBRANCH   6  12
ENDBRANCH   1   8
BRANCH   3  15
ATOM     15  C   UNL     1       5.931   4.835  17.185  0.00  0.00    +0.000 A 
ATOM     16  C   UNL     1       6.677   5.487  18.187  0.00  0.00    +0.000 A 
ATOM     17  C   UNL     1       5.950   5.306  19.339  0.00  0.00    +0.000 A 
ATOM     18  N   UNL     1       4.827   4.583  19.001  0.00  0.00    +0.000 N 
ATOM     19  N   UNL     1       4.827   4.262  17.681  0.00  0.00    +0.000 NA
BRANCH  18  20
ATOM     20  C   UNL     1       3.747   4.206  19.849  0.00  0.00    +0.000 A 
ATOM     21  C   UNL     1       2.696   5.094  20.123  0.00  0.00    +0.000 A 
ATOM     22  C   UNL     1       1.623   4.688  20.921  0.00  0.00    +0.000 A 
ATOM     23  C   UNL     1       1.594   3.402  21.455  0.00  0.00    +0.000 A 
ATOM     24  C   UNL     1       2.641   2.519  21.201  0.00  0.00    +0.000 A 
ATOM     25  C   UNL     1       3.715   2.916  20.400  0.00  0.00    +0.000 A 
ENDBRANCH  18  20
ENDBRANCH   3  15
TORSDOF 4
ENDMDL
MODEL 2
REMARK VINA RESULT:      -8.4      0.294      1.031
REMARK  Name = 
REMARK  4 active torsions:
REMARK  status: ('A' for Active; 'I' for Inactive)
REMARK    1  A    between atoms: N_1  and  C_2
REMARK    2  A    between atoms: C_4  and  C_5
REMARK    3  A    between atoms: C_7  and  C_8
REMARK    4  A    between atoms: N_11  and  C_12
REMARK                            x       y       z     vdW  Elec       q    Type
REMARK                         _______ _______ _______ _____ _____    ______ ____
ROOT
ATOM      1  C   UNL     1       6.184   4.327  13.831  0.00  0.00    +0.000 A 
ATOM      2  N   UNL     1       5.486   4.076  14.916  0.00  0.00    +0.000 NA
ATOM      3  C   UNL     1       6.136   4.836  15.863  0.00  0.00    +0.000 A 
ATOM      4  N   UNL     1       7.187   5.528  15.397  0.00  0.00    +0.000 NA
ATOM      5  O   UNL     1       7.223   5.188  14.044  0.00  0.00    +0.000 OA
ENDROOT
BRANCH   1   8
ATOM      6  C   UNL     1       6.166   1.909  10.963  0.00  0.00    +0.000 C 
ATOM      7  C   UNL     1       6.822   2.531  12.207  0.00  0.00    +0.000 C 
ATOM      8  C   UNL     1       6.012   3.823  12.444  0.00  0.00    +0.000 C 
ATOM      9  C   UNL     1       4.603   3.418  12.046  0.00  0.00    +0.000 C 
ATOM     10  C   UNL     1       4.116   3.519  10.625  0.00  0.00    +0.000 C 
ATOM     11  C   UNL     1       4.707   2.229  11.130  0.00  0.00    +0.000 C 
BRANCH   6  12
ATOM     12  N   UNL     1       6.377   0.477  10.896  0.00  0.00    +0.000 NA
ATOM     13  H   UNL     1       5.720   0.062  10.237  0.00  0.00    +0.000 HD
ATOM     14  H   UNL     1       6.170   0.063  11.804  0.00  0.00    +0.000 HD
ENDBRANCH   6  12
ENDBRANCH   1   8
BRANCH   3  15
ATOM     15  C   UNL     1       5.677   4.826  17.261  0.00  0.00    +0.000 A 
ATOM     16  C   UNL     1       6.320   5.551  18.284  0.00  0.00    +0.000 A 
ATOM     17  C   UNL     1       5.570   5.310  19.410  0.00  0.00    +0.000 A 
ATOM     18  N   UNL     1       4.533   4.483  19.038  0.00  0.00    +0.000 N 
ATOM     19  N   UNL     1       4.613   4.155  17.722  0.00  0.00    +0.000 NA
BRANCH  18  20
ATOM     20  C   UNL     1       3.461   4.011  19.849  0.00  0.00    +0.000 A 
ATOM     21  C   UNL     1       3.604   2.861  20.639  0.00  0.00    +0.000 A 
ATOM     22  C   UNL     1       2.556   2.440  21.462  0.00  0.00    +0.000 A 
ATOM     23  C   UNL     1       1.360   3.156  21.496  0.00  0.00    +0.000 A 
ATOM     24  C   UNL     1       1.205   4.290  20.703  0.00  0.00    +0.000 A 
ATOM     25  C   UNL     1       2.251   4.719  19.881  0.00  0.00    +0.000 A 
ENDBRANCH  18  20
ENDBRANCH   3  15
TORSDOF 4
ENDMDL
MODEL 3
REMARK VINA RESULT:      -8.0      5.090      6.979
REMARK  Name = 
REMARK  4 active torsions:
REMARK  status: ('A' for Active; 'I' for Inactive)
REMARK    1  A    between atoms: N_1  and  C_2
REMARK    2  A    between atoms: C_4  and  C_5
REMARK    3  A    between atoms: C_7  and  C_8
REMARK    4  A    between atoms: N_11  and  C_12
REMARK                            x       y       z     vdW  Elec       q    Type
REMARK                         _______ _______ _______ _____ _____    ______ ____
ROOT
ATOM      1  C   UNL     1       4.089   6.677  17.676  0.00  0.00    +0.000 A 
ATOM      2  N   UNL     1       3.421   7.804  17.587  0.00  0.00    +0.000 NA
ATOM      3  C   UNL     1       2.529   7.697  18.631  0.00  0.00    +0.000 A 
ATOM      4  N   UNL     1       2.633   6.562  19.338  0.00  0.00    +0.000 NA
ATOM      5  O   UNL     1       3.669   5.878  18.701  0.00  0.00    +0.000 OA
ENDROOT
BRANCH   1   8
ATOM      6  C   UNL     1       7.280   4.901  16.815  0.00  0.00    +0.000 C 
ATOM      7  C   UNL     1       6.453   5.849  17.698  0.00  0.00    +0.000 C 
ATOM      8  C   UNL     1       5.205   6.156  16.844  0.00  0.00    +0.000 C 
ATOM      9  C   UNL     1       4.952   4.840  16.128  0.00  0.00    +0.000 C 
ATOM     10  C   UNL     1       5.616   4.505  14.820  0.00  0.00    +0.000 C 
ATOM     11  C   UNL     1       6.243   4.067  16.117  0.00  0.00    +0.000 C 
BRANCH   6  12
ATOM     12  N   UNL     1       8.173   4.070  17.596  0.00  0.00    +0.000 NA
ATOM     13  H   UNL     1       9.105   4.082  17.184  0.00  0.00    +0.000 HD
ATOM     14  H   UNL     1       7.856   3.102  17.554  0.00  0.00    +0.000 HD
ENDBRANCH   6  12
ENDBRANCH   1   8
BRANCH   3  15
ATOM     15  C   UNL     1       1.552   8.769  18.882  0.00  0.00    +0.000 A 
ATOM     16  C   UNL     1       0.956   9.520  17.848  0.00  0.00    +0.000 A 
ATOM     17  C   UNL     1       0.091  10.373  18.489  0.00  0.00    +0.000 A 
ATOM     18  N   UNL     1       0.186  10.111  19.838  0.00  0.00    +0.000 N 
ATOM     19  N   UNL     1       1.109   9.146  20.088  0.00  0.00    +0.000 NA
BRANCH  18  20
ATOM     20  C   UNL     1      -0.564  10.702  20.895  0.00  0.00    +0.000 A 
ATOM     21  C   UNL     1      -0.499  10.192  22.201  0.00  0.00    +0.000 A 
ATOM     22  C   UNL     1      -1.208  10.813  23.233  0.00  0.00    +0.000 A 
ATOM     23  C   UNL     1      -1.988  11.938  22.970  0.00  0.00    +0.000 A 
ATOM     24  C   UNL     1      -2.069  12.440  21.673  0.00  0.00    +0.000 A 
ATOM     25  C   UNL     1      -1.361  11.827  20.637  0.00  0.00    +0.000 A 
ENDBRANCH  18  20
ENDBRANCH   3  15
TORSDOF 4
ENDMDL
MODEL 4
REMARK VINA RESULT:      -8.0      4.966      6.719
REMARK  Name = 
REMARK  4 active torsions:
REMARK  status: ('A' for Active; 'I' for Inactive)
REMARK    1  A    between atoms: N_1  and  C_2
REMARK    2  A    between atoms: C_4  and  C_5
REMARK    3  A    between atoms: C_7  and  C_8
REMARK    4  A    between atoms: N_11  and  C_12
REMARK                            x       y       z     vdW  Elec       q    Type
REMARK                         _______ _______ _______ _____ _____    ______ ____
ROOT
ATOM      1  C   UNL     1       4.064   6.552  17.400  0.00  0.00    +0.000 A 
ATOM      2  N   UNL     1       3.653   7.791  17.550  0.00  0.00    +0.000 NA
ATOM      3  C   UNL     1       2.550   7.636  18.360  0.00  0.00    +0.000 A 
ATOM      4  N   UNL     1       2.282   6.366  18.700  0.00  0.00    +0.000 NA
ATOM      5  O   UNL     1       3.287   5.642  18.058  0.00  0.00    +0.000 OA
ENDROOT
BRANCH   1   8
ATOM      6  C   UNL     1       7.324   4.813  16.750  0.00  0.00    +0.000 C 
ATOM      7  C   UNL     1       6.446   5.792  17.547  0.00  0.00    +0.000 C 
ATOM      8  C   UNL     1       5.219   6.011  16.637  0.00  0.00    +0.000 C 
ATOM      9  C   UNL     1       5.022   4.647  15.999  0.00  0.00    +0.000 C 
ATOM     10  C   UNL     1       5.736   4.248  14.735  0.00  0.00    +0.000 C 
ATOM     11  C   UNL     1       6.331   3.910  16.075  0.00  0.00    +0.000 C 
BRANCH   6  12
ATOM     12  N   UNL     1       8.213   4.057  17.609  0.00  0.00    +0.000 NA
ATOM     13  H   UNL     1       8.620   4.672  18.312  0.00  0.00    +0.000 HD
ATOM     14  H   UNL     1       8.992   3.701  17.057  0.00  0.00    +0.000 HD
ENDBRANCH   6  12
ENDBRANCH   1   8
BRANCH   3  15
ATOM     15  C   UNL     1       1.758   8.810  18.764  0.00  0.00    +0.000 A 
ATOM     16  C   UNL     1       1.476   9.880  17.892  0.00  0.00    +0.000 A 
ATOM     17  C   UNL     1       0.694  10.736  18.629  0.00  0.00    +0.000 A 
ATOM     18  N   UNL     1       0.531  10.167  19.874  0.00  0.00    +0.000 N 
ATOM     19  N   UNL     1       1.213   8.996  19.972  0.00  0.00    +0.000 NA
BRANCH  18  20
ATOM     20  C   UNL     1      -0.252  10.655  20.959  0.00  0.00    +0.000 A 
ATOM     21  C   UNL     1      -1.085  11.773  20.805  0.00  0.00    +0.000 A 
ATOM     22  C   UNL     1      -1.879  12.209  21.869  0.00  0.00    +0.000 A 
ATOM     23  C   UNL     1      -1.842  11.540  23.091  0.00  0.00    +0.000 A 
ATOM     24  C   UNL     1      -1.006  10.439  23.256  0.00  0.00    +0.000 A 
ATOM     25  C   UNL     1      -0.212   9.995  22.196  0.00  0.00    +0.000 A 
ENDBRANCH  18  20
ENDBRANCH   3  15
TORSDOF 4
ENDMDL
MODEL 5
REMARK VINA RESULT:      -7.9      4.584      6.518
REMARK  Name = 
REMARK  4 active torsions:
REMARK  status: ('A' for Active; 'I' for Inactive)
REMARK    1  A    between atoms: N_1  and  C_2
REMARK    2  A    between atoms: C_4  and  C_5
REMARK    3  A    between atoms: C_7  and  C_8
REMARK    4  A    between atoms: N_11  and  C_12
REMARK                            x       y       z     vdW  Elec       q    Type
REMARK                         _______ _______ _______ _____ _____    ______ ____
ROOT
ATOM      1  C   UNL     1       4.069   5.249  18.296  0.00  0.00    +0.000 A 
ATOM      2  N   UNL     1       3.767   6.525  18.216  0.00  0.00    +0.000 NA
ATOM      3  C   UNL     1       2.672   6.618  19.046  0.00  0.00    +0.000 A 
ATOM      4  N   UNL     1       2.305   5.461  19.616  0.00  0.00    +0.000 NA
ATOM      5  O   UNL     1       3.232   4.546  19.115  0.00  0.00    +0.000 OA
ENDROOT
BRANCH   1   8
ATOM      6  C   UNL     1       6.165   3.808  15.538  0.00  0.00    +0.000 C 
ATOM      7  C   UNL     1       4.805   4.135  16.177  0.00  0.00    +0.000 C 
ATOM      8  C   UNL     1       5.157   4.479  17.639  0.00  0.00    +0.000 C 
ATOM      9  C   UNL     1       6.495   5.187  17.509  0.00  0.00    +0.000 C 
ATOM     10  C   UNL     1       7.798   4.433  17.500  0.00  0.00    +0.000 C 
ATOM     11  C   UNL     1       7.112   4.767  16.202  0.00  0.00    +0.000 C 
BRANCH   6  12
ATOM     12  N   UNL     1       6.153   4.002  14.103  0.00  0.00    +0.000 NA
ATOM     13  H   UNL     1       5.206   4.207  13.790  0.00  0.00    +0.000 HD
ATOM     14  H   UNL     1       6.423   3.133  13.643  0.00  0.00    +0.000 HD
ENDBRANCH   6  12
ENDBRANCH   1   8
BRANCH   3  15
ATOM     15  C   UNL     1       1.991   7.910  19.230  0.00  0.00    +0.000 A 
ATOM     16  C   UNL     1       1.829   8.846  18.189  0.00  0.00    +0.000 A 
ATOM     17  C   UNL     1       1.120   9.880  18.753  0.00  0.00    +0.000 A 
ATOM     18  N   UNL     1       0.882   9.539  20.067  0.00  0.00    +0.000 N 
ATOM     19  N   UNL     1       1.445   8.341  20.375  0.00  0.00    +0.000 NA
BRANCH  18  20
ATOM     20  C   UNL     1       0.132  10.268  21.034  0.00  0.00    +0.000 A 
ATOM     21  C   UNL     1      -0.333  11.563  20.763  0.00  0.00    +0.000 A 
ATOM     22  C   UNL     1      -1.105  12.244  21.707  0.00  0.00    +0.000 A 
ATOM     23  C   UNL     1      -1.413  11.643  22.926  0.00  0.00    +0.000 A 
ATOM     24  C   UNL     1      -0.943  10.363  23.209  0.00  0.00    +0.000 A 
ATOM     25  C   UNL     1      -0.173   9.674  22.268  0.00  0.00    +0.000 A 
ENDBRANCH  18  20
ENDBRANCH   3  15
TORSDOF 4
ENDMDL
MODEL 6
REMARK VINA RESULT:      -7.8      4.645      6.646
REMARK  Name = 
REMARK  4 active torsions:
REMARK  status: ('A' for Active; 'I' for Inactive)
REMARK    1  A    between atoms: N_1  and  C_2
REMARK    2  A    between atoms: C_4  and  C_5
REMARK    3  A    between atoms: C_7  and  C_8
REMARK    4  A    between atoms: N_11  and  C_12
REMARK                            x       y       z     vdW  Elec       q    Type
REMARK                         _______ _______ _______ _____ _____    ______ ____
ROOT
ATOM      1  C   UNL     1       4.063   5.280  18.377  0.00  0.00    +0.000 A 
ATOM      2  N   UNL     1       3.726   6.542  18.239  0.00  0.00    +0.000 NA
ATOM      3  C   UNL     1       2.678   6.662  19.126  0.00  0.00    +0.000 A 
ATOM      4  N   UNL     1       2.373   5.534  19.783  0.00  0.00    +0.000 NA
ATOM      5  O   UNL     1       3.292   4.610  19.284  0.00  0.00    +0.000 OA
ENDROOT
BRANCH   1   8
ATOM      6  C   UNL     1       6.081   3.786  15.589  0.00  0.00    +0.000 C 
ATOM      7  C   UNL     1       4.739   4.130  16.257  0.00  0.00    +0.000 C 
ATOM      8  C   UNL     1       5.131   4.495  17.705  0.00  0.00    +0.000 C 
ATOM      9  C   UNL     1       6.468   5.194  17.528  0.00  0.00    +0.000 C 
ATOM     10  C   UNL     1       7.767   4.434  17.498  0.00  0.00    +0.000 C 
ATOM     11  C   UNL     1       7.049   4.751  16.213  0.00  0.00    +0.000 C 
BRANCH   6  12
ATOM     12  N   UNL     1       6.032   3.958  14.151  0.00  0.00    +0.000 NA
ATOM     13  H   UNL     1       6.973   3.909  13.766  0.00  0.00    +0.000 HD
ATOM     14  H   UNL     1       5.684   4.892  13.935  0.00  0.00    +0.000 HD
ENDBRANCH   6  12
ENDBRANCH   1   8
BRANCH   3  15
ATOM     15  C   UNL     1       1.977   7.948  19.272  0.00  0.00    +0.000 A 
ATOM     16  C   UNL     1       1.753   8.826  18.193  0.00  0.00    +0.000 A 
ATOM     17  C   UNL     1       1.046   9.873  18.733  0.00  0.00    +0.000 A 
ATOM     18  N   UNL     1       0.868   9.595  20.071  0.00  0.00    +0.000 N 
ATOM     19  N   UNL     1       1.469   8.426  20.416  0.00  0.00    +0.000 NA
BRANCH  18  20
ATOM     20  C   UNL     1       0.141  10.358  21.030  0.00  0.00    +0.000 A 
ATOM     21  C   UNL     1      -0.350   9.766  22.203  0.00  0.00    +0.000 A 
ATOM     22  C   UNL     1      -1.021  10.541  23.153  0.00  0.00    +0.000 A 
ATOM     23  C   UNL     1      -1.212  11.905  22.936  0.00  0.00    +0.000 A 
ATOM     24  C   UNL     1      -0.740  12.497  21.768  0.00  0.00    +0.000 A 
ATOM     25  C   UNL     1      -0.064  11.729  20.816  0.00  0.00    +0.000 A 
ENDBRANCH  18  20
ENDBRANCH   3  15
TORSDOF 4
ENDMDL
MODEL 7
REMARK VINA RESULT:      -7.8      4.584      7.689
REMARK  Name = 
REMARK  4 active torsions:
REMARK  status: ('A' for Active; 'I' for Inactive)
REMARK    1  A    between atoms: N_1  and  C_2
REMARK    2  A    between atoms: C_4  and  C_5
REMARK    3  A    between atoms: C_7  and  C_8
REMARK    4  A    between atoms: N_11  and  C_12
REMARK                            x       y       z     vdW  Elec       q    Type
REMARK                         _______ _______ _______ _____ _____    ______ ____
ROOT
ATOM      1  C   UNL     1       8.416   8.940  18.086  0.00  0.00    +0.000 A 
ATOM      2  N   UNL     1       7.399   8.499  17.381  0.00  0.00    +0.000 NA
ATOM      3  C   UNL     1       7.236   7.222  17.872  0.00  0.00    +0.000 A 
ATOM      4  N   UNL     1       8.107   6.880  18.834  0.00  0.00    +0.000 NA
ATOM      5  O   UNL     1       8.896   8.022  18.975  0.00  0.00    +0.000 OA
ENDROOT
BRANCH   1   8
ATOM      6  C   UNL     1       8.840  12.668  18.094  0.00  0.00    +0.000 C 
ATOM      7  C   UNL     1       8.148  11.384  17.607  0.00  0.00    +0.000 C 
ATOM      8  C   UNL     1       9.103  10.257  18.054  0.00  0.00    +0.000 C 
ATOM      9  C   UNL     1       9.633  10.769  19.383  0.00  0.00    +0.000 C 
ATOM     10  C   UNL     1      10.842  11.662  19.467  0.00  0.00    +0.000 C 
ATOM     11  C   UNL     1       9.464  12.265  19.400  0.00  0.00    +0.000 C 
BRANCH   6  12
ATOM     12  N   UNL     1       7.900  13.754  18.282  0.00  0.00    +0.000 NA
ATOM     13  H   UNL     1       8.312  14.467  18.882  0.00  0.00    +0.000 HD
ATOM     14  H   UNL     1       7.078  13.407  18.775  0.00  0.00    +0.000 HD
ENDBRANCH   6  12
ENDBRANCH   1   8
BRANCH   3  15
ATOM     15  C   UNL     1       6.187   6.347  17.324  0.00  0.00    +0.000 A 
ATOM     16  C   UNL     1       6.056   6.078  15.947  0.00  0.00    +0.000 A 
ATOM     17  C   UNL     1       5.000   5.203  15.860  0.00  0.00    +0.000 A 
ATOM     18  N   UNL     1       4.552   4.977  17.144  0.00  0.00    +0.000 N 
ATOM     19  N   UNL     1       5.259   5.706  18.047  0.00  0.00    +0.000 NA
BRANCH  18  20
ATOM     20  C   UNL     1       3.516   4.094  17.562  0.00  0.00    +0.000 A 
ATOM     21  C   UNL     1       3.768   2.730  17.772  0.00  0.00    +0.000 A 
ATOM     22  C   UNL     1       2.748   1.890  18.226  0.00  0.00    +0.000 A 
ATOM     23  C   UNL     1       1.474   2.400  18.466  0.00  0.00    +0.000 A 
ATOM     24  C   UNL     1       1.212   3.750  18.246  0.00  0.00    +0.000 A 
ATOM     25  C   UNL     1       2.227   4.597  17.796  0.00  0.00    +0.000 A 
ENDBRANCH  18  20
ENDBRANCH   3  15
TORSDOF 4
ENDMDL
MODEL 8
REMARK VINA RESULT:      -7.8      4.588      7.601
REMARK  Name = 
REMARK  4 active torsions:
REMARK  status: ('A' for Active; 'I' for Inactive)
REMARK    1  A    between atoms: N_1  and  C_2
REMARK    2  A    between atoms: C_4  and  C_5
REMARK    3  A    between atoms: C_7  and  C_8
REMARK    4  A    between atoms: N_11  and  C_12
REMARK                            x       y       z     vdW  Elec       q    Type
REMARK                         _______ _______ _______ _____ _____    ______ ____
ROOT
ATOM      1  C   UNL     1       8.408   8.953  18.023  0.00  0.00    +0.000 A 
ATOM      2  N   UNL     1       7.411   8.468  17.319  0.00  0.00    +0.000 NA
ATOM      3  C   UNL     1       7.252   7.213  17.865  0.00  0.00    +0.000 A 
ATOM      4  N   UNL     1       8.105   6.926  18.859  0.00  0.00    +0.000 NA
ATOM      5  O   UNL     1       8.879   8.082  18.964  0.00  0.00    +0.000 OA
ENDROOT
BRANCH   1   8
ATOM      6  C   UNL     1       8.805  12.683  18.018  0.00  0.00    +0.000 C 
ATOM      7  C   UNL     1       8.087  11.397  17.579  0.00  0.00    +0.000 C 
ATOM      8  C   UNL     1       9.082  10.275  17.946  0.00  0.00    +0.000 C 
ATOM      9  C   UNL     1       9.708  10.785  19.233  0.00  0.00    +0.000 C 
ATOM     10  C   UNL     1      10.914  11.687  19.228  0.00  0.00    +0.000 C 
ATOM     11  C   UNL     1       9.531  12.279  19.270  0.00  0.00    +0.000 C 
BRANCH   6  12
ATOM     12  N   UNL     1       7.875  13.762  18.284  0.00  0.00    +0.000 NA
ATOM     13  H   UNL     1       7.333  13.966  17.446  0.00  0.00    +0.000 HD
ATOM     14  H   UNL     1       8.396  14.611  18.499  0.00  0.00    +0.000 HD
ENDBRANCH   6  12
ENDBRANCH   1   8
BRANCH   3  15
ATOM     15  C   UNL     1       6.224   6.302  17.336  0.00  0.00    +0.000 A 
ATOM     16  C   UNL     1       6.165   5.917  15.981  0.00  0.00    +0.000 A 
ATOM     17  C   UNL     1       5.105   5.045  15.910  0.00  0.00    +0.000 A 
ATOM     18  N   UNL     1       4.586   4.932  17.182  0.00  0.00    +0.000 N 
ATOM     19  N   UNL     1       5.252   5.730  18.058  0.00  0.00    +0.000 NA
BRANCH  18  20
ATOM     20  C   UNL     1       3.519   4.094  17.616  0.00  0.00    +0.000 A 
ATOM     21  C   UNL     1       2.257   4.628  17.916  0.00  0.00    +0.000 A 
ATOM     22  C   UNL     1       1.211   3.784  18.297  0.00  0.00    +0.000 A 
ATOM     23  C   UNL     1       1.417   2.409  18.388  0.00  0.00    +0.000 A 
ATOM     24  C   UNL     1       2.671   1.873  18.106  0.00  0.00    +0.000 A 
ATOM     25  C   UNL     1       3.721   2.710  17.721  0.00  0.00    +0.000 A 
ENDBRANCH  18  20
ENDBRANCH   3  15
TORSDOF 4
ENDMDL
MODEL 9
REMARK VINA RESULT:      -7.7      5.071      7.378
REMARK  Name = 
REMARK  4 active torsions:
REMARK  status: ('A' for Active; 'I' for Inactive)
REMARK    1  A    between atoms: N_1  and  C_2
REMARK    2  A    between atoms: C_4  and  C_5
REMARK    3  A    between atoms: C_7  and  C_8
REMARK    4  A    between atoms: N_11  and  C_12
REMARK                            x       y       z     vdW  Elec       q    Type
REMARK                         _______ _______ _______ _____ _____    ______ ____
ROOT
ATOM      1  C   UNL     1       2.967   5.542  18.159  0.00  0.00    +0.000 A 
ATOM      2  N   UNL     1       2.117   6.356  18.743  0.00  0.00    +0.000 NA
ATOM      3  C   UNL     1       2.544   7.589  18.300  0.00  0.00    +0.000 A 
ATOM      4  N   UNL     1       3.606   7.550  17.482  0.00  0.00    +0.000 NA
ATOM      5  O   UNL     1       3.892   6.188  17.389  0.00  0.00    +0.000 OA
ENDROOT
BRANCH   1   8
ATOM      6  C   UNL     1       4.151   2.153  19.247  0.00  0.00    +0.000 C 
ATOM      7  C   UNL     1       4.412   3.606  18.820  0.00  0.00    +0.000 C 
ATOM      8  C   UNL     1       3.067   4.061  18.214  0.00  0.00    +0.000 C 
ATOM      9  C   UNL     1       2.045   3.351  19.087  0.00  0.00    +0.000 C 
ATOM     10  C   UNL     1       1.571   1.955  18.783  0.00  0.00    +0.000 C 
ATOM     11  C   UNL     1       2.726   2.171  19.725  0.00  0.00    +0.000 C 
BRANCH   6  12
ATOM     12  N   UNL     1       5.046   1.727  20.303  0.00  0.00    +0.000 NA
ATOM     13  H   UNL     1       4.671   0.897  20.760  0.00  0.00    +0.000 HD
ATOM     14  H   UNL     1       5.091   2.451  21.020  0.00  0.00    +0.000 HD
ENDBRANCH   6  12
ENDBRANCH   1   8
BRANCH   3  15
ATOM     15  C   UNL     1       1.858   8.812  18.747  0.00  0.00    +0.000 A 
ATOM     16  C   UNL     1       1.737   9.961  17.940  0.00  0.00    +0.000 A 
ATOM     17  C   UNL     1       1.009  10.847  18.698  0.00  0.00    +0.000 A 
ATOM     18  N   UNL     1       0.720  10.220  19.890  0.00  0.00    +0.000 N 
ATOM     19  N   UNL     1       1.269   8.978  19.939  0.00  0.00    +0.000 NA
BRANCH  18  20
ATOM     20  C   UNL     1      -0.065  10.719  20.969  0.00  0.00    +0.000 A 
ATOM     21  C   UNL     1      -0.733  11.948  20.869  0.00  0.00    +0.000 A 
ATOM     22  C   UNL     1      -1.535  12.398  21.922  0.00  0.00    +0.000 A 
ATOM     23  C   UNL     1      -1.670  11.632  23.078  0.00  0.00    +0.000 A 
ATOM     24  C   UNL     1      -0.998  10.417  23.190  0.00  0.00    +0.000 A 
ATOM     25  C   UNL     1      -0.198   9.959  22.140  0.00  0.00    +0.000 A 
ENDBRANCH  18  20
ENDBRANCH   3  15
TORSDOF 4
ENDMDL
