MODEL 1
REMARK VINA RESULT:      -8.7      0.000      0.000
REMARK  Name = 
REMARK  7 active torsions:
REMARK  status: ('A' for Active; 'I' for Inactive)
REMARK    1  A    between atoms: C_1  and  C_2
REMARK    2  A    between atoms: C_6  and  O_7
REMARK    3  A    between atoms: O_7  and  C_8
REMARK    4  A    between atoms: C_11  and  N_12
REMARK    5  A    between atoms: C_13  and  C_15
REMARK    6  A    between atoms: C_19  and  C_20
REMARK    7  A    between atoms: C_20  and  N_21
REMARK                            x       y       z     vdW  Elec       q    Type
REMARK                         _______ _______ _______ _____ _____    ______ ____
ROOT
ATOM      1  N   UNL     1       1.816   7.924  19.946  0.00  0.00    +0.000 N 
ATOM      2  C   UNL     1       2.241   8.133  18.644  0.00  0.00    +0.000 C 
ATOM      3  O   UNL     1       2.036   9.126  17.953  0.00  0.00    +0.000 OA
ATOM      4  H   UNL     1       1.998   7.019  20.358  0.00  0.00    +0.000 HD
ENDROOT
BRANCH   1   8
ATOM      5  C   UNL     1      -0.468  10.501  22.418  0.00  0.00    +0.000 A 
ATOM      6  C   UNL     1      -0.562  10.613  21.031  0.00  0.00    +0.000 A 
ATOM      7  C   UNL     1       0.168   9.757  20.201  0.00  0.00    +0.000 A 
ATOM      8  C   UNL     1       1.055   8.822  20.734  0.00  0.00    +0.000 A 
ATOM      9  C   UNL     1       1.205   8.767  22.126  0.00  0.00    +0.000 A 
ATOM     10  C   UNL     1       0.446   9.601  22.963  0.00  0.00    +0.000 A 
BRANCH   5  11
ATOM     11  O   UNL     1      -1.194  11.263  23.307  0.00  0.00    +0.000 OA
BRANCH  11  17
ATOM     12  C   UNL     1      -5.059  13.951  22.022  0.00  0.00    +0.000 C 
ATOM     13  C   UNL     1      -3.589  13.847  22.302  0.00  0.00    +0.000 A 
ATOM     14  C   UNL     1      -2.759  14.967  22.179  0.00  0.00    +0.000 A 
ATOM     15  C   UNL     1      -1.384  14.852  22.381  0.00  0.00    +0.000 A 
ATOM     16  C   UNL     1      -0.828  13.617  22.717  0.00  0.00    +0.000 A 
ATOM     17  C   UNL     1      -1.653  12.508  22.926  0.00  0.00    +0.000 A 
ATOM     18  C   UNL     1      -3.026  12.620  22.687  0.00  0.00    +0.000 A 
ENDBRANCH  11  17
ENDBRANCH   5  11
ENDBRANCH   1   8
BRANCH   2  19
ATOM     19  C   UNL     1       2.970   7.000  18.008  0.00  0.00    +0.000 A 
ATOM     20  C   UNL     1       4.086   7.308  17.219  0.00  0.00    +0.000 A 
ATOM     21  C   UNL     1       4.801   6.298  16.582  0.00  0.00    +0.000 A 
ATOM     22  C   UNL     1       4.417   4.970  16.748  0.00  0.00    +0.000 A 
ATOM     23  C   UNL     1       3.333   4.635  17.577  0.00  0.00    +0.000 A 
ATOM     24  C   UNL     1       2.606   5.661  18.205  0.00  0.00    +0.000 A 
BRANCH  23  25
ATOM     25  C   UNL     1       3.021   3.183  17.856  0.00  0.00    +0.000 C 
BRANCH  25  26
ATOM     26  N   UNL     1       2.644   2.964  19.241  0.00  0.00    +0.000 N 
ATOM     27  C   UNL     1       1.281   2.735  19.655  0.00  0.00    +0.000 C 
ATOM     28  C   UNL     1       1.368   2.762  21.168  0.00  0.00    +0.000 C 
ATOM     29  C   UNL     1       2.762   2.219  21.455  0.00  0.00    +0.000 C 
ATOM     30  C   UNL     1       3.550   2.639  20.238  0.00  0.00    +0.000 C 
ATOM     31  O   UNL     1       4.766   2.633  20.143  0.00  0.00    +0.000 OA
ENDBRANCH  25  26
ENDBRANCH  23  25
ENDBRANCH   2  19
TORSDOF 6
ENDMDL
MODEL 2
REMARK VINA RESULT:      -8.7      0.875      1.121
REMARK  Name = 
REMARK  7 active torsions:
REMARK  status: ('A' for Active; 'I' for Inactive)
REMARK    1  A    between atoms: C_1  and  C_2
REMARK    2  A    between atoms: C_6  and  O_7
REMARK    3  A    between atoms: O_7  and  C_8
REMARK    4  A    between atoms: C_11  and  N_12
REMARK    5  A    between atoms: C_13  and  C_15
REMARK    6  A    between atoms: C_19  and  C_20
REMARK    7  A    between atoms: C_20  and  N_21
REMARK                            x       y       z     vdW  Elec       q    Type
REMARK                         _______ _______ _______ _____ _____    ______ ____
ROOT
ATOM      1  N   UNL     1       1.854   7.862  19.914  0.00  0.00    +0.000 N 
ATOM      2  C   UNL     1       2.265   8.075  18.608  0.00  0.00    +0.000 C 
ATOM      3  O   UNL     1       2.011   9.048  17.906  0.00  0.00    +0.000 OA
ATOM      4  H   UNL     1       2.079   6.972  20.337  0.00  0.00    +0.000 HD
ENDROOT
BRANCH   1   8
ATOM      5  C   UNL     1      -0.539  10.363  22.362  0.00  0.00    +0.000 A 
ATOM      6  C   UNL     1      -0.673  10.423  20.976  0.00  0.00    +0.000 A 
ATOM      7  C   UNL     1       0.092   9.590  20.153  0.00  0.00    +0.000 A 
ATOM      8  C   UNL     1       1.053   8.734  20.693  0.00  0.00    +0.000 A 
ATOM      9  C   UNL     1       1.240   8.735  22.081  0.00  0.00    +0.000 A 
ATOM     10  C   UNL     1       0.447   9.544  22.911  0.00  0.00    +0.000 A 
BRANCH   5  11
ATOM     11  O   UNL     1      -1.293  11.105  23.245  0.00  0.00    +0.000 OA
BRANCH  11  17
ATOM     12  C   UNL     1      -4.927  14.198  22.232  0.00  0.00    +0.000 C 
ATOM     13  C   UNL     1      -3.464  13.943  22.437  0.00  0.00    +0.000 A 
ATOM     14  C   UNL     1      -2.535  14.980  22.310  0.00  0.00    +0.000 A 
ATOM     15  C   UNL     1      -1.169  14.725  22.441  0.00  0.00    +0.000 A 
ATOM     16  C   UNL     1      -0.723  13.431  22.712  0.00  0.00    +0.000 A 
ATOM     17  C   UNL     1      -1.643  12.401  22.925  0.00  0.00    +0.000 A 
ATOM     18  C   UNL     1      -3.008  12.653  22.757  0.00  0.00    +0.000 A 
ENDBRANCH  11  17
ENDBRANCH   5  11
ENDBRANCH   1   8
BRANCH   2  19
ATOM     19  C   UNL     1       3.045   6.969  17.984  0.00  0.00    +0.000 A 
ATOM     20  C   UNL     1       4.193   7.314  17.258  0.00  0.00    +0.000 A 
ATOM     21  C   UNL     1       4.956   6.331  16.636  0.00  0.00    +0.000 A 
ATOM     22  C   UNL     1       4.589   4.993  16.754  0.00  0.00    +0.000 A 
ATOM     23  C   UNL     1       3.472   4.620  17.521  0.00  0.00    +0.000 A 
ATOM     24  C   UNL     1       2.696   5.620  18.133  0.00  0.00    +0.000 A 
BRANCH  23  25
ATOM     25  C   UNL     1       3.173   3.157  17.752  0.00  0.00    +0.000 C 
BRANCH  25  26
ATOM     26  N   UNL     1       2.654   2.913  19.086  0.00  0.00    +0.000 N 
ATOM     27  C   UNL     1       3.389   3.237  20.285  0.00  0.00    +0.000 C 
ATOM     28  C   UNL     1       2.543   2.632  21.386  0.00  0.00    +0.000 C 
ATOM     29  C   UNL     1       1.122   2.740  20.846  0.00  0.00    +0.000 C 
ATOM     30  C   UNL     1       1.318   2.656  19.351  0.00  0.00    +0.000 C 
ATOM     31  O   UNL     1       0.439   2.456  18.530  0.00  0.00    +0.000 OA
ENDBRANCH  25  26
ENDBRANCH  23  25
ENDBRANCH   2  19
TORSDOF 6
ENDMDL
MODEL 3
REMARK VINA RESULT:      -8.7      5.965     10.678
REMARK  Name = 
REMARK  7 active torsions:
REMARK  status: ('A' for Active; 'I' for Inactive)
REMARK    1  A    between atoms: C_1  and  C_2
REMARK    2  A    between atoms: C_6  and  O_7
REMARK    3  A    between atoms: O_7  and  C_8
REMARK    4  A    between atoms: C_11  and  N_12
REMARK    5  A    between atoms: C_13  and  C_15
REMARK    6  A    between atoms: C_19  and  C_20
REMARK    7  A    between atoms: C_20  and  N_21
REMARK                            x       y       z     vdW  Elec       q    Type
REMARK                         _______ _______ _______ _____ _____    ______ ____
ROOT
ATOM      1  N   UNL     1       8.443   9.321  17.758  0.00  0.00    +0.000 N 
ATOM      2  C   UNL     1       9.057  10.115  18.714  0.00  0.00    +0.000 C 
ATOM      3  O   UNL     1       9.241   9.837  19.894  0.00  0.00    +0.000 OA
ATOM      4  H   UNL     1       8.295   9.721  16.843  0.00  0.00    +0.000 HD
ENDROOT
BRANCH   1   8
ATOM      5  C   UNL     1       6.689   5.505  18.332  0.00  0.00    +0.000 A 
ATOM      6  C   UNL     1       7.783   5.884  19.107  0.00  0.00    +0.000 A 
ATOM      7  C   UNL     1       8.361   7.147  18.947  0.00  0.00    +0.000 A 
ATOM      8  C   UNL     1       7.905   8.027  17.965  0.00  0.00    +0.000 A 
ATOM      9  C   UNL     1       6.856   7.610  17.135  0.00  0.00    +0.000 A 
ATOM     10  C   UNL     1       6.250   6.356  17.318  0.00  0.00    +0.000 A 
BRANCH   5  11
ATOM     11  O   UNL     1       6.025   4.305  18.465  0.00  0.00    +0.000 OA
BRANCH  11  17
ATOM     12  C   UNL     1       1.804   5.538  20.578  0.00  0.00    +0.000 C 
ATOM     13  C   UNL     1       2.545   4.905  19.438  0.00  0.00    +0.000 A 
ATOM     14  C   UNL     1       1.850   4.327  18.370  0.00  0.00    +0.000 A 
ATOM     15  C   UNL     1       2.542   3.686  17.343  0.00  0.00    +0.000 A 
ATOM     16  C   UNL     1       3.936   3.627  17.370  0.00  0.00    +0.000 A 
ATOM     17  C   UNL     1       4.647   4.271  18.385  0.00  0.00    +0.000 A 
ATOM     18  C   UNL     1       3.949   4.881  19.432  0.00  0.00    +0.000 A 
ENDBRANCH  11  17
ENDBRANCH   5  11
ENDBRANCH   1   8
BRANCH   2  19
ATOM     19  C   UNL     1       9.477  11.470  18.260  0.00  0.00    +0.000 A 
ATOM     20  C   UNL     1      10.760  11.601  17.711  0.00  0.00    +0.000 A 
ATOM     21  C   UNL     1      11.221  12.843  17.283  0.00  0.00    +0.000 A 
ATOM     22  C   UNL     1      10.394  13.958  17.382  0.00  0.00    +0.000 A 
ATOM     23  C   UNL     1       9.085  13.840  17.880  0.00  0.00    +0.000 A 
ATOM     24  C   UNL     1       8.632  12.586  18.325  0.00  0.00    +0.000 A 
BRANCH  23  25
ATOM     25  C   UNL     1       8.158  15.032  17.847  0.00  0.00    +0.000 C 
BRANCH  25  26
ATOM     26  N   UNL     1       7.214  15.016  18.951  0.00  0.00    +0.000 N 
ATOM     27  C   UNL     1       7.575  15.393  20.296  0.00  0.00    +0.000 C 
ATOM     28  C   UNL     1       6.343  15.033  21.100  0.00  0.00    +0.000 C 
ATOM     29  C   UNL     1       5.199  15.244  20.117  0.00  0.00    +0.000 C 
ATOM     30  C   UNL     1       5.839  14.956  18.781  0.00  0.00    +0.000 C 
ATOM     31  O   UNL     1       5.244  14.765  17.734  0.00  0.00    +0.000 OA
ENDBRANCH  25  26
ENDBRANCH  23  25
ENDBRANCH   2  19
TORSDOF 6
ENDMDL
MODEL 4
REMARK VINA RESULT:      -8.7      2.181      3.693
REMARK  Name = 
REMARK  7 active torsions:
REMARK  status: ('A' for Active; 'I' for Inactive)
REMARK    1  A    between atoms: C_1  and  C_2
REMARK    2  A    between atoms: C_6  and  O_7
REMARK    3  A    between atoms: O_7  and  C_8
REMARK    4  A    between atoms: C_11  and  N_12
REMARK    5  A    between atoms: C_13  and  C_15
REMARK    6  A    between atoms: C_19  and  C_20
REMARK    7  A    between atoms: C_20  and  N_21
REMARK                            x       y       z     vdW  Elec       q    Type
REMARK                         _______ _______ _______ _____ _____    ______ ____
ROOT
ATOM      1  N   UNL     1       1.932   7.338  19.282  0.00  0.00    +0.000 N 
ATOM      2  C   UNL     1       1.890   6.059  19.814  0.00  0.00    +0.000 C 
ATOM      3  O   UNL     1       1.473   5.735  20.921  0.00  0.00    +0.000 OA
ATOM      4  H   UNL     1       2.377   7.457  18.384  0.00  0.00    +0.000 HD
ENDROOT
BRANCH   1   8
ATOM      5  C   UNL     1       0.545  10.802  21.294  0.00  0.00    +0.000 A 
ATOM      6  C   UNL     1       0.903  10.883  19.949  0.00  0.00    +0.000 A 
ATOM      7  C   UNL     1       1.342   9.746  19.264  0.00  0.00    +0.000 A 
ATOM      8  C   UNL     1       1.499   8.525  19.922  0.00  0.00    +0.000 A 
ATOM      9  C   UNL     1       1.213   8.469  21.293  0.00  0.00    +0.000 A 
ATOM     10  C   UNL     1       0.738   9.601  21.975  0.00  0.00    +0.000 A 
BRANCH   5  11
ATOM     11  O   UNL     1       0.049  11.858  22.027  0.00  0.00    +0.000 OA
BRANCH  11  17
ATOM     12  C   UNL     1      -4.114  12.411  24.511  0.00  0.00    +0.000 C 
ATOM     13  C   UNL     1      -3.365  12.456  23.212  0.00  0.00    +0.000 A 
ATOM     14  C   UNL     1      -4.020  12.797  22.024  0.00  0.00    +0.000 A 
ATOM     15  C   UNL     1      -3.333  12.777  20.810  0.00  0.00    +0.000 A 
ATOM     16  C   UNL     1      -1.984  12.427  20.776  0.00  0.00    +0.000 A 
ATOM     17  C   UNL     1      -1.295  12.165  21.963  0.00  0.00    +0.000 A 
ATOM     18  C   UNL     1      -1.995  12.150  23.174  0.00  0.00    +0.000 A 
ENDBRANCH  11  17
ENDBRANCH   5  11
ENDBRANCH   1   8
BRANCH   2  19
ATOM     19  C   UNL     1       2.474   4.983  18.964  0.00  0.00    +0.000 A 
ATOM     20  C   UNL     1       1.702   3.832  18.755  0.00  0.00    +0.000 A 
ATOM     21  C   UNL     1       2.196   2.782  17.985  0.00  0.00    +0.000 A 
ATOM     22  C   UNL     1       3.456   2.886  17.402  0.00  0.00    +0.000 A 
ATOM     23  C   UNL     1       4.224   4.053  17.555  0.00  0.00    +0.000 A 
ATOM     24  C   UNL     1       3.726   5.103  18.346  0.00  0.00    +0.000 A 
BRANCH  23  25
ATOM     25  C   UNL     1       5.524   4.202  16.800  0.00  0.00    +0.000 C 
BRANCH  25  26
ATOM     26  N   UNL     1       6.355   5.258  17.351  0.00  0.00    +0.000 N 
ATOM     27  C   UNL     1       7.425   5.006  18.285  0.00  0.00    +0.000 C 
ATOM     28  C   UNL     1       7.851   6.397  18.708  0.00  0.00    +0.000 C 
ATOM     29  C   UNL     1       7.583   7.245  17.471  0.00  0.00    +0.000 C 
ATOM     30  C   UNL     1       6.424   6.534  16.814  0.00  0.00    +0.000 C 
ATOM     31  O   UNL     1       5.720   6.991  15.929  0.00  0.00    +0.000 OA
ENDBRANCH  25  26
ENDBRANCH  23  25
ENDBRANCH   2  19
TORSDOF 6
ENDMDL
MODEL 5
REMARK VINA RESULT:      -8.7      1.325      1.853
REMARK  Name = 
REMARK  7 active torsions:
REMARK  status: ('A' for Active; 'I' for Inactive)
REMARK    1  A    between atoms: C_1  and  C_2
REMARK    2  A    between atoms: C_6  and  O_7
REMARK    3  A    between atoms: O_7  and  C_8
REMARK    4  A    between atoms: C_11  and  N_12
REMARK    5  A    between atoms: C_13  and  C_15
REMARK    6  A    between atoms: C_19  and  C_20
REMARK    7  A    between atoms: C_20  and  N_21
REMARK                            x       y       z     vdW  Elec       q    Type
REMARK                         _______ _______ _______ _____ _____    ______ ____
ROOT
ATOM      1  N   UNL     1       1.355   8.731  19.327  0.00  0.00    +0.000 N 
ATOM      2  C   UNL     1       2.079   8.688  18.146  0.00  0.00    +0.000 C 
ATOM      3  O   UNL     1       2.181   9.583  17.313  0.00  0.00    +0.000 OA
ATOM      4  H   UNL     1       1.303   7.884  19.875  0.00  0.00    +0.000 HD
ENDROOT
BRANCH   1   8
ATOM      5  C   UNL     1      -0.984  12.031  20.593  0.00  0.00    +0.000 A 
ATOM      6  C   UNL     1       0.150  11.671  21.319  0.00  0.00    +0.000 A 
ATOM      7  C   UNL     1       0.945  10.599  20.904  0.00  0.00    +0.000 A 
ATOM      8  C   UNL     1       0.588   9.823  19.800  0.00  0.00    +0.000 A 
ATOM      9  C   UNL     1      -0.596  10.140  19.122  0.00  0.00    +0.000 A 
ATOM     10  C   UNL     1      -1.377  11.239  19.515  0.00  0.00    +0.000 A 
BRANCH   5  11
ATOM     11  O   UNL     1      -1.790  13.107  20.899  0.00  0.00    +0.000 OA
BRANCH  11  17
ATOM     12  C   UNL     1      -6.615  13.072  21.617  0.00  0.00    +0.000 C 
ATOM     13  C   UNL     1      -5.224  12.926  22.159  0.00  0.00    +0.000 A 
ATOM     14  C   UNL     1      -5.013  12.650  23.514  0.00  0.00    +0.000 A 
ATOM     15  C   UNL     1      -3.717  12.576  24.025  0.00  0.00    +0.000 A 
ATOM     16  C   UNL     1      -2.622  12.766  23.182  0.00  0.00    +0.000 A 
ATOM     17  C   UNL     1      -2.815  12.959  21.811  0.00  0.00    +0.000 A 
ATOM     18  C   UNL     1      -4.115  13.069  21.309  0.00  0.00    +0.000 A 
ENDBRANCH  11  17
ENDBRANCH   5  11
ENDBRANCH   1   8
BRANCH   2  19
ATOM     19  C   UNL     1       2.746   7.392  17.840  0.00  0.00    +0.000 A 
ATOM     20  C   UNL     1       4.068   7.437  17.375  0.00  0.00    +0.000 A 
ATOM     21  C   UNL     1       4.743   6.263  17.054  0.00  0.00    +0.000 A 
ATOM     22  C   UNL     1       4.109   5.035  17.216  0.00  0.00    +0.000 A 
ATOM     23  C   UNL     1       2.803   4.964  17.730  0.00  0.00    +0.000 A 
ATOM     24  C   UNL     1       2.121   6.154  18.038  0.00  0.00    +0.000 A 
BRANCH  23  25
ATOM     25  C   UNL     1       2.187   3.617  18.031  0.00  0.00    +0.000 C 
BRANCH  25  26
ATOM     26  N   UNL     1       2.159   3.338  19.456  0.00  0.00    +0.000 N 
ATOM     27  C   UNL     1       0.934   3.248  20.213  0.00  0.00    +0.000 C 
ATOM     28  C   UNL     1       1.418   3.144  21.645  0.00  0.00    +0.000 C 
ATOM     29  C   UNL     1       2.748   2.410  21.521  0.00  0.00    +0.000 C 
ATOM     30  C   UNL     1       3.240   2.825  20.155  0.00  0.00    +0.000 C 
ATOM     31  O   UNL     1       4.374   2.675  19.734  0.00  0.00    +0.000 OA
ENDBRANCH  25  26
ENDBRANCH  23  25
ENDBRANCH   2  19
TORSDOF 6
ENDMDL
MODEL 6
REMARK VINA RESULT:      -8.6      2.208      3.827
REMARK  Name = 
REMARK  7 active torsions:
REMARK  status: ('A' for Active; 'I' for Inactive)
REMARK    1  A    between atoms: C_1  and  C_2
REMARK    2  A    between atoms: C_6  and  O_7
REMARK    3  A    between atoms: O_7  and  C_8
REMARK    4  A    between atoms: C_11  and  N_12
REMARK    5  A    between atoms: C_13  and  C_15
REMARK    6  A    between atoms: C_19  and  C_20
REMARK    7  A    between atoms: C_20  and  N_21
REMARK                            x       y       z     vdW  Elec       q    Type
REMARK                         _______ _______ _______ _____ _____    ______ ____
ROOT
ATOM      1  N   UNL     1       2.043   7.118  19.369  0.00  0.00    +0.000 N 
ATOM      2  C   UNL     1       1.915   5.822  19.844  0.00  0.00    +0.000 C 
ATOM      3  O   UNL     1       1.373   5.471  20.887  0.00  0.00    +0.000 OA
ATOM      4  H   UNL     1       2.585   7.257  18.528  0.00  0.00    +0.000 HD
ENDROOT
BRANCH   1   8
ATOM      5  C   UNL     1       0.707  10.721  21.158  0.00  0.00    +0.000 A 
ATOM      6  C   UNL     1       0.885   9.585  21.946  0.00  0.00    +0.000 A 
ATOM      7  C   UNL     1       1.345   8.394  21.377  0.00  0.00    +0.000 A 
ATOM      8  C   UNL     1       1.570   8.293  20.003  0.00  0.00    +0.000 A 
ATOM      9  C   UNL     1       1.314   9.415  19.204  0.00  0.00    +0.000 A 
ATOM     10  C   UNL     1       0.887  10.623  19.779  0.00  0.00    +0.000 A 
BRANCH   5  11
ATOM     11  O   UNL     1       0.313  11.948  21.648  0.00  0.00    +0.000 OA
BRANCH  11  17
ATOM     12  C   UNL     1      -4.171  12.738  19.895  0.00  0.00    +0.000 C 
ATOM     13  C   UNL     1      -3.253  12.548  21.066  0.00  0.00    +0.000 A 
ATOM     14  C   UNL     1      -3.748  12.596  22.374  0.00  0.00    +0.000 A 
ATOM     15  C   UNL     1      -2.880  12.480  23.460  0.00  0.00    +0.000 A 
ATOM     16  C   UNL     1      -1.513  12.305  23.248  0.00  0.00    +0.000 A 
ATOM     17  C   UNL     1      -1.015  12.171  21.948  0.00  0.00    +0.000 A 
ATOM     18  C   UNL     1      -1.882  12.324  20.862  0.00  0.00    +0.000 A 
ENDBRANCH  11  17
ENDBRANCH   5  11
ENDBRANCH   1   8
BRANCH   2  19
ATOM     19  C   UNL     1       2.563   4.762  19.022  0.00  0.00    +0.000 A 
ATOM     20  C   UNL     1       1.883   3.545  18.882  0.00  0.00    +0.000 A 
ATOM     21  C   UNL     1       2.441   2.506  18.141  0.00  0.00    +0.000 A 
ATOM     22  C   UNL     1       3.673   2.687  17.518  0.00  0.00    +0.000 A 
ATOM     23  C   UNL     1       4.346   3.917  17.602  0.00  0.00    +0.000 A 
ATOM     24  C   UNL     1       3.784   4.956  18.364  0.00  0.00    +0.000 A 
BRANCH  23  25
ATOM     25  C   UNL     1       5.610   4.138  16.803  0.00  0.00    +0.000 C 
BRANCH  25  26
ATOM     26  N   UNL     1       6.411   5.223  17.343  0.00  0.00    +0.000 N 
ATOM     27  C   UNL     1       7.525   5.006  18.234  0.00  0.00    +0.000 C 
ATOM     28  C   UNL     1       7.902   6.408  18.666  0.00  0.00    +0.000 C 
ATOM     29  C   UNL     1       7.550   7.262  17.455  0.00  0.00    +0.000 C 
ATOM     30  C   UNL     1       6.403   6.509  16.827  0.00  0.00    +0.000 C 
ATOM     31  O   UNL     1       5.646   6.947  15.976  0.00  0.00    +0.000 OA
ENDBRANCH  25  26
ENDBRANCH  23  25
ENDBRANCH   2  19
TORSDOF 6
ENDMDL
MODEL 7
REMARK VINA RESULT:      -8.6      2.872     10.099
REMARK  Name = 
REMARK  7 active torsions:
REMARK  status: ('A' for Active; 'I' for Inactive)
REMARK    1  A    between atoms: C_1  and  C_2
REMARK    2  A    between atoms: C_6  and  O_7
REMARK    3  A    between atoms: O_7  and  C_8
REMARK    4  A    between atoms: C_11  and  N_12
REMARK    5  A    between atoms: C_13  and  C_15
REMARK    6  A    between atoms: C_19  and  C_20
REMARK    7  A    between atoms: C_20  and  N_21
REMARK                            x       y       z     vdW  Elec       q    Type
REMARK                         _______ _______ _______ _____ _____    ______ ____
ROOT
ATOM      1  N   UNL     1       0.822   8.304  20.520  0.00  0.00    +0.000 N 
ATOM      2  C   UNL     1       0.964   9.157  21.603  0.00  0.00    +0.000 C 
ATOM      3  O   UNL     1       1.827   9.104  22.473  0.00  0.00    +0.000 OA
ATOM      4  H   UNL     1       0.012   8.428  19.929  0.00  0.00    +0.000 HD
ENDROOT
BRANCH   1   8
ATOM      5  C   UNL     1       3.294   5.036  19.436  0.00  0.00    +0.000 A 
ATOM      6  C   UNL     1       2.490   4.945  20.571  0.00  0.00    +0.000 A 
ATOM      7  C   UNL     1       1.652   6.004  20.931  0.00  0.00    +0.000 A 
ATOM      8  C   UNL     1       1.652   7.199  20.209  0.00  0.00    +0.000 A 
ATOM      9  C   UNL     1       2.521   7.314  19.116  0.00  0.00    +0.000 A 
ATOM     10  C   UNL     1       3.336   6.237  18.730  0.00  0.00    +0.000 A 
BRANCH   5  11
ATOM     11  O   UNL     1       4.104   4.018  18.978  0.00  0.00    +0.000 OA
BRANCH  11  17
ATOM     12  C   UNL     1       5.987   3.918  14.478  0.00  0.00    +0.000 C 
ATOM     13  C   UNL     1       6.117   4.277  15.929  0.00  0.00    +0.000 A 
ATOM     14  C   UNL     1       7.284   4.879  16.412  0.00  0.00    +0.000 A 
ATOM     15  C   UNL     1       7.424   5.153  17.772  0.00  0.00    +0.000 A 
ATOM     16  C   UNL     1       6.395   4.838  18.659  0.00  0.00    +0.000 A 
ATOM     17  C   UNL     1       5.191   4.314  18.180  0.00  0.00    +0.000 A 
ATOM     18  C   UNL     1       5.068   4.006  16.822  0.00  0.00    +0.000 A 
ENDBRANCH  11  17
ENDBRANCH   5  11
ENDBRANCH   1   8
BRANCH   2  19
ATOM     19  C   UNL     1      -0.085  10.204  21.747  0.00  0.00    +0.000 A 
ATOM     20  C   UNL     1      -0.609  10.425  23.028  0.00  0.00    +0.000 A 
ATOM     21  C   UNL     1      -1.605  11.377  23.228  0.00  0.00    +0.000 A 
ATOM     22  C   UNL     1      -2.068  12.130  22.152  0.00  0.00    +0.000 A 
ATOM     23  C   UNL     1      -1.519  11.961  20.870  0.00  0.00    +0.000 A 
ATOM     24  C   UNL     1      -0.525  10.987  20.672  0.00  0.00    +0.000 A 
BRANCH  23  25
ATOM     25  C   UNL     1      -1.934  12.884  19.748  0.00  0.00    +0.000 C 
BRANCH  25  26
ATOM     26  N   UNL     1      -2.689  12.186  18.721  0.00  0.00    +0.000 N 
ATOM     27  C   UNL     1      -2.061  11.483  17.629  0.00  0.00    +0.000 C 
ATOM     28  C   UNL     1      -3.230  11.101  16.744  0.00  0.00    +0.000 C 
ATOM     29  C   UNL     1      -4.375  10.904  17.729  0.00  0.00    +0.000 C 
ATOM     30  C   UNL     1      -4.028  11.853  18.851  0.00  0.00    +0.000 C 
ATOM     31  O   UNL     1      -4.784  12.209  19.739  0.00  0.00    +0.000 OA
ENDBRANCH  25  26
ENDBRANCH  23  25
ENDBRANCH   2  19
TORSDOF 6
ENDMDL
MODEL 8
REMARK VINA RESULT:      -8.6      1.468      1.827
REMARK  Name = 
REMARK  7 active torsions:
REMARK  status: ('A' for Active; 'I' for Inactive)
REMARK    1  A    between atoms: C_1  and  C_2
REMARK    2  A    between atoms: C_6  and  O_7
REMARK    3  A    between atoms: O_7  and  C_8
REMARK    4  A    between atoms: C_11  and  N_12
REMARK    5  A    between atoms: C_13  and  C_15
REMARK    6  A    between atoms: C_19  and  C_20
REMARK    7  A    between atoms: C_20  and  N_21
REMARK                            x       y       z     vdW  Elec       q    Type
REMARK                         _______ _______ _______ _____ _____    ______ ____
ROOT
ATOM      1  N   UNL     1       1.773   8.071  19.496  0.00  0.00    +0.000 N 
ATOM      2  C   UNL     1       2.338   8.122  18.232  0.00  0.00    +0.000 C 
ATOM      3  O   UNL     1       2.231   9.029  17.414  0.00  0.00    +0.000 OA
ATOM      4  H   UNL     1       1.888   7.219  20.026  0.00  0.00    +0.000 HD
ENDROOT
BRANCH   1   8
ATOM      5  C   UNL     1      -0.687  10.952  21.398  0.00  0.00    +0.000 A 
ATOM      6  C   UNL     1      -0.694  10.849  20.008  0.00  0.00    +0.000 A 
ATOM      7  C   UNL     1       0.094   9.891  19.365  0.00  0.00    +0.000 A 
ATOM      8  C   UNL     1       0.955   9.065  20.089  0.00  0.00    +0.000 A 
ATOM      9  C   UNL     1       1.018   9.226  21.479  0.00  0.00    +0.000 A 
ATOM     10  C   UNL     1       0.200  10.164  22.130  0.00  0.00    +0.000 A 
BRANCH   5  11
ATOM     11  O   UNL     1      -1.475  11.828  22.113  0.00  0.00    +0.000 OA
BRANCH  11  17
ATOM     12  C   UNL     1      -1.645  15.577  25.230  0.00  0.00    +0.000 C 
ATOM     13  C   UNL     1      -1.070  14.942  23.999  0.00  0.00    +0.000 A 
ATOM     14  C   UNL     1      -0.100  15.605  23.242  0.00  0.00    +0.000 A 
ATOM     15  C   UNL     1       0.387  15.037  22.064  0.00  0.00    +0.000 A 
ATOM     16  C   UNL     1      -0.086  13.794  21.641  0.00  0.00    +0.000 A 
ATOM     17  C   UNL     1      -0.992  13.081  22.430  0.00  0.00    +0.000 A 
ATOM     18  C   UNL     1      -1.505  13.671  23.590  0.00  0.00    +0.000 A 
ENDBRANCH  11  17
ENDBRANCH   5  11
ENDBRANCH   1   8
BRANCH   2  19
ATOM     19  C   UNL     1       3.102   6.913  17.813  0.00  0.00    +0.000 A 
ATOM     20  C   UNL     1       4.390   7.107  17.297  0.00  0.00    +0.000 A 
ATOM     21  C   UNL     1       5.150   6.021  16.870  0.00  0.00    +0.000 A 
ATOM     22  C   UNL     1       4.635   4.732  16.979  0.00  0.00    +0.000 A 
ATOM     23  C   UNL     1       3.367   4.511  17.542  0.00  0.00    +0.000 A 
ATOM     24  C   UNL     1       2.599   5.613  17.955  0.00  0.00    +0.000 A 
BRANCH  23  25
ATOM     25  C   UNL     1       2.886   3.099  17.779  0.00  0.00    +0.000 C 
BRANCH  25  26
ATOM     26  N   UNL     1       2.519   2.876  19.166  0.00  0.00    +0.000 N 
ATOM     27  C   UNL     1       3.389   3.204  20.270  0.00  0.00    +0.000 C 
ATOM     28  C   UNL     1       2.667   2.621  21.467  0.00  0.00    +0.000 C 
ATOM     29  C   UNL     1       1.195   2.740  21.090  0.00  0.00    +0.000 C 
ATOM     30  C   UNL     1       1.219   2.638  19.584  0.00  0.00    +0.000 C 
ATOM     31  O   UNL     1       0.250   2.440  18.871  0.00  0.00    +0.000 OA
ENDBRANCH  25  26
ENDBRANCH  23  25
ENDBRANCH   2  19
TORSDOF 6
ENDMDL
MODEL 9
REMARK VINA RESULT:      -8.6      2.018      2.414
REMARK  Name = 
REMARK  7 active torsions:
REMARK  status: ('A' for Active; 'I' for Inactive)
REMARK    1  A    between atoms: C_1  and  C_2
REMARK    2  A    between atoms: C_6  and  O_7
REMARK    3  A    between atoms: O_7  and  C_8
REMARK    4  A    between atoms: C_11  and  N_12
REMARK    5  A    between atoms: C_13  and  C_15
REMARK    6  A    between atoms: C_19  and  C_20
REMARK    7  A    between atoms: C_20  and  N_21
REMARK                            x       y       z     vdW  Elec       q    Type
REMARK                         _______ _______ _______ _____ _____    ______ ____
ROOT
ATOM      1  N   UNL     1       1.757   8.923  17.900  0.00  0.00    +0.000 N 
ATOM      2  C   UNL     1       2.233   7.901  18.706  0.00  0.00    +0.000 C 
ATOM      3  O   UNL     1       2.081   7.788  19.918  0.00  0.00    +0.000 OA
ATOM      4  H   UNL     1       2.031   8.919  16.928  0.00  0.00    +0.000 HD
ENDROOT
BRANCH   1   8
ATOM      5  C   UNL     1      -0.632  12.219  19.083  0.00  0.00    +0.000 A 
ATOM      6  C   UNL     1       0.754  12.358  19.025  0.00  0.00    +0.000 A 
ATOM      7  C   UNL     1       1.556  11.288  18.616  0.00  0.00    +0.000 A 
ATOM      8  C   UNL     1       0.999  10.042  18.326  0.00  0.00    +0.000 A 
ATOM      9  C   UNL     1      -0.387   9.885  18.462  0.00  0.00    +0.000 A 
ATOM     10  C   UNL     1      -1.198  10.969  18.838  0.00  0.00    +0.000 A 
BRANCH   5  11
ATOM     11  O   UNL     1      -1.498  13.237  19.419  0.00  0.00    +0.000 OA
BRANCH  11  17
ATOM     12  C   UNL     1      -6.060  12.815  21.096  0.00  0.00    +0.000 C 
ATOM     13  C   UNL     1      -4.585  12.883  21.359  0.00  0.00    +0.000 A 
ATOM     14  C   UNL     1      -4.090  12.813  22.665  0.00  0.00    +0.000 A 
ATOM     15  C   UNL     1      -2.722  12.938  22.909  0.00  0.00    +0.000 A 
ATOM     16  C   UNL     1      -1.837  13.123  21.847  0.00  0.00    +0.000 A 
ATOM     17  C   UNL     1      -2.307  13.110  20.530  0.00  0.00    +0.000 A 
ATOM     18  C   UNL     1      -3.682  13.021  20.292  0.00  0.00    +0.000 A 
ENDBRANCH  11  17
ENDBRANCH   5  11
ENDBRANCH   1   8
BRANCH   2  19
ATOM     19  C   UNL     1       3.068   6.873  18.025  0.00  0.00    +0.000 A 
ATOM     20  C   UNL     1       4.106   7.324  17.198  0.00  0.00    +0.000 A 
ATOM     21  C   UNL     1       4.912   6.415  16.518  0.00  0.00    +0.000 A 
ATOM     22  C   UNL     1       4.700   5.048  16.679  0.00  0.00    +0.000 A 
ATOM     23  C   UNL     1       3.700   4.574  17.544  0.00  0.00    +0.000 A 
ATOM     24  C   UNL     1       2.879   5.497  18.215  0.00  0.00    +0.000 A 
BRANCH  23  25
ATOM     25  C   UNL     1       3.579   3.092  17.812  0.00  0.00    +0.000 C 
BRANCH  25  26
ATOM     26  N   UNL     1       2.940   2.821  19.088  0.00  0.00    +0.000 N 
ATOM     27  C   UNL     1       3.598   3.032  20.355  0.00  0.00    +0.000 C 
ATOM     28  C   UNL     1       2.628   2.437  21.354  0.00  0.00    +0.000 C 
ATOM     29  C   UNL     1       1.265   2.674  20.715  0.00  0.00    +0.000 C 
ATOM     30  C   UNL     1       1.572   2.649  19.237  0.00  0.00    +0.000 C 
ATOM     31  O   UNL     1       0.750   2.554  18.342  0.00  0.00    +0.000 OA
ENDBRANCH  25  26
ENDBRANCH  23  25
ENDBRANCH   2  19
TORSDOF 6
ENDMDL
