MODEL 1
REMARK VINA RESULT:      -9.4      0.000      0.000
REMARK  Name = 
REMARK  9 active torsions:
REMARK  status: ('A' for Active; 'I' for Inactive)
REMARK    1  A    between atoms: C_1  and  C_2
REMARK    2  A    between atoms: C_5  and  C_6
REMARK    3  A    between atoms: C_7  and  C_8
REMARK    4  A    between atoms: C_8  and  O_9
REMARK    5  A    between atoms: O_9  and  C_10
REMARK    6  A    between atoms: C_15  and  C_16
REMARK    7  A    between atoms: N_18  and  C_19
REMARK    8  A    between atoms: C_19  and  C_20
REMARK    9  A    between atoms: C_19  and  C_21
REMARK                            x       y       z     vdW  Elec       q    Type
REMARK                         _______ _______ _______ _____ _____    ______ ____
ROOT
ATOM      1  C   UNL     1       2.789   3.666  17.873  0.00  0.00    +0.000 A 
ATOM      2  C   UNL     1       2.236   2.377  17.781  0.00  0.00    +0.000 A 
ATOM      3  C   UNL     1       1.263   1.940  18.685  0.00  0.00    +0.000 A 
ATOM      4  C   UNL     1       0.854   2.768  19.720  0.00  0.00    +0.000 A 
ATOM      5  C   UNL     1       1.401   4.046  19.834  0.00  0.00    +0.000 A 
ATOM      6  C   UNL     1       2.356   4.520  18.910  0.00  0.00    +0.000 A 
ENDROOT
BRANCH   6   7
ATOM      7  C   UNL     1       2.796   5.947  19.104  0.00  0.00    +0.000 C 
ATOM      8  O   UNL     1       3.876   6.190  19.638  0.00  0.00    +0.000 OA
ATOM      9  N   UNL     1       1.948   6.954  18.708  0.00  0.00    +0.000 N 
ATOM     10  H   UNL     1       1.112   6.717  18.186  0.00  0.00    +0.000 HD
BRANCH   9  11
ATOM     11  C   UNL     1       2.272   8.363  18.870  0.00  0.00    +0.000 C 
ATOM     12  C   UNL     1       2.042   9.134  17.573  0.00  0.00    +0.000 C 
BRANCH  11  13
ATOM     13  C   UNL     1       1.440   8.932  19.975  0.00  0.00    +0.000 A 
ATOM     14  C   UNL     1       1.118   8.483  21.245  0.00  0.00    +0.000 A 
ATOM     15  C   UNL     1       0.273   9.467  21.827  0.00  0.00    +0.000 A 
ATOM     16  C   UNL     1      -0.405   9.621  23.051  0.00  0.00    +0.000 A 
ATOM     17  C   UNL     1      -1.185  10.772  23.250  0.00  0.00    +0.000 A 
ATOM     18  C   UNL     1      -1.275  11.758  22.264  0.00  0.00    +0.000 A 
ATOM     19  C   UNL     1      -0.598  11.628  21.048  0.00  0.00    +0.000 A 
ATOM     20  C   UNL     1       0.153  10.469  20.874  0.00  0.00    +0.000 A 
ATOM     21  O   UNL     1       0.864  10.155  19.758  0.00  0.00    +0.000 OA
ENDBRANCH  11  13
ENDBRANCH   9  11
ENDBRANCH   6   7
BRANCH   1  22
ATOM     22  O   UNL     1       3.763   4.130  17.029  0.00  0.00    +0.000 OA
BRANCH  22  23
ATOM     23  C   UNL     1       5.120   3.693  17.183  0.00  0.00    +0.000 C 
BRANCH  23  30
ATOM     24  C   UNL     1       5.806   3.896  14.019  0.00  0.00    +0.000 C 
ATOM     25  C   UNL     1       6.391   4.682  15.131  0.00  0.00    +0.000 A 
ATOM     26  N   UNL     1       7.342   5.590  14.884  0.00  0.00    +0.000 NA
ATOM     27  O   UNL     1       7.674   6.130  16.108  0.00  0.00    +0.000 OA
ATOM     28  C   UNL     1       6.931   5.544  17.083  0.00  0.00    +0.000 A 
ATOM     29  C   UNL     1       7.194   6.012  18.457  0.00  0.00    +0.000 C 
ATOM     30  C   UNL     1       6.087   4.607  16.520  0.00  0.00    +0.000 A 
ENDBRANCH  23  30
ENDBRANCH  22  23
ENDBRANCH   1  22
TORSDOF 6
ENDMDL
MODEL 2
REMARK VINA RESULT:      -9.3      0.403      1.512
REMARK  Name = 
REMARK  9 active torsions:
REMARK  status: ('A' for Active; 'I' for Inactive)
REMARK    1  A    between atoms: C_1  and  C_2
REMARK    2  A    between atoms: C_5  and  C_6
REMARK    3  A    between atoms: C_7  and  C_8
REMARK    4  A    between atoms: C_8  and  O_9
REMARK    5  A    between atoms: O_9  and  C_10
REMARK    6  A    between atoms: C_15  and  C_16
REMARK    7  A    between atoms: N_18  and  C_19
REMARK    8  A    between atoms: C_19  and  C_20
REMARK    9  A    between atoms: C_19  and  C_21
REMARK                            x       y       z     vdW  Elec       q    Type
REMARK                         _______ _______ _______ _____ _____    ______ ____
ROOT
ATOM      1  C   UNL     1       2.794   3.524  17.934  0.00  0.00    +0.000 A 
ATOM      2  C   UNL     1       2.239   2.236  17.846  0.00  0.00    +0.000 A 
ATOM      3  C   UNL     1       1.249   1.810  18.737  0.00  0.00    +0.000 A 
ATOM      4  C   UNL     1       0.826   2.650  19.757  0.00  0.00    +0.000 A 
ATOM      5  C   UNL     1       1.374   3.927  19.867  0.00  0.00    +0.000 A 
ATOM      6  C   UNL     1       2.346   4.389  18.956  0.00  0.00    +0.000 A 
ENDROOT
BRANCH   6   7
ATOM      7  C   UNL     1       2.787   5.817  19.142  0.00  0.00    +0.000 C 
ATOM      8  O   UNL     1       3.850   6.063  19.707  0.00  0.00    +0.000 OA
ATOM      9  N   UNL     1       1.957   6.822  18.705  0.00  0.00    +0.000 N 
ATOM     10  H   UNL     1       1.137   6.581  18.160  0.00  0.00    +0.000 HD
BRANCH   9  11
ATOM     11  C   UNL     1       2.283   8.232  18.857  0.00  0.00    +0.000 C 
ATOM     12  C   UNL     1       2.048   8.995  17.556  0.00  0.00    +0.000 C 
BRANCH  11  13
ATOM     13  C   UNL     1       1.456   8.808  19.961  0.00  0.00    +0.000 A 
ATOM     14  C   UNL     1       1.183   8.394  21.255  0.00  0.00    +0.000 A 
ATOM     15  C   UNL     1       0.314   9.366  21.823  0.00  0.00    +0.000 A 
ATOM     16  C   UNL     1      -0.340   9.538  23.057  0.00  0.00    +0.000 A 
ATOM     17  C   UNL     1      -1.160  10.665  23.234  0.00  0.00    +0.000 A 
ATOM     18  C   UNL     1      -1.313  11.610  22.216  0.00  0.00    +0.000 A 
ATOM     19  C   UNL     1      -0.661  11.461  20.988  0.00  0.00    +0.000 A 
ATOM     20  C   UNL     1       0.131  10.327  20.838  0.00  0.00    +0.000 A 
ATOM     21  O   UNL     1       0.827   9.999  19.715  0.00  0.00    +0.000 OA
ENDBRANCH  11  13
ENDBRANCH   9  11
ENDBRANCH   6   7
BRANCH   1  22
ATOM     22  O   UNL     1       3.783   3.977  17.102  0.00  0.00    +0.000 OA
BRANCH  22  23
ATOM     23  C   UNL     1       5.153   3.642  17.361  0.00  0.00    +0.000 C 
BRANCH  23  30
ATOM     24  C   UNL     1       7.164   5.792  18.723  0.00  0.00    +0.000 C 
ATOM     25  C   UNL     1       6.970   5.512  17.280  0.00  0.00    +0.000 A 
ATOM     26  N   UNL     1       7.654   6.206  16.364  0.00  0.00    +0.000 NA
ATOM     27  O   UNL     1       7.246   5.718  15.141  0.00  0.00    +0.000 OA
ATOM     28  C   UNL     1       6.318   4.743  15.324  0.00  0.00    +0.000 A 
ATOM     29  C   UNL     1       5.773   4.138  14.094  0.00  0.00    +0.000 C 
ATOM     30  C   UNL     1       6.099   4.562  16.675  0.00  0.00    +0.000 A 
ENDBRANCH  23  30
ENDBRANCH  22  23
ENDBRANCH   1  22
TORSDOF 6
ENDMDL
MODEL 3
REMARK VINA RESULT:      -9.1      1.115      1.355
REMARK  Name = 
REMARK  9 active torsions:
REMARK  status: ('A' for Active; 'I' for Inactive)
REMARK    1  A    between atoms: C_1  and  C_2
REMARK    2  A    between atoms: C_5  and  C_6
REMARK    3  A    between atoms: C_7  and  C_8
REMARK    4  A    between atoms: C_8  and  O_9
REMARK    5  A    between atoms: O_9  and  C_10
REMARK    6  A    between atoms: C_15  and  C_16
REMARK    7  A    between atoms: N_18  and  C_19
REMARK    8  A    between atoms: C_19  and  C_20
REMARK    9  A    between atoms: C_19  and  C_21
REMARK                            x       y       z     vdW  Elec       q    Type
REMARK                         _______ _______ _______ _____ _____    ______ ____
ROOT
ATOM      1  C   UNL     1       3.941   4.293  19.005  0.00  0.00    +0.000 A 
ATOM      2  C   UNL     1       3.825   2.896  19.110  0.00  0.00    +0.000 A 
ATOM      3  C   UNL     1       2.670   2.230  18.689  0.00  0.00    +0.000 A 
ATOM      4  C   UNL     1       1.595   2.952  18.191  0.00  0.00    +0.000 A 
ATOM      5  C   UNL     1       1.687   4.339  18.091  0.00  0.00    +0.000 A 
ATOM      6  C   UNL     1       2.857   5.027  18.475  0.00  0.00    +0.000 A 
ENDROOT
BRANCH   6   7
ATOM      7  C   UNL     1       2.848   6.513  18.231  0.00  0.00    +0.000 C 
ATOM      8  O   UNL     1       3.585   7.000  17.376  0.00  0.00    +0.000 OA
ATOM      9  N   UNL     1       2.034   7.300  19.010  0.00  0.00    +0.000 N 
ATOM     10  H   UNL     1       1.373   6.855  19.637  0.00  0.00    +0.000 HD
BRANCH   9  11
ATOM     11  C   UNL     1       1.969   8.746  18.867  0.00  0.00    +0.000 C 
ATOM     12  C   UNL     1       1.388   9.141  17.512  0.00  0.00    +0.000 C 
BRANCH  11  13
ATOM     13  C   UNL     1       1.142   9.310  19.978  0.00  0.00    +0.000 A 
ATOM     14  C   UNL     1       0.791   8.838  21.232  0.00  0.00    +0.000 A 
ATOM     15  C   UNL     1      -0.030   9.831  21.832  0.00  0.00    +0.000 A 
ATOM     16  C   UNL     1      -0.719   9.972  23.051  0.00  0.00    +0.000 A 
ATOM     17  C   UNL     1      -1.465  11.142  23.273  0.00  0.00    +0.000 A 
ATOM     18  C   UNL     1      -1.514  12.156  22.313  0.00  0.00    +0.000 A 
ATOM     19  C   UNL     1      -0.827  12.038  21.102  0.00  0.00    +0.000 A 
ATOM     20  C   UNL     1      -0.109  10.862  20.905  0.00  0.00    +0.000 A 
ATOM     21  O   UNL     1       0.605  10.556  19.788  0.00  0.00    +0.000 OA
ENDBRANCH  11  13
ENDBRANCH   9  11
ENDBRANCH   6   7
BRANCH   1  22
ATOM     22  O   UNL     1       5.039   4.993  19.428  0.00  0.00    +0.000 OA
BRANCH  22  23
ATOM     23  C   UNL     1       6.352   4.595  19.011  0.00  0.00    +0.000 C 
BRANCH  23  30
ATOM     24  C   UNL     1       5.831   3.677  15.943  0.00  0.00    +0.000 C 
ATOM     25  C   UNL     1       6.562   4.873  16.425  0.00  0.00    +0.000 A 
ATOM     26  N   UNL     1       7.125   5.713  15.550  0.00  0.00    +0.000 NA
ATOM     27  O   UNL     1       7.722   6.699  16.306  0.00  0.00    +0.000 OA
ATOM     28  C   UNL     1       7.524   6.446  17.626  0.00  0.00    +0.000 A 
ATOM     29  C   UNL     1       8.128   7.415  18.561  0.00  0.00    +0.000 C 
ATOM     30  C   UNL     1       6.784   5.289  17.768  0.00  0.00    +0.000 A 
ENDBRANCH  23  30
ENDBRANCH  22  23
ENDBRANCH   1  22
TORSDOF 6
ENDMDL
MODEL 4
REMARK VINA RESULT:      -8.9      1.747      8.465
REMARK  Name = 
REMARK  9 active torsions:
REMARK  status: ('A' for Active; 'I' for Inactive)
REMARK    1  A    between atoms: C_1  and  C_2
REMARK    2  A    between atoms: C_5  and  C_6
REMARK    3  A    between atoms: C_7  and  C_8
REMARK    4  A    between atoms: C_8  and  O_9
REMARK    5  A    between atoms: O_9  and  C_10
REMARK    6  A    between atoms: C_15  and  C_16
REMARK    7  A    between atoms: N_18  and  C_19
REMARK    8  A    between atoms: C_19  and  C_20
REMARK    9  A    between atoms: C_19  and  C_21
REMARK                            x       y       z     vdW  Elec       q    Type
REMARK                         _______ _______ _______ _____ _____    ______ ____
ROOT
ATOM      1  C   UNL     1       2.018   5.286  20.145  0.00  0.00    +0.000 A 
ATOM      2  C   UNL     1       1.179   4.410  20.854  0.00  0.00    +0.000 A 
ATOM      3  C   UNL     1       1.260   3.025  20.679  0.00  0.00    +0.000 A 
ATOM      4  C   UNL     1       2.155   2.494  19.761  0.00  0.00    +0.000 A 
ATOM      5  C   UNL     1       2.988   3.348  19.039  0.00  0.00    +0.000 A 
ATOM      6  C   UNL     1       2.947   4.745  19.229  0.00  0.00    +0.000 A 
ENDROOT
BRANCH   6   7
ATOM      7  C   UNL     1       3.961   5.538  18.447  0.00  0.00    +0.000 C 
ATOM      8  O   UNL     1       3.626   6.580  17.888  0.00  0.00    +0.000 OA
ATOM      9  N   UNL     1       5.240   5.047  18.345  0.00  0.00    +0.000 N 
ATOM     10  H   UNL     1       5.503   4.238  18.897  0.00  0.00    +0.000 HD
BRANCH   9  11
ATOM     11  C   UNL     1       6.286   5.727  17.596  0.00  0.00    +0.000 C 
ATOM     12  C   UNL     1       7.647   5.551  18.264  0.00  0.00    +0.000 C 
BRANCH  11  13
ATOM     13  C   UNL     1       6.312   5.194  16.199  0.00  0.00    +0.000 A 
ATOM     14  C   UNL     1       5.531   4.272  15.522  0.00  0.00    +0.000 A 
ATOM     15  C   UNL     1       6.057   4.175  14.205  0.00  0.00    +0.000 A 
ATOM     16  C   UNL     1       5.757   3.429  13.050  0.00  0.00    +0.000 A 
ATOM     17  C   UNL     1       6.551   3.610  11.905  0.00  0.00    +0.000 A 
ATOM     18  C   UNL     1       7.610   4.522  11.902  0.00  0.00    +0.000 A 
ATOM     19  C   UNL     1       7.915   5.280  13.036  0.00  0.00    +0.000 A 
ATOM     20  C   UNL     1       7.119   5.067  14.159  0.00  0.00    +0.000 A 
ATOM     21  O   UNL     1       7.271   5.693  15.358  0.00  0.00    +0.000 OA
ENDBRANCH  11  13
ENDBRANCH   9  11
ENDBRANCH   6   7
BRANCH   1  22
ATOM     22  O   UNL     1       1.957   6.649  20.262  0.00  0.00    +0.000 OA
BRANCH  22  23
ATOM     23  C   UNL     1       0.898   7.262  21.008  0.00  0.00    +0.000 C 
BRANCH  23  30
ATOM     24  C   UNL     1       0.158   9.450  23.287  0.00  0.00    +0.000 C 
ATOM     25  C   UNL     1       0.564   9.697  21.883  0.00  0.00    +0.000 A 
ATOM     26  N   UNL     1       0.634  10.949  21.415  0.00  0.00    +0.000 NA
ATOM     27  O   UNL     1       1.025  10.837  20.098  0.00  0.00    +0.000 OA
ATOM     28  C   UNL     1       1.181   9.525  19.777  0.00  0.00    +0.000 A 
ATOM     29  C   UNL     1       1.581   9.251  18.384  0.00  0.00    +0.000 C 
ATOM     30  C   UNL     1       0.901   8.744  20.881  0.00  0.00    +0.000 A 
ENDBRANCH  23  30
ENDBRANCH  22  23
ENDBRANCH   1  22
TORSDOF 6
ENDMDL
MODEL 5
REMARK VINA RESULT:      -8.8      1.704      8.472
REMARK  Name = 
REMARK  9 active torsions:
REMARK  status: ('A' for Active; 'I' for Inactive)
REMARK    1  A    between atoms: C_1  and  C_2
REMARK    2  A    between atoms: C_5  and  C_6
REMARK    3  A    between atoms: C_7  and  C_8
REMARK    4  A    between atoms: C_8  and  O_9
REMARK    5  A    between atoms: O_9  and  C_10
REMARK    6  A    between atoms: C_15  and  C_16
REMARK    7  A    between atoms: N_18  and  C_19
REMARK    8  A    between atoms: C_19  and  C_20
REMARK    9  A    between atoms: C_19  and  C_21
REMARK                            x       y       z     vdW  Elec       q    Type
REMARK                         _______ _______ _______ _____ _____    ______ ____
ROOT
ATOM      1  C   UNL     1       2.065   5.881  19.897  0.00  0.00    +0.000 A 
ATOM      2  C   UNL     1       1.079   5.167  20.599  0.00  0.00    +0.000 A 
ATOM      3  C   UNL     1       0.893   3.796  20.395  0.00  0.00    +0.000 A 
ATOM      4  C   UNL     1       1.663   3.123  19.456  0.00  0.00    +0.000 A 
ATOM      5  C   UNL     1       2.638   3.819  18.742  0.00  0.00    +0.000 A 
ATOM      6  C   UNL     1       2.867   5.193  18.960  0.00  0.00    +0.000 A 
ENDROOT
BRANCH   6   7
ATOM      7  C   UNL     1       4.007   5.795  18.182  0.00  0.00    +0.000 C 
ATOM      8  O   UNL     1       3.807   6.757  17.445  0.00  0.00    +0.000 OA
ATOM      9  N   UNL     1       5.250   5.218  18.289  0.00  0.00    +0.000 N 
ATOM     10  H   UNL     1       5.397   4.489  18.978  0.00  0.00    +0.000 HD
BRANCH   9  11
ATOM     11  C   UNL     1       6.411   5.712  17.564  0.00  0.00    +0.000 C 
ATOM     12  C   UNL     1       7.707   5.331  18.273  0.00  0.00    +0.000 C 
BRANCH  11  13
ATOM     13  C   UNL     1       6.389   5.161  16.174  0.00  0.00    +0.000 A 
ATOM     14  C   UNL     1       5.596   4.219  15.541  0.00  0.00    +0.000 A 
ATOM     15  C   UNL     1       6.071   4.112  14.205  0.00  0.00    +0.000 A 
ATOM     16  C   UNL     1       5.735   3.347  13.072  0.00  0.00    +0.000 A 
ATOM     17  C   UNL     1       6.481   3.524  11.895  0.00  0.00    +0.000 A 
ATOM     18  C   UNL     1       7.525   4.450  11.837  0.00  0.00    +0.000 A 
ATOM     19  C   UNL     1       7.864   5.227  12.949  0.00  0.00    +0.000 A 
ATOM     20  C   UNL     1       7.116   5.019  14.105  0.00  0.00    +0.000 A 
ATOM     21  O   UNL     1       7.307   5.662  15.289  0.00  0.00    +0.000 OA
ENDBRANCH  11  13
ENDBRANCH   9  11
ENDBRANCH   6   7
BRANCH   1  22
ATOM     22  O   UNL     1       2.267   7.228  20.043  0.00  0.00    +0.000 OA
BRANCH  22  23
ATOM     23  C   UNL     1       1.691   7.928  21.153  0.00  0.00    +0.000 C 
BRANCH  23  30
ATOM     24  C   UNL     1       1.556   9.324  18.228  0.00  0.00    +0.000 C 
ATOM     25  C   UNL     1       0.770   9.664  19.437  0.00  0.00    +0.000 A 
ATOM     26  N   UNL     1      -0.106  10.675  19.406  0.00  0.00    +0.000 NA
ATOM     27  O   UNL     1      -0.655  10.736  20.668  0.00  0.00    +0.000 OA
ATOM     28  C   UNL     1      -0.106   9.771  21.453  0.00  0.00    +0.000 A 
ATOM     29  C   UNL     1      -0.588   9.729  22.847  0.00  0.00    +0.000 C 
ATOM     30  C   UNL     1       0.815   9.049  20.720  0.00  0.00    +0.000 A 
ENDBRANCH  23  30
ENDBRANCH  22  23
ENDBRANCH   1  22
TORSDOF 6
ENDMDL
MODEL 6
REMARK VINA RESULT:      -8.8      0.586      1.145
REMARK  Name = 
REMARK  9 active torsions:
REMARK  status: ('A' for Active; 'I' for Inactive)
REMARK    1  A    between atoms: C_1  and  C_2
REMARK    2  A    between atoms: C_5  and  C_6
REMARK    3  A    between atoms: C_7  and  C_8
REMARK    4  A    between atoms: C_8  and  O_9
REMARK    5  A    between atoms: O_9  and  C_10
REMARK    6  A    between atoms: C_15  and  C_16
REMARK    7  A    between atoms: N_18  and  C_19
REMARK    8  A    between atoms: C_19  and  C_20
REMARK    9  A    between atoms: C_19  and  C_21
REMARK                            x       y       z     vdW  Elec       q    Type
REMARK                         _______ _______ _______ _____ _____    ______ ____
ROOT
ATOM      1  C   UNL     1       2.710   3.873  17.974  0.00  0.00    +0.000 A 
ATOM      2  C   UNL     1       2.148   2.588  18.062  0.00  0.00    +0.000 A 
ATOM      3  C   UNL     1       1.239   2.263  19.074  0.00  0.00    +0.000 A 
ATOM      4  C   UNL     1       0.908   3.204  20.038  0.00  0.00    +0.000 A 
ATOM      5  C   UNL     1       1.466   4.480  19.973  0.00  0.00    +0.000 A 
ATOM      6  C   UNL     1       2.354   4.840  18.939  0.00  0.00    +0.000 A 
ENDROOT
BRANCH   6   7
ATOM      7  C   UNL     1       2.812   6.275  18.944  0.00  0.00    +0.000 C 
ATOM      8  O   UNL     1       4.001   6.540  19.105  0.00  0.00    +0.000 OA
ATOM      9  N   UNL     1       1.868   7.264  18.806  0.00  0.00    +0.000 N 
ATOM     10  H   UNL     1       0.913   7.006  18.580  0.00  0.00    +0.000 HD
BRANCH   9  11
ATOM     11  C   UNL     1       2.204   8.679  18.817  0.00  0.00    +0.000 C 
ATOM     12  C   UNL     1       2.197   9.260  17.406  0.00  0.00    +0.000 C 
BRANCH  11  13
ATOM     13  C   UNL     1       1.233   9.406  19.691  0.00  0.00    +0.000 A 
ATOM     14  C   UNL     1       0.411  10.503  19.486  0.00  0.00    +0.000 A 
ATOM     15  C   UNL     1      -0.281  10.732  20.707  0.00  0.00    +0.000 A 
ATOM     16  C   UNL     1      -1.220  11.670  21.175  0.00  0.00    +0.000 A 
ATOM     17  C   UNL     1      -1.669  11.569  22.502  0.00  0.00    +0.000 A 
ATOM     18  C   UNL     1      -1.210  10.551  23.341  0.00  0.00    +0.000 A 
ATOM     19  C   UNL     1      -0.286   9.604  22.890  0.00  0.00    +0.000 A 
ATOM     20  C   UNL     1       0.151   9.739  21.575  0.00  0.00    +0.000 A 
ATOM     21  O   UNL     1       1.058   8.930  20.963  0.00  0.00    +0.000 OA
ENDBRANCH  11  13
ENDBRANCH   9  11
ENDBRANCH   6   7
BRANCH   1  22
ATOM     22  O   UNL     1       3.624   4.232  17.018  0.00  0.00    +0.000 OA
BRANCH  22  23
ATOM     23  C   UNL     1       4.887   3.559  16.940  0.00  0.00    +0.000 C 
BRANCH  23  30
ATOM     24  C   UNL     1       5.603   3.951  13.799  0.00  0.00    +0.000 C 
ATOM     25  C   UNL     1       6.263   4.575  14.970  0.00  0.00    +0.000 A 
ATOM     26  N   UNL     1       7.306   5.395  14.794  0.00  0.00    +0.000 NA
ATOM     27  O   UNL     1       7.689   5.793  16.056  0.00  0.00    +0.000 OA
ATOM     28  C   UNL     1       6.885   5.210  16.983  0.00  0.00    +0.000 A 
ATOM     29  C   UNL     1       7.191   5.533  18.390  0.00  0.00    +0.000 C 
ATOM     30  C   UNL     1       5.948   4.418  16.349  0.00  0.00    +0.000 A 
ENDBRANCH  23  30
ENDBRANCH  22  23
ENDBRANCH   1  22
TORSDOF 6
ENDMDL
MODEL 7
REMARK VINA RESULT:      -8.7      1.003      1.830
REMARK  Name = 
REMARK  9 active torsions:
REMARK  status: ('A' for Active; 'I' for Inactive)
REMARK    1  A    between atoms: C_1  and  C_2
REMARK    2  A    between atoms: C_5  and  C_6
REMARK    3  A    between atoms: C_7  and  C_8
REMARK    4  A    between atoms: C_8  and  O_9
REMARK    5  A    between atoms: O_9  and  C_10
REMARK    6  A    between atoms: C_15  and  C_16
REMARK    7  A    between atoms: N_18  and  C_19
REMARK    8  A    between atoms: C_19  and  C_20
REMARK    9  A    between atoms: C_19  and  C_21
REMARK                            x       y       z     vdW  Elec       q    Type
REMARK                         _______ _______ _______ _____ _____    ______ ____
ROOT
ATOM      1  C   UNL     1       2.932   4.127  18.534  0.00  0.00    +0.000 A 
ATOM      2  C   UNL     1       2.702   2.821  18.998  0.00  0.00    +0.000 A 
ATOM      3  C   UNL     1       2.059   2.587  20.218  0.00  0.00    +0.000 A 
ATOM      4  C   UNL     1       1.670   3.655  21.013  0.00  0.00    +0.000 A 
ATOM      5  C   UNL     1       1.901   4.958  20.575  0.00  0.00    +0.000 A 
ATOM      6  C   UNL     1       2.514   5.216  19.331  0.00  0.00    +0.000 A 
ENDROOT
BRANCH   6   7
ATOM      7  C   UNL     1       2.622   6.668  18.947  0.00  0.00    +0.000 C 
ATOM      8  O   UNL     1       3.510   7.036  18.181  0.00  0.00    +0.000 OA
ATOM      9  N   UNL     1       1.737   7.561  19.502  0.00  0.00    +0.000 N 
ATOM     10  H   UNL     1       0.961   7.208  20.052  0.00  0.00    +0.000 HD
BRANCH   9  11
ATOM     11  C   UNL     1       1.771   8.986  19.211  0.00  0.00    +0.000 C 
ATOM     12  C   UNL     1       1.236   9.276  17.811  0.00  0.00    +0.000 C 
BRANCH  11  13
ATOM     13  C   UNL     1       0.970   9.715  20.243  0.00  0.00    +0.000 A 
ATOM     14  C   UNL     1       0.232   9.297  21.338  0.00  0.00    +0.000 A 
ATOM     15  C   UNL     1      -0.314  10.466  21.935  0.00  0.00    +0.000 A 
ATOM     16  C   UNL     1      -1.151  10.743  23.033  0.00  0.00    +0.000 A 
ATOM     17  C   UNL     1      -1.493  12.079  23.299  0.00  0.00    +0.000 A 
ATOM     18  C   UNL     1      -1.003  13.119  22.506  0.00  0.00    +0.000 A 
ATOM     19  C   UNL     1      -0.161  12.863  21.419  0.00  0.00    +0.000 A 
ATOM     20  C   UNL     1       0.148  11.528  21.171  0.00  0.00    +0.000 A 
ATOM     21  O   UNL     1       0.932  11.081  20.153  0.00  0.00    +0.000 OA
ENDBRANCH  11  13
ENDBRANCH   9  11
ENDBRANCH   6   7
BRANCH   1  22
ATOM     22  O   UNL     1       3.580   4.408  17.361  0.00  0.00    +0.000 OA
BRANCH  22  23
ATOM     23  C   UNL     1       4.702   3.615  16.950  0.00  0.00    +0.000 C 
BRANCH  23  30
ATOM     24  C   UNL     1       6.593   5.625  18.657  0.00  0.00    +0.000 C 
ATOM     25  C   UNL     1       6.646   5.336  17.204  0.00  0.00    +0.000 A 
ATOM     26  N   UNL     1       7.541   5.959  16.429  0.00  0.00    +0.000 NA
ATOM     27  O   UNL     1       7.328   5.484  15.153  0.00  0.00    +0.000 OA
ATOM     28  C   UNL     1       6.307   4.587  15.163  0.00  0.00    +0.000 A 
ATOM     29  C   UNL     1       5.953   4.007  13.854  0.00  0.00    +0.000 C 
ATOM     30  C   UNL     1       5.829   4.448  16.450  0.00  0.00    +0.000 A 
ENDBRANCH  23  30
ENDBRANCH  22  23
ENDBRANCH   1  22
TORSDOF 6
ENDMDL
MODEL 8
REMARK VINA RESULT:      -8.5      1.302      1.439
REMARK  Name = 
REMARK  9 active torsions:
REMARK  status: ('A' for Active; 'I' for Inactive)
REMARK    1  A    between atoms: C_1  and  C_2
REMARK    2  A    between atoms: C_5  and  C_6
REMARK    3  A    between atoms: C_7  and  C_8
REMARK    4  A    between atoms: C_8  and  O_9
REMARK    5  A    between atoms: O_9  and  C_10
REMARK    6  A    between atoms: C_15  and  C_16
REMARK    7  A    between atoms: N_18  and  C_19
REMARK    8  A    between atoms: C_19  and  C_20
REMARK    9  A    between atoms: C_19  and  C_21
REMARK                            x       y       z     vdW  Elec       q    Type
REMARK                         _______ _______ _______ _____ _____    ______ ____
ROOT
ATOM      1  C   UNL     1       3.738   4.494  19.599  0.00  0.00    +0.000 A 
ATOM      2  C   UNL     1       3.595   3.161  20.022  0.00  0.00    +0.000 A 
ATOM      3  C   UNL     1       2.353   2.657  20.423  0.00  0.00    +0.000 A 
ATOM      4  C   UNL     1       1.242   3.487  20.445  0.00  0.00    +0.000 A 
ATOM      5  C   UNL     1       1.368   4.815  20.041  0.00  0.00    +0.000 A 
ATOM      6  C   UNL     1       2.603   5.333  19.598  0.00  0.00    +0.000 A 
ENDROOT
BRANCH   6   7
ATOM      7  C   UNL     1       2.574   6.757  19.110  0.00  0.00    +0.000 C 
ATOM      8  O   UNL     1       3.307   7.106  18.187  0.00  0.00    +0.000 OA
ATOM      9  N   UNL     1       1.745   7.651  19.746  0.00  0.00    +0.000 N 
ATOM     10  H   UNL     1       1.087   7.307  20.437  0.00  0.00    +0.000 HD
BRANCH   9  11
ATOM     11  C   UNL     1       1.659   9.052  19.364  0.00  0.00    +0.000 C 
ATOM     12  C   UNL     1       1.184   9.202  17.921  0.00  0.00    +0.000 C 
BRANCH  11  13
ATOM     13  C   UNL     1       0.731   9.758  20.300  0.00  0.00    +0.000 A 
ATOM     14  C   UNL     1       0.491   9.646  21.660  0.00  0.00    +0.000 A 
ATOM     15  C   UNL     1      -0.524  10.589  21.977  0.00  0.00    +0.000 A 
ATOM     16  C   UNL     1      -1.226  10.966  23.138  0.00  0.00    +0.000 A 
ATOM     17  C   UNL     1      -2.206  11.967  23.038  0.00  0.00    +0.000 A 
ATOM     18  C   UNL     1      -2.472  12.594  21.817  0.00  0.00    +0.000 A 
ATOM     19  C   UNL     1      -1.776  12.241  20.657  0.00  0.00    +0.000 A 
ATOM     20  C   UNL     1      -0.822  11.234  20.785  0.00  0.00    +0.000 A 
ATOM     21  O   UNL     1      -0.060  10.743  19.771  0.00  0.00    +0.000 OA
ENDBRANCH  11  13
ENDBRANCH   9  11
ENDBRANCH   6   7
BRANCH   1  22
ATOM     22  O   UNL     1       4.936   5.040  19.224  0.00  0.00    +0.000 OA
BRANCH  22  23
ATOM     23  C   UNL     1       5.879   4.265  18.472  0.00  0.00    +0.000 C 
BRANCH  23  30
ATOM     24  C   UNL     1       5.671   3.774  15.272  0.00  0.00    +0.000 C 
ATOM     25  C   UNL     1       6.435   4.825  15.986  0.00  0.00    +0.000 A 
ATOM     26  N   UNL     1       7.174   5.702  15.297  0.00  0.00    +0.000 NA
ATOM     27  O   UNL     1       7.755   6.525  16.237  0.00  0.00    +0.000 OA
ATOM     28  C   UNL     1       7.371   6.139  17.483  0.00  0.00    +0.000 A 
ATOM     29  C   UNL     1       7.934   6.924  18.597  0.00  0.00    +0.000 C 
ATOM     30  C   UNL     1       6.522   5.054  17.388  0.00  0.00    +0.000 A 
ENDBRANCH  23  30
ENDBRANCH  22  23
ENDBRANCH   1  22
TORSDOF 6
ENDMDL
MODEL 9
REMARK VINA RESULT:      -8.4      1.686      8.146
REMARK  Name = 
REMARK  9 active torsions:
REMARK  status: ('A' for Active; 'I' for Inactive)
REMARK    1  A    between atoms: C_1  and  C_2
REMARK    2  A    between atoms: C_5  and  C_6
REMARK    3  A    between atoms: C_7  and  C_8
REMARK    4  A    between atoms: C_8  and  O_9
REMARK    5  A    between atoms: O_9  and  C_10
REMARK    6  A    between atoms: C_15  and  C_16
REMARK    7  A    between atoms: N_18  and  C_19
REMARK    8  A    between atoms: C_19  and  C_20
REMARK    9  A    between atoms: C_19  and  C_21
REMARK                            x       y       z     vdW  Elec       q    Type
REMARK                         _______ _______ _______ _____ _____    ______ ____
ROOT
ATOM      1  C   UNL     1       2.276   4.982  19.947  0.00  0.00    +0.000 A 
ATOM      2  C   UNL     1       1.119   4.467  20.556  0.00  0.00    +0.000 A 
ATOM      3  C   UNL     1       0.874   3.091  20.602  0.00  0.00    +0.000 A 
ATOM      4  C   UNL     1       1.761   2.208  20.004  0.00  0.00    +0.000 A 
ATOM      5  C   UNL     1       2.908   2.702  19.383  0.00  0.00    +0.000 A 
ATOM      6  C   UNL     1       3.193   4.083  19.360  0.00  0.00    +0.000 A 
ENDROOT
BRANCH   6   7
ATOM      7  C   UNL     1       4.507   4.467  18.733  0.00  0.00    +0.000 C 
ATOM      8  O   UNL     1       5.506   3.778  18.930  0.00  0.00    +0.000 OA
ATOM      9  N   UNL     1       4.564   5.614  17.978  0.00  0.00    +0.000 N 
ATOM     10  H   UNL     1       3.702   6.102  17.759  0.00  0.00    +0.000 HD
BRANCH   9  11
ATOM     11  C   UNL     1       5.788   6.080  17.347  0.00  0.00    +0.000 C 
ATOM     12  C   UNL     1       7.004   5.794  18.224  0.00  0.00    +0.000 C 
BRANCH  11  13
ATOM     13  C   UNL     1       5.933   5.420  16.013  0.00  0.00    +0.000 A 
ATOM     14  C   UNL     1       5.209   4.437  15.359  0.00  0.00    +0.000 A 
ATOM     15  C   UNL     1       5.848   4.219  14.108  0.00  0.00    +0.000 A 
ATOM     16  C   UNL     1       5.645   3.369  13.005  0.00  0.00    +0.000 A 
ATOM     17  C   UNL     1       6.538   3.444  11.923  0.00  0.00    +0.000 A 
ATOM     18  C   UNL     1       7.598   4.354  11.927  0.00  0.00    +0.000 A 
ATOM     19  C   UNL     1       7.807   5.215  13.009  0.00  0.00    +0.000 A 
ATOM     20  C   UNL     1       6.915   5.106  14.072  0.00  0.00    +0.000 A 
ATOM     21  O   UNL     1       6.965   5.840  15.216  0.00  0.00    +0.000 OA
ENDBRANCH  11  13
ENDBRANCH   9  11
ENDBRANCH   6   7
BRANCH   1  22
ATOM     22  O   UNL     1       2.546   6.322  19.854  0.00  0.00    +0.000 OA
BRANCH  22  23
ATOM     23  C   UNL     1       1.910   7.250  20.742  0.00  0.00    +0.000 C 
BRANCH  23  30
ATOM     24  C   UNL     1      -0.341   9.336  21.793  0.00  0.00    +0.000 C 
ATOM     25  C   UNL     1       0.364   9.336  20.489  0.00  0.00    +0.000 A 
ATOM     26  N   UNL     1       0.075  10.263  19.570  0.00  0.00    +0.000 NA
ATOM     27  O   UNL     1       0.883   9.986  18.489  0.00  0.00    +0.000 OA
ATOM     28  C   UNL     1       1.646   8.894  18.756  0.00  0.00    +0.000 A 
ATOM     29  C   UNL     1       2.552   8.466  17.674  0.00  0.00    +0.000 C 
ATOM     30  C   UNL     1       1.361   8.432  20.025  0.00  0.00    +0.000 A 
ENDBRANCH  23  30
ENDBRANCH  22  23
ENDBRANCH   1  22
TORSDOF 6
ENDMDL
