MODEL 1
REMARK VINA RESULT:      -9.1      0.000      0.000
REMARK  Name = 
REMARK  3 active torsions:
REMARK  status: ('A' for Active; 'I' for Inactive)
REMARK    1  A    between atoms: C_7  and  S_8
REMARK    2  A    between atoms: S_8  and  N_11
REMARK    3  A    between atoms: C_14  and  C_15
REMARK                            x       y       z     vdW  Elec       q    Type
REMARK                         _______ _______ _______ _____ _____    ______ ____
ROOT
ATOM      1  S   UNL     1       2.598   5.712  19.552  0.00  0.00    +0.000 S 
ATOM      2  O   UNL     1       2.405   5.506  20.972  0.00  0.00    +0.000 OA
ATOM      3  O   UNL     1       1.920   4.875  18.582  0.00  0.00    +0.000 OA
ENDROOT
BRANCH   1  10
ATOM      4  O   UNL     1      -0.352  12.635  19.884  0.00  0.00    +0.000 OA
ATOM      5  C   UNL     1       0.210  11.574  19.665  0.00  0.00    +0.000 C 
ATOM      6  N   UNL     1       0.887  11.248  18.480  0.00  0.00    +0.000 N 
ATOM      7  C   UNL     1       1.412   9.972  18.512  0.00  0.00    +0.000 A 
ATOM      8  C   UNL     1       2.121   9.262  17.560  0.00  0.00    +0.000 A 
ATOM      9  C   UNL     1       2.479   7.947  17.926  0.00  0.00    +0.000 A 
ATOM     10  C   UNL     1       2.142   7.405  19.194  0.00  0.00    +0.000 A 
ATOM     11  C   UNL     1       1.441   8.184  20.163  0.00  0.00    +0.000 A 
ATOM     12  C   UNL     1       1.006   7.868  21.477  0.00  0.00    +0.000 A 
ATOM     13  C   UNL     1       0.240   8.783  22.227  0.00  0.00    +0.000 A 
ATOM     14  C   UNL     1      -0.092  10.053  21.734  0.00  0.00    +0.000 A 
ATOM     15  C   UNL     1       0.372  10.366  20.457  0.00  0.00    +0.000 A 
ATOM     16  C   UNL     1       1.101   9.429  19.738  0.00  0.00    +0.000 A 
ATOM     17  H   UNL     1       0.960  11.902  17.715  0.00  0.00    +0.000 HD
ENDBRANCH   1  10
BRANCH   1  18
ATOM     18  N   UNL     1       4.254   5.593  19.243  0.00  0.00    +0.000 N 
ATOM     19  C   UNL     1       4.671   5.074  18.032  0.00  0.00    +0.000 A 
ATOM     20  C   UNL     1       4.816   5.751  16.811  0.00  0.00    +0.000 A 
ATOM     21  C   UNL     1       5.244   4.783  15.926  0.00  0.00    +0.000 A 
ATOM     22  N   UNL     1       5.278   3.620  16.651  0.00  0.00    +0.000 N 
ATOM     23  N   UNL     1       5.059   3.808  17.958  0.00  0.00    +0.000 NA
ATOM     24  H   UNL     1       4.679   5.106  20.033  0.00  0.00    +0.000 HD
ATOM     25  H   UNL     1       5.479   2.679  16.323  0.00  0.00    +0.000 HD
BRANCH  21  26
ATOM     26  C   UNL     1       5.633   4.845  14.481  0.00  0.00    +0.000 C 
ATOM     27  C   UNL     1       5.167   3.588  13.730  0.00  0.00    +0.000 C 
ATOM     28  C   UNL     1       5.656   3.567  12.284  0.00  0.00    +0.000 C 
ATOM     29  C   UNL     1       7.168   3.740  12.203  0.00  0.00    +0.000 C 
ATOM     30  C   UNL     1       7.613   5.027  12.888  0.00  0.00    +0.000 C 
ATOM     31  C   UNL     1       7.150   5.070  14.341  0.00  0.00    +0.000 C 
ENDBRANCH  21  26
ENDBRANCH   1  18
TORSDOF 3
ENDMDL
MODEL 2
REMARK VINA RESULT:      -8.8      3.894      5.574
REMARK  Name = 
REMARK  3 active torsions:
REMARK  status: ('A' for Active; 'I' for Inactive)
REMARK    1  A    between atoms: C_7  and  S_8
REMARK    2  A    between atoms: S_8  and  N_11
REMARK    3  A    between atoms: C_14  and  C_15
REMARK                            x       y       z     vdW  Elec       q    Type
REMARK                         _______ _______ _______ _____ _____    ______ ____
ROOT
ATOM      1  S   UNL     1       0.973  10.460  18.752  0.00  0.00    +0.000 S 
ATOM      2  O   UNL     1       1.637  11.736  18.584  0.00  0.00    +0.000 OA
ATOM      3  O   UNL     1       1.082   9.725  19.996  0.00  0.00    +0.000 OA
ENDROOT
BRANCH   1  10
ATOM      4  O   UNL     1      -6.209  12.671  19.287  0.00  0.00    +0.000 OA
ATOM      5  C   UNL     1      -5.099  12.229  19.033  0.00  0.00    +0.000 C 
ATOM      6  N   UNL     1      -4.806  11.333  17.994  0.00  0.00    +0.000 N 
ATOM      7  C   UNL     1      -3.467  10.997  17.956  0.00  0.00    +0.000 A 
ATOM      8  C   UNL     1      -2.773  10.143  17.119  0.00  0.00    +0.000 A 
ATOM      9  C   UNL     1      -1.395  10.012  17.393  0.00  0.00    +0.000 A 
ATOM     10  C   UNL     1      -0.772  10.725  18.450  0.00  0.00    +0.000 A 
ATOM     11  C   UNL     1      -1.517  11.626  19.269  0.00  0.00    +0.000 A 
ATOM     12  C   UNL     1      -1.120  12.440  20.362  0.00  0.00    +0.000 A 
ATOM     13  C   UNL     1      -2.064  13.193  21.087  0.00  0.00    +0.000 A 
ATOM     14  C   UNL     1      -3.424  13.207  20.743  0.00  0.00    +0.000 A 
ATOM     15  C   UNL     1      -3.797  12.433  19.644  0.00  0.00    +0.000 A 
ATOM     16  C   UNL     1      -2.841  11.683  18.972  0.00  0.00    +0.000 A 
ATOM     17  H   UNL     1      -5.521  10.997  17.367  0.00  0.00    +0.000 HD
ENDBRANCH   1  10
BRANCH   1  18
ATOM     18  N   UNL     1       1.516   9.440  17.520  0.00  0.00    +0.000 N 
ATOM     19  C   UNL     1       2.108   8.239  17.861  0.00  0.00    +0.000 A 
ATOM     20  C   UNL     1       1.474   7.021  18.153  0.00  0.00    +0.000 A 
ATOM     21  C   UNL     1       2.506   6.151  18.437  0.00  0.00    +0.000 A 
ATOM     22  N   UNL     1       3.649   6.904  18.342  0.00  0.00    +0.000 N 
ATOM     23  N   UNL     1       3.430   8.136  17.867  0.00  0.00    +0.000 NA
ATOM     24  H   UNL     1       2.108   9.996  16.902  0.00  0.00    +0.000 HD
ATOM     25  H   UNL     1       4.604   6.627  18.550  0.00  0.00    +0.000 HD
BRANCH  21  26
ATOM     26  C   UNL     1       2.527   4.692  18.774  0.00  0.00    +0.000 C 
ATOM     27  C   UNL     1       2.341   3.832  17.514  0.00  0.00    +0.000 C 
ATOM     28  C   UNL     1       2.236   2.345  17.843  0.00  0.00    +0.000 C 
ATOM     29  C   UNL     1       1.143   2.077  18.871  0.00  0.00    +0.000 C 
ATOM     30  C   UNL     1       1.375   2.880  20.145  0.00  0.00    +0.000 C 
ATOM     31  C   UNL     1       1.472   4.373  19.849  0.00  0.00    +0.000 C 
ENDBRANCH  21  26
ENDBRANCH   1  18
TORSDOF 3
ENDMDL
MODEL 3
REMARK VINA RESULT:      -8.7      0.736      1.273
REMARK  Name = 
REMARK  3 active torsions:
REMARK  status: ('A' for Active; 'I' for Inactive)
REMARK    1  A    between atoms: C_7  and  S_8
REMARK    2  A    between atoms: S_8  and  N_11
REMARK    3  A    between atoms: C_14  and  C_15
REMARK                            x       y       z     vdW  Elec       q    Type
REMARK                         _______ _______ _______ _____ _____    ______ ____
ROOT
ATOM      1  S   UNL     1       2.325   5.973  19.776  0.00  0.00    +0.000 S 
ATOM      2  O   UNL     1       1.820   5.728  21.111  0.00  0.00    +0.000 OA
ATOM      3  O   UNL     1       1.903   5.150  18.660  0.00  0.00    +0.000 OA
ENDROOT
BRANCH   1  10
ATOM      4  O   UNL     1      -0.410  12.991  19.853  0.00  0.00    +0.000 OA
ATOM      5  C   UNL     1       0.121  11.907  19.674  0.00  0.00    +0.000 C 
ATOM      6  N   UNL     1       0.800  11.522  18.509  0.00  0.00    +0.000 N 
ATOM      7  C   UNL     1       1.285  10.232  18.588  0.00  0.00    +0.000 A 
ATOM      8  C   UNL     1       1.983   9.471  17.667  0.00  0.00    +0.000 A 
ATOM      9  C   UNL     1       2.295   8.157  18.079  0.00  0.00    +0.000 A 
ATOM     10  C   UNL     1       1.926   7.667  19.359  0.00  0.00    +0.000 A 
ATOM     11  C   UNL     1       1.240   8.498  20.295  0.00  0.00    +0.000 A 
ATOM     12  C   UNL     1       0.780   8.238  21.612  0.00  0.00    +0.000 A 
ATOM     13  C   UNL     1       0.034   9.199  22.324  0.00  0.00    +0.000 A 
ATOM     14  C   UNL     1      -0.253  10.462  21.786  0.00  0.00    +0.000 A 
ATOM     15  C   UNL     1       0.236  10.721  20.506  0.00  0.00    +0.000 A 
ATOM     16  C   UNL     1       0.943   9.739  19.826  0.00  0.00    +0.000 A 
ATOM     17  H   UNL     1       0.902  12.149  17.724  0.00  0.00    +0.000 HD
ENDBRANCH   1  10
BRANCH   1  18
ATOM     18  N   UNL     1       4.011   5.889  19.849  0.00  0.00    +0.000 N 
ATOM     19  C   UNL     1       4.682   5.126  18.912  0.00  0.00    +0.000 A 
ATOM     20  C   UNL     1       5.076   5.505  17.620  0.00  0.00    +0.000 A 
ATOM     21  C   UNL     1       5.694   4.385  17.103  0.00  0.00    +0.000 A 
ATOM     22  N   UNL     1       5.586   3.429  18.081  0.00  0.00    +0.000 N 
ATOM     23  N   UNL     1       5.091   3.905  19.230  0.00  0.00    +0.000 NA
ATOM     24  H   UNL     1       4.263   5.629  20.804  0.00  0.00    +0.000 HD
ATOM     25  H   UNL     1       5.863   2.452  18.040  0.00  0.00    +0.000 HD
BRANCH  21  26
ATOM     26  C   UNL     1       6.381   4.129  15.797  0.00  0.00    +0.000 C 
ATOM     27  C   UNL     1       7.288   5.307  15.411  0.00  0.00    +0.000 C 
ATOM     28  C   UNL     1       7.907   5.127  14.027  0.00  0.00    +0.000 C 
ATOM     29  C   UNL     1       6.840   4.871  12.968  0.00  0.00    +0.000 C 
ATOM     30  C   UNL     1       5.992   3.657  13.325  0.00  0.00    +0.000 C 
ATOM     31  C   UNL     1       5.349   3.813  14.699  0.00  0.00    +0.000 C 
ENDBRANCH  21  26
ENDBRANCH   1  18
TORSDOF 3
ENDMDL
MODEL 4
REMARK VINA RESULT:      -8.6      3.799      5.747
REMARK  Name = 
REMARK  3 active torsions:
REMARK  status: ('A' for Active; 'I' for Inactive)
REMARK    1  A    between atoms: C_7  and  S_8
REMARK    2  A    between atoms: S_8  and  N_11
REMARK    3  A    between atoms: C_14  and  C_15
REMARK                            x       y       z     vdW  Elec       q    Type
REMARK                         _______ _______ _______ _____ _____    ______ ____
ROOT
ATOM      1  S   UNL     1       0.497  10.393  19.445  0.00  0.00    +0.000 S 
ATOM      2  O   UNL     1       1.410  11.500  19.641  0.00  0.00    +0.000 OA
ATOM      3  O   UNL     1       0.434   9.305  20.401  0.00  0.00    +0.000 OA
ENDROOT
BRANCH   1  10
ATOM      4  O   UNL     1      -6.345  12.390  17.008  0.00  0.00    +0.000 OA
ATOM      5  C   UNL     1      -5.287  12.154  17.570  0.00  0.00    +0.000 C 
ATOM      6  N   UNL     1      -4.894  12.686  18.807  0.00  0.00    +0.000 N 
ATOM      7  C   UNL     1      -3.639  12.253  19.186  0.00  0.00    +0.000 A 
ATOM      8  C   UNL     1      -2.881  12.549  20.305  0.00  0.00    +0.000 A 
ATOM      9  C   UNL     1      -1.607  11.943  20.352  0.00  0.00    +0.000 A 
ATOM     10  C   UNL     1      -1.152  11.079  19.322  0.00  0.00    +0.000 A 
ATOM     11  C   UNL     1      -1.980  10.770  18.202  0.00  0.00    +0.000 A 
ATOM     12  C   UNL     1      -1.750   9.944  17.070  0.00  0.00    +0.000 A 
ATOM     13  C   UNL     1      -2.695   9.860  16.029  0.00  0.00    +0.000 A 
ATOM     14  C   UNL     1      -3.915  10.550  16.077  0.00  0.00    +0.000 A 
ATOM     15  C   UNL     1      -4.147  11.329  17.210  0.00  0.00    +0.000 A 
ATOM     16  C   UNL     1      -3.180  11.408  18.203  0.00  0.00    +0.000 A 
ATOM     17  H   UNL     1      -5.491  13.310  19.330  0.00  0.00    +0.000 HD
ENDBRANCH   1  10
BRANCH   1  18
ATOM     18  N   UNL     1       0.839   9.713  17.937  0.00  0.00    +0.000 N 
ATOM     19  C   UNL     1       1.739   8.667  17.866  0.00  0.00    +0.000 A 
ATOM     20  C   UNL     1       1.485   7.301  18.067  0.00  0.00    +0.000 A 
ATOM     21  C   UNL     1       2.710   6.691  17.892  0.00  0.00    +0.000 A 
ATOM     22  N   UNL     1       3.592   7.713  17.652  0.00  0.00    +0.000 N 
ATOM     23  N   UNL     1       2.993   8.901  17.504  0.00  0.00    +0.000 NA
ATOM     24  H   UNL     1       1.092  10.477  17.308  0.00  0.00    +0.000 HD
ATOM     25  H   UNL     1       4.601   7.662  17.542  0.00  0.00    +0.000 HD
BRANCH  21  26
ATOM     26  C   UNL     1       3.129   5.253  17.916  0.00  0.00    +0.000 C 
ATOM     27  C   UNL     1       1.916   4.323  17.762  0.00  0.00    +0.000 C 
ATOM     28  C   UNL     1       2.298   2.852  17.905  0.00  0.00    +0.000 C 
ATOM     29  C   UNL     1       3.041   2.592  19.211  0.00  0.00    +0.000 C 
ATOM     30  C   UNL     1       4.282   3.469  19.322  0.00  0.00    +0.000 C 
ATOM     31  C   UNL     1       3.931   4.948  19.195  0.00  0.00    +0.000 C 
ENDBRANCH  21  26
ENDBRANCH   1  18
TORSDOF 3
ENDMDL
MODEL 5
REMARK VINA RESULT:      -8.4      3.702      5.763
REMARK  Name = 
REMARK  3 active torsions:
REMARK  status: ('A' for Active; 'I' for Inactive)
REMARK    1  A    between atoms: C_7  and  S_8
REMARK    2  A    between atoms: S_8  and  N_11
REMARK    3  A    between atoms: C_14  and  C_15
REMARK                            x       y       z     vdW  Elec       q    Type
REMARK                         _______ _______ _______ _____ _____    ______ ____
ROOT
ATOM      1  S   UNL     1       0.820  10.931  19.136  0.00  0.00    +0.000 S 
ATOM      2  O   UNL     1       1.606  12.119  18.875  0.00  0.00    +0.000 OA
ATOM      3  O   UNL     1       1.068  10.120  20.311  0.00  0.00    +0.000 OA
ENDROOT
BRANCH   1  10
ATOM      4  O   UNL     1      -6.446  12.074  17.510  0.00  0.00    +0.000 OA
ATOM      5  C   UNL     1      -5.308  11.978  17.942  0.00  0.00    +0.000 C 
ATOM      6  N   UNL     1      -4.830  12.606  19.102  0.00  0.00    +0.000 N 
ATOM      7  C   UNL     1      -3.498  12.327  19.336  0.00  0.00    +0.000 A 
ATOM      8  C   UNL     1      -2.648  12.753  20.340  0.00  0.00    +0.000 A 
ATOM      9  C   UNL     1      -1.318  12.289  20.247  0.00  0.00    +0.000 A 
ATOM     10  C   UNL     1      -0.897  11.432  19.197  0.00  0.00    +0.000 A 
ATOM     11  C   UNL     1      -1.815  10.984  18.201  0.00  0.00    +0.000 A 
ATOM     12  C   UNL     1      -1.634  10.135  17.077  0.00  0.00    +0.000 A 
ATOM     13  C   UNL     1      -2.683   9.903  16.166  0.00  0.00    +0.000 A 
ATOM     14  C   UNL     1      -3.957  10.461  16.343  0.00  0.00    +0.000 A 
ATOM     15  C   UNL     1      -4.135  11.263  17.470  0.00  0.00    +0.000 A 
ATOM     16  C   UNL     1      -3.070  11.490  18.331  0.00  0.00    +0.000 A 
ATOM     17  H   UNL     1      -5.425  13.186  19.675  0.00  0.00    +0.000 HD
ENDBRANCH   1  10
BRANCH   1  18
ATOM     18  N   UNL     1       0.969   9.919  17.790  0.00  0.00    +0.000 N 
ATOM     19  C   UNL     1       1.745   8.780  17.895  0.00  0.00    +0.000 A 
ATOM     20  C   UNL     1       1.365   7.526  18.397  0.00  0.00    +0.000 A 
ATOM     21  C   UNL     1       2.501   6.751  18.289  0.00  0.00    +0.000 A 
ATOM     22  N   UNL     1       3.464   7.589  17.788  0.00  0.00    +0.000 N 
ATOM     23  N   UNL     1       2.984   8.784  17.423  0.00  0.00    +0.000 NA
ATOM     24  H   UNL     1       1.250  10.501  17.000  0.00  0.00    +0.000 HD
ATOM     25  H   UNL     1       4.450   7.396  17.637  0.00  0.00    +0.000 HD
BRANCH  21  26
ATOM     26  C   UNL     1       2.766   5.309  18.596  0.00  0.00    +0.000 C 
ATOM     27  C   UNL     1       4.258   4.976  18.433  0.00  0.00    +0.000 C 
ATOM     28  C   UNL     1       4.538   3.487  18.622  0.00  0.00    +0.000 C 
ATOM     29  C   UNL     1       3.670   2.635  17.703  0.00  0.00    +0.000 C 
ATOM     30  C   UNL     1       2.189   2.921  17.923  0.00  0.00    +0.000 C 
ATOM     31  C   UNL     1       1.875   4.401  17.729  0.00  0.00    +0.000 C 
ENDBRANCH  21  26
ENDBRANCH   1  18
TORSDOF 3
ENDMDL
MODEL 6
REMARK VINA RESULT:      -8.4      3.229      8.891
REMARK  Name = 
REMARK  3 active torsions:
REMARK  status: ('A' for Active; 'I' for Inactive)
REMARK    1  A    between atoms: C_7  and  S_8
REMARK    2  A    between atoms: S_8  and  N_11
REMARK    3  A    between atoms: C_14  and  C_15
REMARK                            x       y       z     vdW  Elec       q    Type
REMARK                         _______ _______ _______ _____ _____    ______ ____
ROOT
ATOM      1  S   UNL     1       1.175   8.561  20.899  0.00  0.00    +0.000 S 
ATOM      2  O   UNL     1      -0.201   8.122  21.001  0.00  0.00    +0.000 OA
ATOM      3  O   UNL     1       2.025   8.616  22.072  0.00  0.00    +0.000 OA
ENDROOT
BRANCH   1  10
ATOM      4  O   UNL     1       4.249   2.629  17.419  0.00  0.00    +0.000 OA
ATOM      5  C   UNL     1       3.794   3.689  17.820  0.00  0.00    +0.000 C 
ATOM      6  N   UNL     1       3.940   4.926  17.175  0.00  0.00    +0.000 N 
ATOM      7  C   UNL     1       3.331   5.952  17.869  0.00  0.00    +0.000 A 
ATOM      8  C   UNL     1       3.256   7.307  17.599  0.00  0.00    +0.000 A 
ATOM      9  C   UNL     1       2.569   8.080  18.559  0.00  0.00    +0.000 A 
ATOM     10  C   UNL     1       1.987   7.494  19.713  0.00  0.00    +0.000 A 
ATOM     11  C   UNL     1       2.053   6.086  19.936  0.00  0.00    +0.000 A 
ATOM     12  C   UNL     1       1.550   5.283  20.994  0.00  0.00    +0.000 A 
ATOM     13  C   UNL     1       1.821   3.902  21.048  0.00  0.00    +0.000 A 
ATOM     14  C   UNL     1       2.559   3.250  20.049  0.00  0.00    +0.000 A 
ATOM     15  C   UNL     1       3.016   4.042  18.996  0.00  0.00    +0.000 A 
ATOM     16  C   UNL     1       2.752   5.404  18.991  0.00  0.00    +0.000 A 
ATOM     17  H   UNL     1       4.440   5.013  16.303  0.00  0.00    +0.000 HD
ENDBRANCH   1  10
BRANCH   1  18
ATOM     18  N   UNL     1       1.164  10.106  20.216  0.00  0.00    +0.000 N 
ATOM     19  C   UNL     1       0.077  10.491  19.455  0.00  0.00    +0.000 A 
ATOM     20  C   UNL     1      -1.138  11.030  19.906  0.00  0.00    +0.000 A 
ATOM     21  C   UNL     1      -1.877  11.228  18.757  0.00  0.00    +0.000 A 
ATOM     22  N   UNL     1      -1.089  10.762  17.736  0.00  0.00    +0.000 N 
ATOM     23  N   UNL     1       0.147  10.435  18.132  0.00  0.00    +0.000 NA
ATOM     24  H   UNL     1       2.044  10.222  19.711  0.00  0.00    +0.000 HD
ATOM     25  H   UNL     1      -1.320  10.678  16.750  0.00  0.00    +0.000 HD
BRANCH  21  26
ATOM     26  C   UNL     1      -3.234  11.818  18.524  0.00  0.00    +0.000 C 
ATOM     27  C   UNL     1      -3.832  12.357  19.833  0.00  0.00    +0.000 C 
ATOM     28  C   UNL     1      -5.264  12.854  19.649  0.00  0.00    +0.000 C 
ATOM     29  C   UNL     1      -6.151  11.780  19.027  0.00  0.00    +0.000 C 
ATOM     30  C   UNL     1      -5.587  11.303  17.695  0.00  0.00    +0.000 C 
ATOM     31  C   UNL     1      -4.159  10.789  17.849  0.00  0.00    +0.000 C 
ENDBRANCH  21  26
ENDBRANCH   1  18
TORSDOF 3
ENDMDL
MODEL 7
REMARK VINA RESULT:      -8.4      3.794      5.244
REMARK  Name = 
REMARK  3 active torsions:
REMARK  status: ('A' for Active; 'I' for Inactive)
REMARK    1  A    between atoms: C_7  and  S_8
REMARK    2  A    between atoms: S_8  and  N_11
REMARK    3  A    between atoms: C_14  and  C_15
REMARK                            x       y       z     vdW  Elec       q    Type
REMARK                         _______ _______ _______ _____ _____    ______ ____
ROOT
ATOM      1  S   UNL     1       6.449   5.057  18.454  0.00  0.00    +0.000 S 
ATOM      2  O   UNL     1       6.457   5.870  19.653  0.00  0.00    +0.000 OA
ATOM      3  O   UNL     1       7.558   4.176  18.148  0.00  0.00    +0.000 OA
ENDROOT
BRANCH   1  10
ATOM      4  O   UNL     1      -0.458   2.406  19.872  0.00  0.00    +0.000 OA
ATOM      5  C   UNL     1       0.684   2.674  19.534  0.00  0.00    +0.000 C 
ATOM      6  N   UNL     1       1.550   1.806  18.853  0.00  0.00    +0.000 N 
ATOM      7  C   UNL     1       2.784   2.378  18.617  0.00  0.00    +0.000 A 
ATOM      8  C   UNL     1       3.915   1.868  18.004  0.00  0.00    +0.000 A 
ATOM      9  C   UNL     1       5.027   2.736  17.966  0.00  0.00    +0.000 A 
ATOM     10  C   UNL     1       4.974   4.045  18.509  0.00  0.00    +0.000 A 
ATOM     11  C   UNL     1       3.775   4.548  19.099  0.00  0.00    +0.000 A 
ATOM     12  C   UNL     1       3.482   5.804  19.693  0.00  0.00    +0.000 A 
ATOM     13  C   UNL     1       2.235   6.046  20.301  0.00  0.00    +0.000 A 
ATOM     14  C   UNL     1       1.216   5.081  20.315  0.00  0.00    +0.000 A 
ATOM     15  C   UNL     1       1.502   3.864  19.697  0.00  0.00    +0.000 A 
ATOM     16  C   UNL     1       2.752   3.654  19.131  0.00  0.00    +0.000 A 
ATOM     17  H   UNL     1       1.264   0.877  18.583  0.00  0.00    +0.000 HD
ENDBRANCH   1  10
BRANCH   1  18
ATOM     18  N   UNL     1       6.259   6.098  17.137  0.00  0.00    +0.000 N 
ATOM     19  C   UNL     1       6.576   5.639  15.873  0.00  0.00    +0.000 A 
ATOM     20  C   UNL     1       5.763   4.901  14.999  0.00  0.00    +0.000 A 
ATOM     21  C   UNL     1       6.551   4.692  13.886  0.00  0.00    +0.000 A 
ATOM     22  N   UNL     1       7.761   5.263  14.187  0.00  0.00    +0.000 N 
ATOM     23  N   UNL     1       7.746   5.953  15.333  0.00  0.00    +0.000 NA
ATOM     24  H   UNL     1       6.747   6.966  17.361  0.00  0.00    +0.000 HD
ATOM     25  H   UNL     1       8.617   5.251  13.639  0.00  0.00    +0.000 HD
BRANCH  21  26
ATOM     26  C   UNL     1       6.279   4.023  12.573  0.00  0.00    +0.000 C 
ATOM     27  C   UNL     1       4.854   3.450  12.532  0.00  0.00    +0.000 C 
ATOM     28  C   UNL     1       4.591   2.657  11.254  0.00  0.00    +0.000 C 
ATOM     29  C   UNL     1       5.638   1.569  11.045  0.00  0.00    +0.000 C 
ATOM     30  C   UNL     1       7.044   2.158  11.016  0.00  0.00    +0.000 C 
ATOM     31  C   UNL     1       7.342   2.946  12.288  0.00  0.00    +0.000 C 
ENDBRANCH  21  26
ENDBRANCH   1  18
TORSDOF 3
ENDMDL
MODEL 8
REMARK VINA RESULT:      -8.3      4.154      5.632
REMARK  Name = 
REMARK  3 active torsions:
REMARK  status: ('A' for Active; 'I' for Inactive)
REMARK    1  A    between atoms: C_7  and  S_8
REMARK    2  A    between atoms: S_8  and  N_11
REMARK    3  A    between atoms: C_14  and  C_15
REMARK                            x       y       z     vdW  Elec       q    Type
REMARK                         _______ _______ _______ _____ _____    ______ ____
ROOT
ATOM      1  S   UNL     1       1.068  10.376  18.706  0.00  0.00    +0.000 S 
ATOM      2  O   UNL     1       1.767  11.621  18.464  0.00  0.00    +0.000 OA
ATOM      3  O   UNL     1       1.189   9.692  19.978  0.00  0.00    +0.000 OA
ENDROOT
BRANCH   1  10
ATOM      4  O   UNL     1      -6.044  12.763  19.394  0.00  0.00    +0.000 OA
ATOM      5  C   UNL     1      -4.951  12.295  19.116  0.00  0.00    +0.000 C 
ATOM      6  N   UNL     1      -4.701  11.396  18.068  0.00  0.00    +0.000 N 
ATOM      7  C   UNL     1      -3.373  11.028  18.002  0.00  0.00    +0.000 A 
ATOM      8  C   UNL     1      -2.717  10.159  17.147  0.00  0.00    +0.000 A 
ATOM      9  C   UNL     1      -1.337   9.993  17.393  0.00  0.00    +0.000 A 
ATOM     10  C   UNL     1      -0.675  10.686  18.440  0.00  0.00    +0.000 A 
ATOM     11  C   UNL     1      -1.381  11.602  19.277  0.00  0.00    +0.000 A 
ATOM     12  C   UNL     1      -0.942  12.401  20.365  0.00  0.00    +0.000 A 
ATOM     13  C   UNL     1      -1.853  13.174  21.112  0.00  0.00    +0.000 A 
ATOM     14  C   UNL     1      -3.218  13.223  20.795  0.00  0.00    +0.000 A 
ATOM     15  C   UNL     1      -3.632  12.464  19.702  0.00  0.00    +0.000 A 
ATOM     16  C   UNL     1      -2.709  11.694  19.007  0.00  0.00    +0.000 A 
ATOM     17  H   UNL     1      -5.437  11.080  17.454  0.00  0.00    +0.000 HD
ENDBRANCH   1  10
BRANCH   1  18
ATOM     18  N   UNL     1       1.542   9.287  17.505  0.00  0.00    +0.000 N 
ATOM     19  C   UNL     1       2.119   8.089  17.882  0.00  0.00    +0.000 A 
ATOM     20  C   UNL     1       1.469   6.902  18.254  0.00  0.00    +0.000 A 
ATOM     21  C   UNL     1       2.492   6.022  18.542  0.00  0.00    +0.000 A 
ATOM     22  N   UNL     1       3.647   6.741  18.372  0.00  0.00    +0.000 N 
ATOM     23  N   UNL     1       3.438   7.954  17.846  0.00  0.00    +0.000 NA
ATOM     24  H   UNL     1       2.125   9.799  16.841  0.00  0.00    +0.000 HD
ATOM     25  H   UNL     1       4.603   6.451  18.558  0.00  0.00    +0.000 HD
BRANCH  21  26
ATOM     26  C   UNL     1       2.492   4.580  18.948  0.00  0.00    +0.000 C 
ATOM     27  C   UNL     1       1.358   4.287  19.944  0.00  0.00    +0.000 C 
ATOM     28  C   UNL     1       1.409   2.854  20.467  0.00  0.00    +0.000 C 
ATOM     29  C   UNL     1       2.775   2.525  21.060  0.00  0.00    +0.000 C 
ATOM     30  C   UNL     1       3.885   2.750  20.041  0.00  0.00    +0.000 C 
ATOM     31  C   UNL     1       3.869   4.179  19.508  0.00  0.00    +0.000 C 
ENDBRANCH  21  26
ENDBRANCH   1  18
TORSDOF 3
ENDMDL
MODEL 9
REMARK VINA RESULT:      -8.3      4.232      6.750
REMARK  Name = 
REMARK  3 active torsions:
REMARK  status: ('A' for Active; 'I' for Inactive)
REMARK    1  A    between atoms: C_7  and  S_8
REMARK    2  A    between atoms: S_8  and  N_11
REMARK    3  A    between atoms: C_14  and  C_15
REMARK                            x       y       z     vdW  Elec       q    Type
REMARK                         _______ _______ _______ _____ _____    ______ ____
ROOT
ATOM      1  S   UNL     1      -0.480  11.299  19.301  0.00  0.00    +0.000 S 
ATOM      2  O   UNL     1      -1.130  10.073  18.885  0.00  0.00    +0.000 OA
ATOM      3  O   UNL     1      -0.325  12.406  18.378  0.00  0.00    +0.000 OA
ENDROOT
BRANCH   1  10
ATOM      4  O   UNL     1      -5.741  14.248  23.814  0.00  0.00    +0.000 OA
ATOM      5  C   UNL     1      -4.782  13.750  23.245  0.00  0.00    +0.000 C 
ATOM      6  N   UNL     1      -3.533  13.505  23.833  0.00  0.00    +0.000 N 
ATOM      7  C   UNL     1      -2.637  12.946  22.943  0.00  0.00    +0.000 A 
ATOM      8  C   UNL     1      -1.314  12.575  23.105  0.00  0.00    +0.000 A 
ATOM      9  C   UNL     1      -0.684  12.058  21.952  0.00  0.00    +0.000 A 
ATOM     10  C   UNL     1      -1.374  11.921  20.721  0.00  0.00    +0.000 A 
ATOM     11  C   UNL     1      -2.751  12.281  20.605  0.00  0.00    +0.000 A 
ATOM     12  C   UNL     1      -3.640  12.229  19.499  0.00  0.00    +0.000 A 
ATOM     13  C   UNL     1      -4.952  12.731  19.599  0.00  0.00    +0.000 A 
ATOM     14  C   UNL     1      -5.454  13.265  20.796  0.00  0.00    +0.000 A 
ATOM     15  C   UNL     1      -4.584  13.277  21.885  0.00  0.00    +0.000 A 
ATOM     16  C   UNL     1      -3.289  12.798  21.740  0.00  0.00    +0.000 A 
ATOM     17  H   UNL     1      -3.350  13.725  24.801  0.00  0.00    +0.000 HD
ENDBRANCH   1  10
BRANCH   1  18
ATOM     18  N   UNL     1       1.063  10.892  19.856  0.00  0.00    +0.000 N 
ATOM     19  C   UNL     1       1.346   9.566  20.127  0.00  0.00    +0.000 A 
ATOM     20  C   UNL     1       1.757   8.574  19.223  0.00  0.00    +0.000 A 
ATOM     21  C   UNL     1       1.891   7.437  19.994  0.00  0.00    +0.000 A 
ATOM     22  N   UNL     1       1.515   7.811  21.259  0.00  0.00    +0.000 N 
ATOM     23  N   UNL     1       1.309   9.129  21.378  0.00  0.00    +0.000 NA
ATOM     24  H   UNL     1       1.271  11.496  20.651  0.00  0.00    +0.000 HD
ATOM     25  H   UNL     1       1.418   7.229  22.085  0.00  0.00    +0.000 HD
BRANCH  21  26
ATOM     26  C   UNL     1       2.345   6.048  19.665  0.00  0.00    +0.000 C 
ATOM     27  C   UNL     1       2.259   5.783  18.154  0.00  0.00    +0.000 C 
ATOM     28  C   UNL     1       2.599   4.337  17.804  0.00  0.00    +0.000 C 
ATOM     29  C   UNL     1       1.743   3.354  18.595  0.00  0.00    +0.000 C 
ATOM     30  C   UNL     1       1.891   3.579  20.095  0.00  0.00    +0.000 C 
ATOM     31  C   UNL     1       1.545   5.014  20.478  0.00  0.00    +0.000 C 
ENDBRANCH  21  26
ENDBRANCH   1  18
TORSDOF 3
ENDMDL
