MODEL 1
REMARK VINA RESULT:     -10.0      0.000      0.000
REMARK  Name = 
REMARK  3 active torsions:
REMARK  status: ('A' for Active; 'I' for Inactive)
REMARK    1  A    between atoms: C_4  and  C_5
REMARK    2  A    between atoms: C_7  and  C_8
REMARK    3  A    between atoms: N_21  and  C_22
REMARK                            x       y       z     vdW  Elec       q    Type
REMARK                         _______ _______ _______ _____ _____    ______ ____
ROOT
ATOM      1  C   UNL     1       7.800   6.837  18.124  0.00  0.00    +0.000 A 
ATOM      2  N   UNL     1       8.575   7.622  18.831  0.00  0.00    +0.000 NA
ATOM      3  C   UNL     1       8.362   8.854  18.256  0.00  0.00    +0.000 A 
ATOM      4  N   UNL     1       7.491   8.827  17.231  0.00  0.00    +0.000 NA
ATOM      5  O   UNL     1       7.120   7.488  17.142  0.00  0.00    +0.000 OA
ENDROOT
BRANCH   3   6
ATOM      6  C   UNL     1       9.020  10.052  18.750  0.00  0.00    +0.000 A 
ATOM      7  C   UNL     1       9.167  10.276  20.123  0.00  0.00    +0.000 A 
ATOM      8  C   UNL     1       9.825  11.416  20.589  0.00  0.00    +0.000 A 
ATOM      9  C   UNL     1      10.345  12.361  19.693  0.00  0.00    +0.000 A 
ATOM     10  C   UNL     1      11.022  13.502  20.149  0.00  0.00    +0.000 A 
ATOM     11  C   UNL     1      11.533  14.435  19.245  0.00  0.00    +0.000 A 
ATOM     12  C   UNL     1      11.365  14.244  17.878  0.00  0.00    +0.000 A 
ATOM     13  C   UNL     1      10.696  13.113  17.407  0.00  0.00    +0.000 A 
ATOM     14  C   UNL     1      10.187  12.159  18.305  0.00  0.00    +0.000 A 
ATOM     15  C   UNL     1       9.526  11.004  17.850  0.00  0.00    +0.000 A 
ENDBRANCH   3   6
BRANCH   1  19
ATOM     16  O   UNL     1       4.638   4.870  16.343  0.00  0.00    +0.000 OA
ATOM     17  C   UNL     1       5.473   4.965  17.230  0.00  0.00    +0.000 C 
ATOM     18  C   UNL     1       6.953   4.807  16.978  0.00  0.00    +0.000 C 
ATOM     19  C   UNL     1       7.588   5.371  18.242  0.00  0.00    +0.000 C 
ATOM     20  C   UNL     1       6.550   5.066  19.312  0.00  0.00    +0.000 C 
ATOM     21  N   UNL     1       5.286   5.115  18.611  0.00  0.00    +0.000 N 
BRANCH  21  22
ATOM     22  C   UNL     1       4.034   5.205  19.278  0.00  0.00    +0.000 A 
ATOM     23  C   UNL     1       3.328   6.415  19.324  0.00  0.00    +0.000 A 
ATOM     24  C   UNL     1       2.085   6.508  19.960  0.00  0.00    +0.000 A 
ATOM     25  C   UNL     1       1.520   5.389  20.564  0.00  0.00    +0.000 A 
ATOM     26  C   UNL     1       2.208   4.181  20.546  0.00  0.00    +0.000 A 
ATOM     27  C   UNL     1       3.452   4.096  19.917  0.00  0.00    +0.000 A 
ATOM     28  F   UNL     1       4.054   2.897  19.911  0.00  0.00    +0.000 F 
ENDBRANCH  21  22
ENDBRANCH   1  19
TORSDOF 3
ENDMDL
MODEL 2
REMARK VINA RESULT:      -9.8      0.912      1.281
REMARK  Name = 
REMARK  3 active torsions:
REMARK  status: ('A' for Active; 'I' for Inactive)
REMARK    1  A    between atoms: C_4  and  C_5
REMARK    2  A    between atoms: C_7  and  C_8
REMARK    3  A    between atoms: N_21  and  C_22
REMARK                            x       y       z     vdW  Elec       q    Type
REMARK                         _______ _______ _______ _____ _____    ______ ____
ROOT
ATOM      1  C   UNL     1       7.821   6.840  18.140  0.00  0.00    +0.000 A 
ATOM      2  N   UNL     1       8.576   7.632  18.860  0.00  0.00    +0.000 NA
ATOM      3  C   UNL     1       8.388   8.856  18.260  0.00  0.00    +0.000 A 
ATOM      4  N   UNL     1       7.550   8.819  17.208  0.00  0.00    +0.000 NA
ATOM      5  O   UNL     1       7.176   7.479  17.126  0.00  0.00    +0.000 OA
ENDROOT
BRANCH   3   6
ATOM      6  C   UNL     1       9.034  10.060  18.758  0.00  0.00    +0.000 A 
ATOM      7  C   UNL     1       9.168  10.286  20.132  0.00  0.00    +0.000 A 
ATOM      8  C   UNL     1       9.816  11.431  20.602  0.00  0.00    +0.000 A 
ATOM      9  C   UNL     1      10.339  12.377  19.708  0.00  0.00    +0.000 A 
ATOM     10  C   UNL     1      11.006  13.522  20.168  0.00  0.00    +0.000 A 
ATOM     11  C   UNL     1      11.520  14.457  19.267  0.00  0.00    +0.000 A 
ATOM     12  C   UNL     1      11.366  14.262  17.899  0.00  0.00    +0.000 A 
ATOM     13  C   UNL     1      10.707  13.126  17.425  0.00  0.00    +0.000 A 
ATOM     14  C   UNL     1      10.195  12.172  18.319  0.00  0.00    +0.000 A 
ATOM     15  C   UNL     1       9.544  11.012  17.860  0.00  0.00    +0.000 A 
ENDBRANCH   3   6
BRANCH   1  19
ATOM     16  O   UNL     1       4.672   4.871  16.338  0.00  0.00    +0.000 OA
ATOM     17  C   UNL     1       5.495   4.972  17.235  0.00  0.00    +0.000 C 
ATOM     18  C   UNL     1       6.978   4.802  17.006  0.00  0.00    +0.000 C 
ATOM     19  C   UNL     1       7.598   5.377  18.273  0.00  0.00    +0.000 C 
ATOM     20  C   UNL     1       6.544   5.091  19.331  0.00  0.00    +0.000 C 
ATOM     21  N   UNL     1       5.290   5.139  18.612  0.00  0.00    +0.000 N 
BRANCH  21  22
ATOM     22  C   UNL     1       4.029   5.244  19.260  0.00  0.00    +0.000 A 
ATOM     23  C   UNL     1       3.550   4.208  20.075  0.00  0.00    +0.000 A 
ATOM     24  C   UNL     1       2.321   4.312  20.735  0.00  0.00    +0.000 A 
ATOM     25  C   UNL     1       1.542   5.456  20.595  0.00  0.00    +0.000 A 
ATOM     26  C   UNL     1       1.988   6.491  19.779  0.00  0.00    +0.000 A 
ATOM     27  C   UNL     1       3.212   6.379  19.117  0.00  0.00    +0.000 A 
ATOM     28  F   UNL     1       3.599   7.422  18.366  0.00  0.00    +0.000 F 
ENDBRANCH  21  22
ENDBRANCH   1  19
TORSDOF 3
ENDMDL
MODEL 3
REMARK VINA RESULT:      -9.7      1.598      2.107
REMARK  Name = 
REMARK  3 active torsions:
REMARK  status: ('A' for Active; 'I' for Inactive)
REMARK    1  A    between atoms: C_4  and  C_5
REMARK    2  A    between atoms: C_7  and  C_8
REMARK    3  A    between atoms: N_21  and  C_22
REMARK                            x       y       z     vdW  Elec       q    Type
REMARK                         _______ _______ _______ _____ _____    ______ ____
ROOT
ATOM      1  C   UNL     1       7.714   6.874  18.320  0.00  0.00    +0.000 A 
ATOM      2  N   UNL     1       8.530   7.827  18.696  0.00  0.00    +0.000 NA
ATOM      3  C   UNL     1       8.083   8.910  17.975  0.00  0.00    +0.000 A 
ATOM      4  N   UNL     1       7.033   8.633  17.181  0.00  0.00    +0.000 NA
ATOM      5  O   UNL     1       6.790   7.281  17.408  0.00  0.00    +0.000 OA
ENDROOT
BRANCH   3   6
ATOM      6  C   UNL     1       8.701  10.220  18.100  0.00  0.00    +0.000 A 
ATOM      7  C   UNL     1       8.084  11.358  17.568  0.00  0.00    +0.000 A 
ATOM      8  C   UNL     1       8.671  12.617  17.718  0.00  0.00    +0.000 A 
ATOM      9  C   UNL     1       9.889  12.765  18.397  0.00  0.00    +0.000 A 
ATOM     10  C   UNL     1      10.479  14.027  18.567  0.00  0.00    +0.000 A 
ATOM     11  C   UNL     1      11.692  14.159  19.244  0.00  0.00    +0.000 A 
ATOM     12  C   UNL     1      12.333  13.033  19.750  0.00  0.00    +0.000 A 
ATOM     13  C   UNL     1      11.759  11.771  19.591  0.00  0.00    +0.000 A 
ATOM     14  C   UNL     1      10.532  11.624  18.922  0.00  0.00    +0.000 A 
ATOM     15  C   UNL     1       9.928  10.363  18.768  0.00  0.00    +0.000 A 
ENDBRANCH   3   6
BRANCH   1  19
ATOM     16  O   UNL     1       6.297   3.858  15.884  0.00  0.00    +0.000 OA
ATOM     17  C   UNL     1       6.509   4.323  16.994  0.00  0.00    +0.000 C 
ATOM     18  C   UNL     1       7.902   4.527  17.541  0.00  0.00    +0.000 C 
ATOM     19  C   UNL     1       7.680   5.448  18.734  0.00  0.00    +0.000 C 
ATOM     20  C   UNL     1       6.287   5.063  19.209  0.00  0.00    +0.000 C 
ATOM     21  N   UNL     1       5.598   4.650  18.007  0.00  0.00    +0.000 N 
BRANCH  21  22
ATOM     22  C   UNL     1       4.185   4.513  17.934  0.00  0.00    +0.000 A 
ATOM     23  C   UNL     1       3.587   3.247  17.853  0.00  0.00    +0.000 A 
ATOM     24  C   UNL     1       2.197   3.102  17.803  0.00  0.00    +0.000 A 
ATOM     25  C   UNL     1       1.372   4.221  17.832  0.00  0.00    +0.000 A 
ATOM     26  C   UNL     1       1.940   5.489  17.896  0.00  0.00    +0.000 A 
ATOM     27  C   UNL     1       3.329   5.629  17.938  0.00  0.00    +0.000 A 
ATOM     28  F   UNL     1       3.816   6.876  18.025  0.00  0.00    +0.000 F 
ENDBRANCH  21  22
ENDBRANCH   1  19
TORSDOF 3
ENDMDL
MODEL 4
REMARK VINA RESULT:      -9.6      1.216      1.227
REMARK  Name = 
REMARK  3 active torsions:
REMARK  status: ('A' for Active; 'I' for Inactive)
REMARK    1  A    between atoms: C_4  and  C_5
REMARK    2  A    between atoms: C_7  and  C_8
REMARK    3  A    between atoms: N_21  and  C_22
REMARK                            x       y       z     vdW  Elec       q    Type
REMARK                         _______ _______ _______ _____ _____    ______ ____
ROOT
ATOM      1  C   UNL     1       7.889   6.763  18.262  0.00  0.00    +0.000 A 
ATOM      2  N   UNL     1       8.641   7.603  18.930  0.00  0.00    +0.000 NA
ATOM      3  C   UNL     1       8.379   8.803  18.308  0.00  0.00    +0.000 A 
ATOM      4  N   UNL     1       7.501   8.704  17.294  0.00  0.00    +0.000 NA
ATOM      5  O   UNL     1       7.178   7.350  17.262  0.00  0.00    +0.000 OA
ENDROOT
BRANCH   3   6
ATOM      6  C   UNL     1       8.998  10.043  18.748  0.00  0.00    +0.000 A 
ATOM      7  C   UNL     1       9.155  10.322  20.110  0.00  0.00    +0.000 A 
ATOM      8  C   UNL     1       9.776  11.503  20.524  0.00  0.00    +0.000 A 
ATOM      9  C   UNL     1      10.247  12.433  19.586  0.00  0.00    +0.000 A 
ATOM     10  C   UNL     1      10.887  13.614  19.990  0.00  0.00    +0.000 A 
ATOM     11  C   UNL     1      11.349  14.532  19.045  0.00  0.00    +0.000 A 
ATOM     12  C   UNL     1      11.171  14.283  17.688  0.00  0.00    +0.000 A 
ATOM     13  C   UNL     1      10.539  13.111  17.269  0.00  0.00    +0.000 A 
ATOM     14  C   UNL     1      10.078  12.173  18.209  0.00  0.00    +0.000 A 
ATOM     15  C   UNL     1       9.455  10.978  17.806  0.00  0.00    +0.000 A 
ENDBRANCH   3   6
BRANCH   1  19
ATOM     16  O   UNL     1       5.981   4.355  15.506  0.00  0.00    +0.000 OA
ATOM     17  C   UNL     1       6.322   4.602  16.652  0.00  0.00    +0.000 C 
ATOM     18  C   UNL     1       7.765   4.577  17.099  0.00  0.00    +0.000 C 
ATOM     19  C   UNL     1       7.731   5.297  18.440  0.00  0.00    +0.000 C 
ATOM     20  C   UNL     1       6.342   4.970  18.969  0.00  0.00    +0.000 C 
ATOM     21  N   UNL     1       5.527   4.836  17.783  0.00  0.00    +0.000 N 
BRANCH  21  22
ATOM     22  C   UNL     1       4.106   4.848  17.814  0.00  0.00    +0.000 A 
ATOM     23  C   UNL     1       3.400   6.045  18.005  0.00  0.00    +0.000 A 
ATOM     24  C   UNL     1       2.002   6.070  18.016  0.00  0.00    +0.000 A 
ATOM     25  C   UNL     1       1.276   4.896  17.836  0.00  0.00    +0.000 A 
ATOM     26  C   UNL     1       1.953   3.694  17.660  0.00  0.00    +0.000 A 
ATOM     27  C   UNL     1       3.349   3.674  17.658  0.00  0.00    +0.000 A 
ATOM     28  F   UNL     1       3.944   2.487  17.458  0.00  0.00    +0.000 F 
ENDBRANCH  21  22
ENDBRANCH   1  19
TORSDOF 3
ENDMDL
MODEL 5
REMARK VINA RESULT:      -9.6      1.417      1.733
REMARK  Name = 
REMARK  3 active torsions:
REMARK  status: ('A' for Active; 'I' for Inactive)
REMARK    1  A    between atoms: C_4  and  C_5
REMARK    2  A    between atoms: C_7  and  C_8
REMARK    3  A    between atoms: N_21  and  C_22
REMARK                            x       y       z     vdW  Elec       q    Type
REMARK                         _______ _______ _______ _____ _____    ______ ____
ROOT
ATOM      1  C   UNL     1       7.707   6.853  18.253  0.00  0.00    +0.000 A 
ATOM      2  N   UNL     1       8.495   7.813  18.672  0.00  0.00    +0.000 NA
ATOM      3  C   UNL     1       8.090   8.888  17.915  0.00  0.00    +0.000 A 
ATOM      4  N   UNL     1       7.091   8.601  17.061  0.00  0.00    +0.000 NA
ATOM      5  O   UNL     1       6.839   7.249  17.283  0.00  0.00    +0.000 OA
ENDROOT
BRANCH   3   6
ATOM      6  C   UNL     1       8.694  10.202  18.068  0.00  0.00    +0.000 A 
ATOM      7  C   UNL     1       8.050  11.348  17.588  0.00  0.00    +0.000 A 
ATOM      8  C   UNL     1       8.624  12.609  17.764  0.00  0.00    +0.000 A 
ATOM      9  C   UNL     1       9.857  12.752  18.417  0.00  0.00    +0.000 A 
ATOM     10  C   UNL     1      10.435  14.015  18.613  0.00  0.00    +0.000 A 
ATOM     11  C   UNL     1      11.664  14.142  19.264  0.00  0.00    +0.000 A 
ATOM     12  C   UNL     1      12.332  13.009  19.716  0.00  0.00    +0.000 A 
ATOM     13  C   UNL     1      11.769  11.745  19.531  0.00  0.00    +0.000 A 
ATOM     14  C   UNL     1      10.528  11.603  18.888  0.00  0.00    +0.000 A 
ATOM     15  C   UNL     1       9.936  10.340  18.709  0.00  0.00    +0.000 A 
ENDBRANCH   3   6
BRANCH   1  19
ATOM     16  O   UNL     1       6.177   3.855  15.866  0.00  0.00    +0.000 OA
ATOM     17  C   UNL     1       6.422   4.321  16.967  0.00  0.00    +0.000 C 
ATOM     18  C   UNL     1       7.830   4.499  17.484  0.00  0.00    +0.000 C 
ATOM     19  C   UNL     1       7.653   5.431  18.676  0.00  0.00    +0.000 C 
ATOM     20  C   UNL     1       6.263   5.077  19.183  0.00  0.00    +0.000 C 
ATOM     21  N   UNL     1       5.539   4.673  17.998  0.00  0.00    +0.000 N 
BRANCH  21  22
ATOM     22  C   UNL     1       4.123   4.564  17.955  0.00  0.00    +0.000 A 
ATOM     23  C   UNL     1       3.314   5.710  17.931  0.00  0.00    +0.000 A 
ATOM     24  C   UNL     1       1.920   5.613  17.867  0.00  0.00    +0.000 A 
ATOM     25  C   UNL     1       1.302   4.367  17.825  0.00  0.00    +0.000 A 
ATOM     26  C   UNL     1       2.082   3.216  17.864  0.00  0.00    +0.000 A 
ATOM     27  C   UNL     1       3.472   3.318  17.936  0.00  0.00    +0.000 A 
ATOM     28  F   UNL     1       4.171   2.172  17.944  0.00  0.00    +0.000 F 
ENDBRANCH  21  22
ENDBRANCH   1  19
TORSDOF 3
ENDMDL
MODEL 6
REMARK VINA RESULT:      -9.5      0.798      1.314
REMARK  Name = 
REMARK  3 active torsions:
REMARK  status: ('A' for Active; 'I' for Inactive)
REMARK    1  A    between atoms: C_4  and  C_5
REMARK    2  A    between atoms: C_7  and  C_8
REMARK    3  A    between atoms: N_21  and  C_22
REMARK                            x       y       z     vdW  Elec       q    Type
REMARK                         _______ _______ _______ _____ _____    ______ ____
ROOT
ATOM      1  C   UNL     1       7.659   6.810  18.103  0.00  0.00    +0.000 A 
ATOM      2  N   UNL     1       8.430   7.772  18.546  0.00  0.00    +0.000 NA
ATOM      3  C   UNL     1       7.978   8.868  17.847  0.00  0.00    +0.000 A 
ATOM      4  N   UNL     1       6.969   8.591  17.002  0.00  0.00    +0.000 NA
ATOM      5  O   UNL     1       6.759   7.224  17.170  0.00  0.00    +0.000 OA
ENDROOT
BRANCH   3   6
ATOM      6  C   UNL     1       8.550  10.191  18.045  0.00  0.00    +0.000 A 
ATOM      7  C   UNL     1       7.964  11.319  17.461  0.00  0.00    +0.000 A 
ATOM      8  C   UNL     1       8.503  12.589  17.680  0.00  0.00    +0.000 A 
ATOM      9  C   UNL     1       9.643  12.758  18.480  0.00  0.00    +0.000 A 
ATOM     10  C   UNL     1      10.183  14.030  18.719  0.00  0.00    +0.000 A 
ATOM     11  C   UNL     1      11.319  14.183  19.517  0.00  0.00    +0.000 A 
ATOM     12  C   UNL     1      11.931  13.066  20.076  0.00  0.00    +0.000 A 
ATOM     13  C   UNL     1      11.404  11.793  19.850  0.00  0.00    +0.000 A 
ATOM     14  C   UNL     1      10.255  11.626  19.059  0.00  0.00    +0.000 A 
ATOM     15  C   UNL     1       9.699  10.354  18.835  0.00  0.00    +0.000 A 
ENDBRANCH   3   6
BRANCH   1  19
ATOM     16  O   UNL     1       4.938   4.118  16.559  0.00  0.00    +0.000 OA
ATOM     17  C   UNL     1       5.690   4.484  17.449  0.00  0.00    +0.000 C 
ATOM     18  C   UNL     1       7.191   4.515  17.290  0.00  0.00    +0.000 C 
ATOM     19  C   UNL     1       7.653   5.370  18.463  0.00  0.00    +0.000 C 
ATOM     20  C   UNL     1       6.600   5.089  19.525  0.00  0.00    +0.000 C 
ATOM     21  N   UNL     1       5.392   4.828  18.775  0.00  0.00    +0.000 N 
BRANCH  21  22
ATOM     22  C   UNL     1       4.099   4.834  19.365  0.00  0.00    +0.000 A 
ATOM     23  C   UNL     1       3.353   6.018  19.455  0.00  0.00    +0.000 A 
ATOM     24  C   UNL     1       2.071   6.029  20.013  0.00  0.00    +0.000 A 
ATOM     25  C   UNL     1       1.504   4.854  20.495  0.00  0.00    +0.000 A 
ATOM     26  C   UNL     1       2.229   3.668  20.432  0.00  0.00    +0.000 A 
ATOM     27  C   UNL     1       3.512   3.665  19.881  0.00  0.00    +0.000 A 
ATOM     28  F   UNL     1       4.151   2.486  19.824  0.00  0.00    +0.000 F 
ENDBRANCH  21  22
ENDBRANCH   1  19
TORSDOF 3
ENDMDL
MODEL 7
REMARK VINA RESULT:      -9.3      1.592      1.844
REMARK  Name = 
REMARK  3 active torsions:
REMARK  status: ('A' for Active; 'I' for Inactive)
REMARK    1  A    between atoms: C_4  and  C_5
REMARK    2  A    between atoms: C_7  and  C_8
REMARK    3  A    between atoms: N_21  and  C_22
REMARK                            x       y       z     vdW  Elec       q    Type
REMARK                         _______ _______ _______ _____ _____    ______ ____
ROOT
ATOM      1  C   UNL     1       7.779   6.684  18.022  0.00  0.00    +0.000 A 
ATOM      2  N   UNL     1       8.503   7.549  18.690  0.00  0.00    +0.000 NA
ATOM      3  C   UNL     1       8.157   8.746  18.107  0.00  0.00    +0.000 A 
ATOM      4  N   UNL     1       7.256   8.624  17.116  0.00  0.00    +0.000 NA
ATOM      5  O   UNL     1       7.007   7.254  17.057  0.00  0.00    +0.000 OA
ENDROOT
BRANCH   3   6
ATOM      6  C   UNL     1       8.719  10.008  18.561  0.00  0.00    +0.000 A 
ATOM      7  C   UNL     1       9.553  10.060  19.683  0.00  0.00    +0.000 A 
ATOM      8  C   UNL     1      10.112  11.272  20.095  0.00  0.00    +0.000 A 
ATOM      9  C   UNL     1       9.842  12.460  19.400  0.00  0.00    +0.000 A 
ATOM     10  C   UNL     1      10.410  13.680  19.796  0.00  0.00    +0.000 A 
ATOM     11  C   UNL     1      10.132  14.855  19.095  0.00  0.00    +0.000 A 
ATOM     12  C   UNL     1       9.277  14.825  17.998  0.00  0.00    +0.000 A 
ATOM     13  C   UNL     1       8.706  13.619  17.590  0.00  0.00    +0.000 A 
ATOM     14  C   UNL     1       8.986  12.426  18.278  0.00  0.00    +0.000 A 
ATOM     15  C   UNL     1       8.435  11.198  17.871  0.00  0.00    +0.000 A 
ENDBRANCH   3   6
BRANCH   1  19
ATOM     16  O   UNL     1       5.823   4.252  15.322  0.00  0.00    +0.000 OA
ATOM     17  C   UNL     1       6.224   4.486  16.452  0.00  0.00    +0.000 C 
ATOM     18  C   UNL     1       7.691   4.525  16.806  0.00  0.00    +0.000 C 
ATOM     19  C   UNL     1       7.707   5.208  18.167  0.00  0.00    +0.000 C 
ATOM     20  C   UNL     1       6.375   4.795  18.773  0.00  0.00    +0.000 C 
ATOM     21  N   UNL     1       5.492   4.649  17.636  0.00  0.00    +0.000 N 
BRANCH  21  22
ATOM     22  C   UNL     1       4.077   4.585  17.758  0.00  0.00    +0.000 A 
ATOM     23  C   UNL     1       3.411   3.352  17.767  0.00  0.00    +0.000 A 
ATOM     24  C   UNL     1       2.021   3.278  17.908  0.00  0.00    +0.000 A 
ATOM     25  C   UNL     1       1.266   4.438  18.045  0.00  0.00    +0.000 A 
ATOM     26  C   UNL     1       1.902   5.675  18.024  0.00  0.00    +0.000 A 
ATOM     27  C   UNL     1       3.288   5.743  17.874  0.00  0.00    +0.000 A 
ATOM     28  F   UNL     1       3.847   6.963  17.888  0.00  0.00    +0.000 F 
ENDBRANCH  21  22
ENDBRANCH   1  19
TORSDOF 3
ENDMDL
MODEL 8
REMARK VINA RESULT:      -9.3      1.150      1.776
REMARK  Name = 
REMARK  3 active torsions:
REMARK  status: ('A' for Active; 'I' for Inactive)
REMARK    1  A    between atoms: C_4  and  C_5
REMARK    2  A    between atoms: C_7  and  C_8
REMARK    3  A    between atoms: N_21  and  C_22
REMARK                            x       y       z     vdW  Elec       q    Type
REMARK                         _______ _______ _______ _____ _____    ______ ____
ROOT
ATOM      1  C   UNL     1       7.675   6.828  18.106  0.00  0.00    +0.000 A 
ATOM      2  N   UNL     1       8.468   7.774  18.546  0.00  0.00    +0.000 NA
ATOM      3  C   UNL     1       8.023   8.883  17.864  0.00  0.00    +0.000 A 
ATOM      4  N   UNL     1       6.996   8.629  17.032  0.00  0.00    +0.000 NA
ATOM      5  O   UNL     1       6.767   7.264  17.191  0.00  0.00    +0.000 OA
ENDROOT
BRANCH   3   6
ATOM      6  C   UNL     1       8.618  10.194  18.064  0.00  0.00    +0.000 A 
ATOM      7  C   UNL     1       8.011  11.344  17.547  0.00  0.00    +0.000 A 
ATOM      8  C   UNL     1       8.574  12.603  17.769  0.00  0.00    +0.000 A 
ATOM      9  C   UNL     1       9.760  12.739  18.505  0.00  0.00    +0.000 A 
ATOM     10  C   UNL     1      10.326  14.000  18.747  0.00  0.00    +0.000 A 
ATOM     11  C   UNL     1      11.508  14.120  19.481  0.00  0.00    +0.000 A 
ATOM     12  C   UNL     1      12.141  12.983  19.972  0.00  0.00    +0.000 A 
ATOM     13  C   UNL     1      11.589  11.722  19.742  0.00  0.00    +0.000 A 
ATOM     14  C   UNL     1      10.394  11.587  19.016  0.00  0.00    +0.000 A 
ATOM     15  C   UNL     1       9.813  10.326  18.789  0.00  0.00    +0.000 A 
ENDBRANCH   3   6
BRANCH   1  19
ATOM     16  O   UNL     1       4.938   4.177  16.521  0.00  0.00    +0.000 OA
ATOM     17  C   UNL     1       5.688   4.527  17.419  0.00  0.00    +0.000 C 
ATOM     18  C   UNL     1       7.190   4.545  17.270  0.00  0.00    +0.000 C 
ATOM     19  C   UNL     1       7.652   5.384  18.454  0.00  0.00    +0.000 C 
ATOM     20  C   UNL     1       6.590   5.105  19.506  0.00  0.00    +0.000 C 
ATOM     21  N   UNL     1       5.384   4.863  18.746  0.00  0.00    +0.000 N 
BRANCH  21  22
ATOM     22  C   UNL     1       4.087   4.876  19.327  0.00  0.00    +0.000 A 
ATOM     23  C   UNL     1       3.588   3.752  20.000  0.00  0.00    +0.000 A 
ATOM     24  C   UNL     1       2.322   3.763  20.594  0.00  0.00    +0.000 A 
ATOM     25  C   UNL     1       1.525   4.901  20.529  0.00  0.00    +0.000 A 
ATOM     26  C   UNL     1       1.990   6.024  19.854  0.00  0.00    +0.000 A 
ATOM     27  C   UNL     1       3.252   6.005  19.256  0.00  0.00    +0.000 A 
ATOM     28  F   UNL     1       3.656   7.128  18.642  0.00  0.00    +0.000 F 
ENDBRANCH  21  22
ENDBRANCH   1  19
TORSDOF 3
ENDMDL
MODEL 9
REMARK VINA RESULT:      -9.2      0.632      1.582
REMARK  Name = 
REMARK  3 active torsions:
REMARK  status: ('A' for Active; 'I' for Inactive)
REMARK    1  A    between atoms: C_4  and  C_5
REMARK    2  A    between atoms: C_7  and  C_8
REMARK    3  A    between atoms: N_21  and  C_22
REMARK                            x       y       z     vdW  Elec       q    Type
REMARK                         _______ _______ _______ _____ _____    ______ ____
ROOT
ATOM      1  C   UNL     1       7.812   6.868  18.151  0.00  0.00    +0.000 A 
ATOM      2  N   UNL     1       8.575   7.703  18.812  0.00  0.00    +0.000 NA
ATOM      3  C   UNL     1       8.326   8.902  18.183  0.00  0.00    +0.000 A 
ATOM      4  N   UNL     1       7.445   8.807  17.171  0.00  0.00    +0.000 NA
ATOM      5  O   UNL     1       7.105   7.456  17.148  0.00  0.00    +0.000 OA
ENDROOT
BRANCH   3   6
ATOM      6  C   UNL     1       8.959  10.138  18.613  0.00  0.00    +0.000 A 
ATOM      7  C   UNL     1       9.778  10.865  17.742  0.00  0.00    +0.000 A 
ATOM      8  C   UNL     1      10.359  12.066  18.154  0.00  0.00    +0.000 A 
ATOM      9  C   UNL     1      10.142  12.563  19.447  0.00  0.00    +0.000 A 
ATOM     10  C   UNL     1      10.708  13.776  19.866  0.00  0.00    +0.000 A 
ATOM     11  C   UNL     1      10.483  14.258  21.157  0.00  0.00    +0.000 A 
ATOM     12  C   UNL     1       9.699  13.529  22.045  0.00  0.00    +0.000 A 
ATOM     13  C   UNL     1       9.126  12.321  21.643  0.00  0.00    +0.000 A 
ATOM     14  C   UNL     1       9.334  11.830  20.343  0.00  0.00    +0.000 A 
ATOM     15  C   UNL     1       8.750  10.625  19.913  0.00  0.00    +0.000 A 
ENDBRANCH   3   6
BRANCH   1  19
ATOM     16  O   UNL     1       4.745   4.726  16.408  0.00  0.00    +0.000 OA
ATOM     17  C   UNL     1       5.557   4.889  17.306  0.00  0.00    +0.000 C 
ATOM     18  C   UNL     1       7.046   4.760  17.093  0.00  0.00    +0.000 C 
ATOM     19  C   UNL     1       7.637   5.405  18.340  0.00  0.00    +0.000 C 
ATOM     20  C   UNL     1       6.584   5.126  19.402  0.00  0.00    +0.000 C 
ATOM     21  N   UNL     1       5.335   5.103  18.674  0.00  0.00    +0.000 N 
BRANCH  21  22
ATOM     22  C   UNL     1       4.067   5.191  19.309  0.00  0.00    +0.000 A 
ATOM     23  C   UNL     1       3.347   6.394  19.316  0.00  0.00    +0.000 A 
ATOM     24  C   UNL     1       2.088   6.485  19.920  0.00  0.00    +0.000 A 
ATOM     25  C   UNL     1       1.520   5.372  20.531  0.00  0.00    +0.000 A 
ATOM     26  C   UNL     1       2.221   4.170  20.552  0.00  0.00    +0.000 A 
ATOM     27  C   UNL     1       3.481   4.088  19.955  0.00  0.00    +0.000 A 
ATOM     28  F   UNL     1       4.096   2.895  19.984  0.00  0.00    +0.000 F 
ENDBRANCH  21  22
ENDBRANCH   1  19
TORSDOF 3
ENDMDL
