MODEL 1
REMARK VINA RESULT:      -9.6      0.000      0.000
REMARK  Name = 
REMARK  3 active torsions:
REMARK  status: ('A' for Active; 'I' for Inactive)
REMARK    1  A    between atoms: C_4  and  C_5
REMARK    2  A    between atoms: C_5  and  N_6
REMARK    3  A    between atoms: C_7  and  C_8
REMARK                            x       y       z     vdW  Elec       q    Type
REMARK                         _______ _______ _______ _____ _____    ______ ____
ROOT
ATOM      1  O   UNL     1       7.993   7.709  18.118  0.00  0.00    +0.000 OA
ATOM      2  C   UNL     1       7.333   6.941  17.429  0.00  0.00    +0.000 A 
ATOM      3  C   UNL     1       5.936   6.610  17.784  0.00  0.00    +0.000 A 
ATOM      4  C   UNL     1       5.175   5.740  17.101  0.00  0.00    +0.000 A 
ATOM      5  C   UNL     1       5.821   5.093  15.961  0.00  0.00    +0.000 A 
ATOM      6  C   UNL     1       5.098   4.178  15.226  0.00  0.00    +0.000 A 
ATOM      7  C   UNL     1       5.475   3.915  13.948  0.00  0.00    +0.000 A 
ATOM      8  C   UNL     1       6.725   4.249  13.458  0.00  0.00    +0.000 A 
ATOM      9  C   UNL     1       7.570   5.010  14.247  0.00  0.00    +0.000 A 
ATOM     10  C   UNL     1       7.080   5.477  15.489  0.00  0.00    +0.000 A 
ATOM     11  O   UNL     1       7.852   6.378  16.252  0.00  0.00    +0.000 OA
ATOM     12  C   UNL     1       6.843   3.684  12.075  0.00  0.00    +0.000 C 
ATOM     13  C   UNL     1       5.441   3.052  11.817  0.00  0.00    +0.000 C 
ATOM     14  C   UNL     1       4.499   3.525  12.902  0.00  0.00    +0.000 C 
ENDROOT
BRANCH   4  15
ATOM     15  C   UNL     1       3.715   5.378  17.429  0.00  0.00    +0.000 C 
BRANCH  15  16
ATOM     16  N   UNL     1       3.025   6.066  18.567  0.00  0.00    +0.000 N 
ATOM     17  C   UNL     1       2.472   5.460  19.712  0.00  0.00    +0.000 A 
ATOM     18  N   UNL     1       1.951   6.375  20.510  0.00  0.00    +0.000 NA
ATOM     19  C   UNL     1       1.873   7.510  19.782  0.00  0.00    +0.000 A 
ATOM     20  C   UNL     1       1.125   8.662  20.071  0.00  0.00    +0.000 A 
ATOM     21  C   UNL     1       1.092   9.687  19.134  0.00  0.00    +0.000 A 
ATOM     22  C   UNL     1       1.860   9.595  17.972  0.00  0.00    +0.000 A 
ATOM     23  C   UNL     1       2.642   8.462  17.687  0.00  0.00    +0.000 A 
ATOM     24  C   UNL     1       2.591   7.394  18.593  0.00  0.00    +0.000 A 
BRANCH  17  25
ATOM     25  C   UNL     1       2.227   4.002  19.976  0.00  0.00    +0.000 C 
ATOM     26  F   UNL     1       1.567   3.744  21.130  0.00  0.00    +0.000 F 
ATOM     27  F   UNL     1       1.532   3.400  18.979  0.00  0.00    +0.000 F 
ATOM     28  F   UNL     1       3.415   3.337  20.081  0.00  0.00    +0.000 F 
ENDBRANCH  17  25
ENDBRANCH  15  16
ENDBRANCH   4  15
TORSDOF 3
ENDMDL
MODEL 2
REMARK VINA RESULT:      -9.3      3.149      7.323
REMARK  Name = 
REMARK  3 active torsions:
REMARK  status: ('A' for Active; 'I' for Inactive)
REMARK    1  A    between atoms: C_4  and  C_5
REMARK    2  A    between atoms: C_5  and  N_6
REMARK    3  A    between atoms: C_7  and  C_8
REMARK                            x       y       z     vdW  Elec       q    Type
REMARK                         _______ _______ _______ _____ _____    ______ ____
ROOT
ATOM      1  O   UNL     1       3.723   1.154  19.255  0.00  0.00    +0.000 OA
ATOM      2  C   UNL     1       3.552   2.353  19.079  0.00  0.00    +0.000 A 
ATOM      3  C   UNL     1       3.862   2.984  17.778  0.00  0.00    +0.000 A 
ATOM      4  C   UNL     1       3.744   4.299  17.534  0.00  0.00    +0.000 A 
ATOM      5  C   UNL     1       3.299   5.114  18.664  0.00  0.00    +0.000 A 
ATOM      6  C   UNL     1       3.171   6.475  18.483  0.00  0.00    +0.000 A 
ATOM      7  C   UNL     1       2.356   7.174  19.314  0.00  0.00    +0.000 A 
ATOM      8  C   UNL     1       1.918   6.669  20.525  0.00  0.00    +0.000 A 
ATOM      9  C   UNL     1       2.196   5.349  20.838  0.00  0.00    +0.000 A 
ATOM     10  C   UNL     1       2.847   4.558  19.864  0.00  0.00    +0.000 A 
ATOM     11  O   UNL     1       3.012   3.174  20.083  0.00  0.00    +0.000 OA
ATOM     12  C   UNL     1       1.168   7.757  21.233  0.00  0.00    +0.000 C 
ATOM     13  C   UNL     1       1.169   8.930  20.206  0.00  0.00    +0.000 C 
ATOM     14  C   UNL     1       1.638   8.394  18.872  0.00  0.00    +0.000 C 
ENDROOT
BRANCH   4  15
ATOM     15  C   UNL     1       4.044   4.992  16.193  0.00  0.00    +0.000 C 
BRANCH  15  16
ATOM     16  N   UNL     1       5.429   4.924  15.625  0.00  0.00    +0.000 N 
ATOM     17  C   UNL     1       6.577   5.577  16.116  0.00  0.00    +0.000 A 
ATOM     18  N   UNL     1       7.627   5.282  15.370  0.00  0.00    +0.000 NA
ATOM     19  C   UNL     1       7.143   4.715  14.244  0.00  0.00    +0.000 A 
ATOM     20  C   UNL     1       7.819   4.510  13.031  0.00  0.00    +0.000 A 
ATOM     21  C   UNL     1       7.107   4.007  11.949  0.00  0.00    +0.000 A 
ATOM     22  C   UNL     1       5.769   3.638  12.105  0.00  0.00    +0.000 A 
ATOM     23  C   UNL     1       5.091   3.805  13.324  0.00  0.00    +0.000 A 
ATOM     24  C   UNL     1       5.791   4.404  14.380  0.00  0.00    +0.000 A 
BRANCH  17  25
ATOM     25  C   UNL     1       6.670   6.657  17.156  0.00  0.00    +0.000 C 
ATOM     26  F   UNL     1       5.774   7.661  17.004  0.00  0.00    +0.000 F 
ATOM     27  F   UNL     1       6.522   6.181  18.417  0.00  0.00    +0.000 F 
ATOM     28  F   UNL     1       7.897   7.254  17.105  0.00  0.00    +0.000 F 
ENDBRANCH  17  25
ENDBRANCH  15  16
ENDBRANCH   4  15
TORSDOF 3
ENDMDL
MODEL 3
REMARK VINA RESULT:      -8.6      0.808      1.094
REMARK  Name = 
REMARK  3 active torsions:
REMARK  status: ('A' for Active; 'I' for Inactive)
REMARK    1  A    between atoms: C_4  and  C_5
REMARK    2  A    between atoms: C_5  and  N_6
REMARK    3  A    between atoms: C_7  and  C_8
REMARK                            x       y       z     vdW  Elec       q    Type
REMARK                         _______ _______ _______ _____ _____    ______ ____
ROOT
ATOM      1  O   UNL     1       8.062   6.023  19.335  0.00  0.00    +0.000 OA
ATOM      2  C   UNL     1       7.342   5.610  18.434  0.00  0.00    +0.000 A 
ATOM      3  C   UNL     1       5.872   5.572  18.592  0.00  0.00    +0.000 A 
ATOM      4  C   UNL     1       5.030   5.088  17.666  0.00  0.00    +0.000 A 
ATOM      5  C   UNL     1       5.657   4.559  16.456  0.00  0.00    +0.000 A 
ATOM      6  C   UNL     1       4.848   4.033  15.471  0.00  0.00    +0.000 A 
ATOM      7  C   UNL     1       5.320   3.964  14.200  0.00  0.00    +0.000 A 
ATOM      8  C   UNL     1       6.666   4.071  13.900  0.00  0.00    +0.000 A 
ATOM      9  C   UNL     1       7.551   4.409  14.910  0.00  0.00    +0.000 A 
ATOM     10  C   UNL     1       7.020   4.707  16.186  0.00  0.00    +0.000 A 
ATOM     11  O   UNL     1       7.870   5.200  17.198  0.00  0.00    +0.000 OA
ATOM     12  C   UNL     1       6.833   3.803  12.434  0.00  0.00    +0.000 C 
ATOM     13  C   UNL     1       5.371   3.614  11.928  0.00  0.00    +0.000 C 
ATOM     14  C   UNL     1       4.427   4.064  13.020  0.00  0.00    +0.000 C 
ENDROOT
BRANCH   4  15
ATOM     15  C   UNL     1       3.496   5.041  17.787  0.00  0.00    +0.000 C 
BRANCH  15  16
ATOM     16  N   UNL     1       2.818   5.849  18.851  0.00  0.00    +0.000 N 
ATOM     17  C   UNL     1       2.184   5.359  20.009  0.00  0.00    +0.000 A 
ATOM     18  N   UNL     1       1.702   6.359  20.727  0.00  0.00    +0.000 NA
ATOM     19  C   UNL     1       1.730   7.446  19.927  0.00  0.00    +0.000 A 
ATOM     20  C   UNL     1       1.058   8.663  20.113  0.00  0.00    +0.000 A 
ATOM     21  C   UNL     1       1.131   9.625  19.112  0.00  0.00    +0.000 A 
ATOM     22  C   UNL     1       1.930   9.403  17.989  0.00  0.00    +0.000 A 
ATOM     23  C   UNL     1       2.638   8.203  17.808  0.00  0.00    +0.000 A 
ATOM     24  C   UNL     1       2.479   7.203  18.776  0.00  0.00    +0.000 A 
BRANCH  17  25
ATOM     25  C   UNL     1       1.826   3.942  20.355  0.00  0.00    +0.000 C 
ATOM     26  F   UNL     1       2.863   3.073  20.304  0.00  0.00    +0.000 F 
ATOM     27  F   UNL     1       1.275   3.829  21.589  0.00  0.00    +0.000 F 
ATOM     28  F   UNL     1       0.903   3.461  19.470  0.00  0.00    +0.000 F 
ENDBRANCH  17  25
ENDBRANCH  15  16
ENDBRANCH   4  15
TORSDOF 3
ENDMDL
MODEL 4
REMARK VINA RESULT:      -8.6      4.093      7.753
REMARK  Name = 
REMARK  3 active torsions:
REMARK  status: ('A' for Active; 'I' for Inactive)
REMARK    1  A    between atoms: C_4  and  C_5
REMARK    2  A    between atoms: C_5  and  N_6
REMARK    3  A    between atoms: C_7  and  C_8
REMARK                            x       y       z     vdW  Elec       q    Type
REMARK                         _______ _______ _______ _____ _____    ______ ____
ROOT
ATOM      1  O   UNL     1       1.781   9.320  23.240  0.00  0.00    +0.000 OA
ATOM      2  C   UNL     1       1.352   9.376  22.095  0.00  0.00    +0.000 A 
ATOM      3  C   UNL     1       1.854   8.460  21.048  0.00  0.00    +0.000 A 
ATOM      4  C   UNL     1       1.463   8.500  19.765  0.00  0.00    +0.000 A 
ATOM      5  C   UNL     1       0.496   9.546  19.431  0.00  0.00    +0.000 A 
ATOM      6  C   UNL     1       0.064   9.651  18.126  0.00  0.00    +0.000 A 
ATOM      7  C   UNL     1      -1.120  10.264  17.873  0.00  0.00    +0.000 A 
ATOM      8  C   UNL     1      -1.746  11.082  18.797  0.00  0.00    +0.000 A 
ATOM      9  C   UNL     1      -1.228  11.161  20.078  0.00  0.00    +0.000 A 
ATOM     10  C   UNL     1      -0.126  10.336  20.402  0.00  0.00    +0.000 A 
ATOM     11  O   UNL     1       0.334  10.275  21.734  0.00  0.00    +0.000 OA
ATOM     12  C   UNL     1      -2.940  11.698  18.131  0.00  0.00    +0.000 C 
ATOM     13  C   UNL     1      -2.950  11.043  16.717  0.00  0.00    +0.000 C 
ATOM     14  C   UNL     1      -1.975   9.886  16.722  0.00  0.00    +0.000 C 
ENDROOT
BRANCH   4  15
ATOM     15  C   UNL     1       1.952   7.560  18.649  0.00  0.00    +0.000 C 
BRANCH  15  16
ATOM     16  N   UNL     1       2.814   6.388  19.002  0.00  0.00    +0.000 N 
ATOM     17  C   UNL     1       4.065   6.059  18.443  0.00  0.00    +0.000 A 
ATOM     18  N   UNL     1       4.544   4.961  19.001  0.00  0.00    +0.000 NA
ATOM     19  C   UNL     1       3.517   4.401  19.675  0.00  0.00    +0.000 A 
ATOM     20  C   UNL     1       3.432   3.092  20.172  0.00  0.00    +0.000 A 
ATOM     21  C   UNL     1       2.237   2.673  20.745  0.00  0.00    +0.000 A 
ATOM     22  C   UNL     1       1.181   3.573  20.893  0.00  0.00    +0.000 A 
ATOM     23  C   UNL     1       1.266   4.899  20.432  0.00  0.00    +0.000 A 
ATOM     24  C   UNL     1       2.439   5.281  19.769  0.00  0.00    +0.000 A 
BRANCH  17  25
ATOM     25  C   UNL     1       4.731   6.639  17.228  0.00  0.00    +0.000 C 
ATOM     26  F   UNL     1       3.975   7.532  16.546  0.00  0.00    +0.000 F 
ATOM     27  F   UNL     1       5.904   7.253  17.519  0.00  0.00    +0.000 F 
ATOM     28  F   UNL     1       5.020   5.648  16.332  0.00  0.00    +0.000 F 
ENDBRANCH  17  25
ENDBRANCH  15  16
ENDBRANCH   4  15
TORSDOF 3
ENDMDL
MODEL 5
REMARK VINA RESULT:      -8.4      3.553      5.205
REMARK  Name = 
REMARK  3 active torsions:
REMARK  status: ('A' for Active; 'I' for Inactive)
REMARK    1  A    between atoms: C_4  and  C_5
REMARK    2  A    between atoms: C_5  and  N_6
REMARK    3  A    between atoms: C_7  and  C_8
REMARK                            x       y       z     vdW  Elec       q    Type
REMARK                         _______ _______ _______ _____ _____    ______ ____
ROOT
ATOM      1  O   UNL     1       0.661   2.900  21.094  0.00  0.00    +0.000 OA
ATOM      2  C   UNL     1       1.347   3.629  20.389  0.00  0.00    +0.000 A 
ATOM      3  C   UNL     1       1.580   5.043  20.756  0.00  0.00    +0.000 A 
ATOM      4  C   UNL     1       2.280   5.908  20.005  0.00  0.00    +0.000 A 
ATOM      5  C   UNL     1       2.803   5.375  18.748  0.00  0.00    +0.000 A 
ATOM      6  C   UNL     1       3.518   6.216  17.923  0.00  0.00    +0.000 A 
ATOM      7  C   UNL     1       4.378   5.677  17.021  0.00  0.00    +0.000 A 
ATOM      8  C   UNL     1       4.328   4.345  16.649  0.00  0.00    +0.000 A 
ATOM      9  C   UNL     1       3.471   3.494  17.327  0.00  0.00    +0.000 A 
ATOM     10  C   UNL     1       2.746   4.016  18.423  0.00  0.00    +0.000 A 
ATOM     11  O   UNL     1       1.980   3.150  19.231  0.00  0.00    +0.000 OA
ATOM     12  C   UNL     1       5.315   4.139  15.540  0.00  0.00    +0.000 C 
ATOM     13  C   UNL     1       5.998   5.533  15.394  0.00  0.00    +0.000 C 
ATOM     14  C   UNL     1       5.609   6.380  16.586  0.00  0.00    +0.000 C 
ENDROOT
BRANCH   4  15
ATOM     15  C   UNL     1       2.556   7.381  20.356  0.00  0.00    +0.000 C 
BRANCH  15  16
ATOM     16  N   UNL     1       1.450   8.384  20.235  0.00  0.00    +0.000 N 
ATOM     17  C   UNL     1       1.143   9.172  19.108  0.00  0.00    +0.000 A 
ATOM     18  N   UNL     1       0.097   9.940  19.356  0.00  0.00    +0.000 NA
ATOM     19  C   UNL     1      -0.092   9.902  20.693  0.00  0.00    +0.000 A 
ATOM     20  C   UNL     1      -0.869  10.772  21.472  0.00  0.00    +0.000 A 
ATOM     21  C   UNL     1      -0.845  10.629  22.855  0.00  0.00    +0.000 A 
ATOM     22  C   UNL     1      -0.125   9.584  23.435  0.00  0.00    +0.000 A 
ATOM     23  C   UNL     1       0.628   8.683  22.663  0.00  0.00    +0.000 A 
ATOM     24  C   UNL     1       0.675   8.896  21.279  0.00  0.00    +0.000 A 
BRANCH  17  25
ATOM     25  C   UNL     1       1.953   9.382  17.861  0.00  0.00    +0.000 C 
ATOM     26  F   UNL     1       1.673   8.516  16.858  0.00  0.00    +0.000 F 
ATOM     27  F   UNL     1       1.817  10.632  17.355  0.00  0.00    +0.000 F 
ATOM     28  F   UNL     1       3.281   9.210  18.128  0.00  0.00    +0.000 F 
ENDBRANCH  17  25
ENDBRANCH  15  16
ENDBRANCH   4  15
TORSDOF 3
ENDMDL
MODEL 6
REMARK VINA RESULT:      -8.2      1.906      3.306
REMARK  Name = 
REMARK  3 active torsions:
REMARK  status: ('A' for Active; 'I' for Inactive)
REMARK    1  A    between atoms: C_4  and  C_5
REMARK    2  A    between atoms: C_5  and  N_6
REMARK    3  A    between atoms: C_7  and  C_8
REMARK                            x       y       z     vdW  Elec       q    Type
REMARK                         _______ _______ _______ _____ _____    ______ ____
ROOT
ATOM      1  O   UNL     1       7.718   7.513  17.909  0.00  0.00    +0.000 OA
ATOM      2  C   UNL     1       7.089   6.775  17.160  0.00  0.00    +0.000 A 
ATOM      3  C   UNL     1       5.638   6.562  17.344  0.00  0.00    +0.000 A 
ATOM      4  C   UNL     1       4.900   5.731  16.591  0.00  0.00    +0.000 A 
ATOM      5  C   UNL     1       5.629   5.000  15.555  0.00  0.00    +0.000 A 
ATOM      6  C   UNL     1       4.932   4.119  14.756  0.00  0.00    +0.000 A 
ATOM      7  C   UNL     1       5.442   3.788  13.542  0.00  0.00    +0.000 A 
ATOM      8  C   UNL     1       6.765   4.012  13.205  0.00  0.00    +0.000 A 
ATOM      9  C   UNL     1       7.564   4.732  14.077  0.00  0.00    +0.000 A 
ATOM     10  C   UNL     1       6.963   5.273  15.236  0.00  0.00    +0.000 A 
ATOM     11  O   UNL     1       7.704   6.137  16.069  0.00  0.00    +0.000 OA
ATOM     12  C   UNL     1       7.008   3.395  11.860  0.00  0.00    +0.000 C 
ATOM     13  C   UNL     1       5.603   2.863  11.443  0.00  0.00    +0.000 C 
ATOM     14  C   UNL     1       4.575   3.439  12.391  0.00  0.00    +0.000 C 
ENDROOT
BRANCH   4  15
ATOM     15  C   UNL     1       3.387   5.490  16.741  0.00  0.00    +0.000 C 
BRANCH  15  16
ATOM     16  N   UNL     1       2.799   5.349  18.112  0.00  0.00    +0.000 N 
ATOM     17  C   UNL     1       2.205   6.365  18.886  0.00  0.00    +0.000 A 
ATOM     18  N   UNL     1       1.787   5.878  20.041  0.00  0.00    +0.000 NA
ATOM     19  C   UNL     1       2.361   4.662  20.168  0.00  0.00    +0.000 A 
ATOM     20  C   UNL     1       2.475   3.888  21.332  0.00  0.00    +0.000 A 
ATOM     21  C   UNL     1       3.203   2.705  21.277  0.00  0.00    +0.000 A 
ATOM     22  C   UNL     1       3.732   2.268  20.061  0.00  0.00    +0.000 A 
ATOM     23  C   UNL     1       3.593   3.016  18.880  0.00  0.00    +0.000 A 
ATOM     24  C   UNL     1       2.942   4.254  18.968  0.00  0.00    +0.000 A 
BRANCH  17  25
ATOM     25  C   UNL     1       2.214   7.849  18.653  0.00  0.00    +0.000 C 
ATOM     26  F   UNL     1       1.417   8.263  17.640  0.00  0.00    +0.000 F 
ATOM     27  F   UNL     1       1.854   8.553  19.754  0.00  0.00    +0.000 F 
ATOM     28  F   UNL     1       3.472   8.264  18.318  0.00  0.00    +0.000 F 
ENDBRANCH  17  25
ENDBRANCH  15  16
ENDBRANCH   4  15
TORSDOF 3
ENDMDL
MODEL 7
REMARK VINA RESULT:      -8.1      6.462     10.892
REMARK  Name = 
REMARK  3 active torsions:
REMARK  status: ('A' for Active; 'I' for Inactive)
REMARK    1  A    between atoms: C_4  and  C_5
REMARK    2  A    between atoms: C_5  and  N_6
REMARK    3  A    between atoms: C_7  and  C_8
REMARK                            x       y       z     vdW  Elec       q    Type
REMARK                         _______ _______ _______ _____ _____    ______ ____
ROOT
ATOM      1  O   UNL     1      -2.848  10.239  14.665  0.00  0.00    +0.000 OA
ATOM      2  C   UNL     1      -3.119  10.724  15.757  0.00  0.00    +0.000 A 
ATOM      3  C   UNL     1      -2.063  10.980  16.759  0.00  0.00    +0.000 A 
ATOM      4  C   UNL     1      -2.297  11.463  17.990  0.00  0.00    +0.000 A 
ATOM      5  C   UNL     1      -3.701  11.712  18.315  0.00  0.00    +0.000 A 
ATOM      6  C   UNL     1      -4.011  12.195  19.568  0.00  0.00    +0.000 A 
ATOM      7  C   UNL     1      -5.185  12.852  19.747  0.00  0.00    +0.000 A 
ATOM      8  C   UNL     1      -6.229  12.770  18.843  0.00  0.00    +0.000 A 
ATOM      9  C   UNL     1      -6.021  12.117  17.640  0.00  0.00    +0.000 A 
ATOM     10  C   UNL     1      -4.721  11.635  17.362  0.00  0.00    +0.000 A 
ATOM     11  O   UNL     1      -4.431  11.101  16.089  0.00  0.00    +0.000 OA
ATOM     12  C   UNL     1      -7.405  13.493  19.430  0.00  0.00    +0.000 C 
ATOM     13  C   UNL     1      -6.847  14.074  20.765  0.00  0.00    +0.000 C 
ATOM     14  C   UNL     1      -5.342  13.929  20.755  0.00  0.00    +0.000 C 
ENDROOT
BRANCH   4  15
ATOM     15  C   UNL     1      -1.227  11.755  19.057  0.00  0.00    +0.000 C 
BRANCH  15  16
ATOM     16  N   UNL     1      -0.590  10.614  19.790  0.00  0.00    +0.000 N 
ATOM     17  C   UNL     1      -0.574  10.408  21.183  0.00  0.00    +0.000 A 
ATOM     18  N   UNL     1       0.071   9.293  21.475  0.00  0.00    +0.000 NA
ATOM     19  C   UNL     1       0.734   8.935  20.354  0.00  0.00    +0.000 A 
ATOM     20  C   UNL     1       1.784   8.011  20.238  0.00  0.00    +0.000 A 
ATOM     21  C   UNL     1       2.410   7.865  19.006  0.00  0.00    +0.000 A 
ATOM     22  C   UNL     1       1.936   8.566  17.896  0.00  0.00    +0.000 A 
ATOM     23  C   UNL     1       0.862   9.468  17.990  0.00  0.00    +0.000 A 
ATOM     24  C   UNL     1       0.303   9.680  19.257  0.00  0.00    +0.000 A 
BRANCH  17  25
ATOM     25  C   UNL     1      -0.970  11.358  22.277  0.00  0.00    +0.000 C 
ATOM     26  F   UNL     1      -2.236  11.829  22.180  0.00  0.00    +0.000 F 
ATOM     27  F   UNL     1      -0.843  10.813  23.512  0.00  0.00    +0.000 F 
ATOM     28  F   UNL     1      -0.168  12.463  22.253  0.00  0.00    +0.000 F 
ENDBRANCH  17  25
ENDBRANCH  15  16
ENDBRANCH   4  15
TORSDOF 3
ENDMDL
MODEL 8
REMARK VINA RESULT:      -7.8      4.651      8.682
REMARK  Name = 
REMARK  3 active torsions:
REMARK  status: ('A' for Active; 'I' for Inactive)
REMARK    1  A    between atoms: C_4  and  C_5
REMARK    2  A    between atoms: C_5  and  N_6
REMARK    3  A    between atoms: C_7  and  C_8
REMARK                            x       y       z     vdW  Elec       q    Type
REMARK                         _______ _______ _______ _____ _____    ______ ____
ROOT
ATOM      1  O   UNL     1      -3.012  10.337  17.714  0.00  0.00    +0.000 OA
ATOM      2  C   UNL     1      -1.927  10.848  17.965  0.00  0.00    +0.000 A 
ATOM      3  C   UNL     1      -0.691  10.037  17.987  0.00  0.00    +0.000 A 
ATOM      4  C   UNL     1       0.520  10.523  18.302  0.00  0.00    +0.000 A 
ATOM      5  C   UNL     1       0.559  11.940  18.659  0.00  0.00    +0.000 A 
ATOM      6  C   UNL     1       1.771  12.499  19.007  0.00  0.00    +0.000 A 
ATOM      7  C   UNL     1       1.932  13.842  18.894  0.00  0.00    +0.000 A 
ATOM      8  C   UNL     1       0.863  14.712  18.779  0.00  0.00    +0.000 A 
ATOM      9  C   UNL     1      -0.410  14.190  18.623  0.00  0.00    +0.000 A 
ATOM     10  C   UNL     1      -0.543  12.787  18.508  0.00  0.00    +0.000 A 
ATOM     11  O   UNL     1      -1.800  12.227  18.197  0.00  0.00    +0.000 OA
ATOM     12  C   UNL     1       1.401  16.111  18.826  0.00  0.00    +0.000 C 
ATOM     13  C   UNL     1       2.945  15.907  18.896  0.00  0.00    +0.000 C 
ATOM     14  C   UNL     1       3.248  14.456  18.592  0.00  0.00    +0.000 C 
ENDROOT
BRANCH   4  15
ATOM     15  C   UNL     1       1.831   9.717  18.325  0.00  0.00    +0.000 C 
BRANCH  15  16
ATOM     16  N   UNL     1       1.881   8.418  19.069  0.00  0.00    +0.000 N 
ATOM     17  C   UNL     1       1.385   8.164  20.363  0.00  0.00    +0.000 A 
ATOM     18  N   UNL     1       1.595   6.903  20.697  0.00  0.00    +0.000 NA
ATOM     19  C   UNL     1       2.477   6.416  19.798  0.00  0.00    +0.000 A 
ATOM     20  C   UNL     1       3.237   5.241  19.895  0.00  0.00    +0.000 A 
ATOM     21  C   UNL     1       4.175   4.970  18.906  0.00  0.00    +0.000 A 
ATOM     22  C   UNL     1       4.287   5.816  17.802  0.00  0.00    +0.000 A 
ATOM     23  C   UNL     1       3.506   6.978  17.674  0.00  0.00    +0.000 A 
ATOM     24  C   UNL     1       2.634   7.292  18.724  0.00  0.00    +0.000 A 
BRANCH  17  25
ATOM     25  C   UNL     1       0.904   9.146  21.393  0.00  0.00    +0.000 C 
ATOM     26  F   UNL     1       1.569  10.326  21.396  0.00  0.00    +0.000 F 
ATOM     27  F   UNL     1      -0.414   9.434  21.264  0.00  0.00    +0.000 F 
ATOM     28  F   UNL     1       1.071   8.632  22.647  0.00  0.00    +0.000 F 
ENDBRANCH  17  25
ENDBRANCH  15  16
ENDBRANCH   4  15
TORSDOF 3
ENDMDL
MODEL 9
REMARK VINA RESULT:      -7.7      4.934      7.164
REMARK  Name = 
REMARK  3 active torsions:
REMARK  status: ('A' for Active; 'I' for Inactive)
REMARK    1  A    between atoms: C_4  and  C_5
REMARK    2  A    between atoms: C_5  and  N_6
REMARK    3  A    between atoms: C_7  and  C_8
REMARK                            x       y       z     vdW  Elec       q    Type
REMARK                         _______ _______ _______ _____ _____    ______ ____
ROOT
ATOM      1  O   UNL     1      -0.106   8.770  22.602  0.00  0.00    +0.000 OA
ATOM      2  C   UNL     1       0.512   8.614  21.556  0.00  0.00    +0.000 A 
ATOM      3  C   UNL     1       0.591   9.695  20.550  0.00  0.00    +0.000 A 
ATOM      4  C   UNL     1       1.209   9.574  19.364  0.00  0.00    +0.000 A 
ATOM      5  C   UNL     1       1.803   8.266  19.092  0.00  0.00    +0.000 A 
ATOM      6  C   UNL     1       2.441   8.070  17.886  0.00  0.00    +0.000 A 
ATOM      7  C   UNL     1       3.366   7.082  17.784  0.00  0.00    +0.000 A 
ATOM      8  C   UNL     1       3.460   6.053  18.704  0.00  0.00    +0.000 A 
ATOM      9  C   UNL     1       2.686   6.110  19.850  0.00  0.00    +0.000 A 
ATOM     10  C   UNL     1       1.893   7.262  20.061  0.00  0.00    +0.000 A 
ATOM     11  O   UNL     1       1.209   7.426  21.284  0.00  0.00    +0.000 OA
ATOM     12  C   UNL     1       4.481   5.077  18.201  0.00  0.00    +0.000 C 
ATOM     13  C   UNL     1       5.018   5.748  16.899  0.00  0.00    +0.000 C 
ATOM     14  C   UNL     1       4.524   7.177  16.862  0.00  0.00    +0.000 C 
ENDROOT
BRANCH   4  15
ATOM     15  C   UNL     1       1.324  10.676  18.297  0.00  0.00    +0.000 C 
BRANCH  15  16
ATOM     16  N   UNL     1       0.782  12.041  18.589  0.00  0.00    +0.000 N 
ATOM     17  C   UNL     1      -0.572  12.429  18.603  0.00  0.00    +0.000 A 
ATOM     18  N   UNL     1      -0.681  13.709  18.909  0.00  0.00    +0.000 NA
ATOM     19  C   UNL     1       0.559  14.233  18.792  0.00  0.00    +0.000 A 
ATOM     20  C   UNL     1       0.911  15.588  18.715  0.00  0.00    +0.000 A 
ATOM     21  C   UNL     1       2.242  15.919  18.485  0.00  0.00    +0.000 A 
ATOM     22  C   UNL     1       3.208  14.913  18.419  0.00  0.00    +0.000 A 
ATOM     23  C   UNL     1       2.873  13.553  18.532  0.00  0.00    +0.000 A 
ATOM     24  C   UNL     1       1.517  13.228  18.665  0.00  0.00    +0.000 A 
BRANCH  17  25
ATOM     25  C   UNL     1      -1.771  11.666  18.116  0.00  0.00    +0.000 C 
ATOM     26  F   UNL     1      -1.892  11.609  16.769  0.00  0.00    +0.000 F 
ATOM     27  F   UNL     1      -1.797  10.389  18.571  0.00  0.00    +0.000 F 
ATOM     28  F   UNL     1      -2.919  12.261  18.559  0.00  0.00    +0.000 F 
ENDBRANCH  17  25
ENDBRANCH  15  16
ENDBRANCH   4  15
TORSDOF 3
ENDMDL
