MODEL 1
REMARK VINA RESULT:      -9.2      0.000      0.000
REMARK  Name = 
REMARK  3 active torsions:
REMARK  status: ('A' for Active; 'I' for Inactive)
REMARK    1  A    between atoms: C_2  and  C_19
REMARK    2  A    between atoms: N_12  and  C_13
REMARK    3  A    between atoms: C_22  and  O_23
REMARK                            x       y       z     vdW  Elec       q    Type
REMARK                         _______ _______ _______ _____ _____    ______ ____
ROOT
ATOM      1  O   UNL     1       3.189   5.062  17.082  0.00  0.00    +0.000 OA
ATOM      2  C   UNL     1       3.698   4.141  17.711  0.00  0.00    +0.000 C 
ATOM      3  N   UNL     1       4.912   3.527  17.426  0.00  0.00    +0.000 N 
ATOM      4  C   UNL     1       5.487   3.885  16.215  0.00  0.00    +0.000 A 
ATOM      5  N   UNL     1       5.324   3.156  15.134  0.00  0.00    +0.000 NA
ATOM      6  C   UNL     1       6.083   3.755  14.168  0.00  0.00    +0.000 A 
ATOM      7  C   UNL     1       6.187   3.439  12.802  0.00  0.00    +0.000 A 
ATOM      8  C   UNL     1       7.053   4.180  11.990  0.00  0.00    +0.000 A 
ATOM      9  C   UNL     1       7.790   5.234  12.522  0.00  0.00    +0.000 A 
ATOM     10  C   UNL     1       7.675   5.582  13.871  0.00  0.00    +0.000 A 
ATOM     11  C   UNL     1       6.829   4.809  14.688  0.00  0.00    +0.000 A 
ATOM     12  N   UNL     1       6.479   4.860  16.042  0.00  0.00    +0.000 N 
ATOM     13  H   UNL     1       4.821   2.519  17.500  0.00  0.00    +0.000 HD
ENDROOT
BRANCH  12  14
ATOM     14  C   UNL     1       7.113   5.667  17.039  0.00  0.00    +0.000 A 
ATOM     15  C   UNL     1       7.602   5.112  18.225  0.00  0.00    +0.000 A 
ATOM     16  C   UNL     1       8.212   5.923  19.189  0.00  0.00    +0.000 A 
ATOM     17  C   UNL     1       8.332   7.297  18.981  0.00  0.00    +0.000 A 
ATOM     18  C   UNL     1       7.856   7.858  17.801  0.00  0.00    +0.000 A 
ATOM     19  C   UNL     1       7.264   7.049  16.830  0.00  0.00    +0.000 A 
ENDBRANCH  12  14
BRANCH   2  20
ATOM     20  C   UNL     1       2.992   3.638  18.913  0.00  0.00    +0.000 A 
ATOM     21  C   UNL     1       1.654   3.968  19.137  0.00  0.00    +0.000 A 
ATOM     22  C   UNL     1       1.041   3.581  20.330  0.00  0.00    +0.000 A 
ATOM     23  C   UNL     1       1.801   2.884  21.255  0.00  0.00    +0.000 A 
ATOM     24  N   UNL     1       3.088   2.539  21.066  0.00  0.00    +0.000 NA
ATOM     25  C   UNL     1       3.662   2.931  19.902  0.00  0.00    +0.000 A 
BRANCH  23  26
ATOM     26  O   UNL     1       1.282   2.509  22.457  0.00  0.00    +0.000 OA
ATOM     27  H   UNL     1       1.683   3.057  23.147  0.00  0.00    +0.000 HD
ENDBRANCH  23  26
ENDBRANCH   2  20
TORSDOF 3
ENDMDL
MODEL 2
REMARK VINA RESULT:      -8.8      0.597      1.165
REMARK  Name = 
REMARK  3 active torsions:
REMARK  status: ('A' for Active; 'I' for Inactive)
REMARK    1  A    between atoms: C_2  and  C_19
REMARK    2  A    between atoms: N_12  and  C_13
REMARK    3  A    between atoms: C_22  and  O_23
REMARK                            x       y       z     vdW  Elec       q    Type
REMARK                         _______ _______ _______ _____ _____    ______ ____
ROOT
ATOM      1  O   UNL     1       3.164   5.258  17.095  0.00  0.00    +0.000 OA
ATOM      2  C   UNL     1       3.653   4.351  17.762  0.00  0.00    +0.000 C 
ATOM      3  N   UNL     1       4.857   3.705  17.506  0.00  0.00    +0.000 N 
ATOM      4  C   UNL     1       5.444   4.007  16.286  0.00  0.00    +0.000 A 
ATOM      5  N   UNL     1       5.272   3.241  15.231  0.00  0.00    +0.000 NA
ATOM      6  C   UNL     1       6.047   3.791  14.248  0.00  0.00    +0.000 A 
ATOM      7  C   UNL     1       6.152   3.422  12.895  0.00  0.00    +0.000 A 
ATOM      8  C   UNL     1       7.035   4.116  12.061  0.00  0.00    +0.000 A 
ATOM      9  C   UNL     1       7.789   5.176  12.558  0.00  0.00    +0.000 A 
ATOM     10  C   UNL     1       7.674   5.576  13.893  0.00  0.00    +0.000 A 
ATOM     11  C   UNL     1       6.810   4.849  14.733  0.00  0.00    +0.000 A 
ATOM     12  N   UNL     1       6.455   4.957  16.082  0.00  0.00    +0.000 N 
ATOM     13  H   UNL     1       4.746   2.702  17.616  0.00  0.00    +0.000 HD
ENDROOT
BRANCH  12  14
ATOM     14  C   UNL     1       7.099   5.788  17.052  0.00  0.00    +0.000 A 
ATOM     15  C   UNL     1       7.253   7.163  16.848  0.00  0.00    +0.000 A 
ATOM     16  C   UNL     1       7.893   7.955  17.808  0.00  0.00    +0.000 A 
ATOM     17  C   UNL     1       8.394   7.380  18.976  0.00  0.00    +0.000 A 
ATOM     18  C   UNL     1       8.239   6.015  19.192  0.00  0.00    +0.000 A 
ATOM     19  C   UNL     1       7.584   5.226  18.245  0.00  0.00    +0.000 A 
ENDBRANCH  12  14
BRANCH   2  20
ATOM     20  C   UNL     1       2.932   3.907  18.977  0.00  0.00    +0.000 A 
ATOM     21  C   UNL     1       2.829   4.748  20.086  0.00  0.00    +0.000 A 
ATOM     22  C   UNL     1       2.247   4.268  21.261  0.00  0.00    +0.000 A 
ATOM     23  C   UNL     1       1.797   2.958  21.275  0.00  0.00    +0.000 A 
ATOM     24  N   UNL     1       1.870   2.124  20.221  0.00  0.00    +0.000 NA
ATOM     25  C   UNL     1       2.444   2.612  19.095  0.00  0.00    +0.000 A 
BRANCH  23  26
ATOM     26  O   UNL     1       1.255   2.410  22.399  0.00  0.00    +0.000 OA
ATOM     27  H   UNL     1       1.617   1.519  22.508  0.00  0.00    +0.000 HD
ENDBRANCH  23  26
ENDBRANCH   2  20
TORSDOF 3
ENDMDL
MODEL 3
REMARK VINA RESULT:      -8.2      4.706      6.738
REMARK  Name = 
REMARK  3 active torsions:
REMARK  status: ('A' for Active; 'I' for Inactive)
REMARK    1  A    between atoms: C_2  and  C_19
REMARK    2  A    between atoms: N_12  and  C_13
REMARK    3  A    between atoms: C_22  and  O_23
REMARK                            x       y       z     vdW  Elec       q    Type
REMARK                         _______ _______ _______ _____ _____    ______ ____
ROOT
ATOM      1  O   UNL     1       2.162   8.847  20.015  0.00  0.00    +0.000 OA
ATOM      2  C   UNL     1       1.516   8.748  18.978  0.00  0.00    +0.000 C 
ATOM      3  N   UNL     1       1.827   7.936  17.893  0.00  0.00    +0.000 N 
ATOM      4  C   UNL     1       3.077   7.336  17.942  0.00  0.00    +0.000 A 
ATOM      5  N   UNL     1       4.117   7.861  17.333  0.00  0.00    +0.000 NA
ATOM      6  C   UNL     1       5.141   6.976  17.524  0.00  0.00    +0.000 A 
ATOM      7  C   UNL     1       6.495   7.099  17.166  0.00  0.00    +0.000 A 
ATOM      8  C   UNL     1       7.376   6.048  17.442  0.00  0.00    +0.000 A 
ATOM      9  C   UNL     1       6.924   4.898  18.084  0.00  0.00    +0.000 A 
ATOM     10  C   UNL     1       5.588   4.772  18.476  0.00  0.00    +0.000 A 
ATOM     11  C   UNL     1       4.701   5.820  18.162  0.00  0.00    +0.000 A 
ATOM     12  N   UNL     1       3.336   6.033  18.388  0.00  0.00    +0.000 N 
ATOM     13  H   UNL     1       1.705   8.449  17.026  0.00  0.00    +0.000 HD
ENDROOT
BRANCH  12  14
ATOM     14  C   UNL     1       2.405   5.055  18.861  0.00  0.00    +0.000 A 
ATOM     15  C   UNL     1       1.941   5.067  20.180  0.00  0.00    +0.000 A 
ATOM     16  C   UNL     1       1.036   4.096  20.622  0.00  0.00    +0.000 A 
ATOM     17  C   UNL     1       0.592   3.098  19.754  0.00  0.00    +0.000 A 
ATOM     18  C   UNL     1       1.042   3.082  18.437  0.00  0.00    +0.000 A 
ATOM     19  C   UNL     1       1.930   4.060  17.989  0.00  0.00    +0.000 A 
ENDBRANCH  12  14
BRANCH   2  20
ATOM     20  C   UNL     1       0.263   9.530  18.855  0.00  0.00    +0.000 A 
ATOM     21  C   UNL     1      -0.466   9.517  17.664  0.00  0.00    +0.000 A 
ATOM     22  C   UNL     1      -1.578  10.349  17.531  0.00  0.00    +0.000 A 
ATOM     23  C   UNL     1      -1.910  11.168  18.598  0.00  0.00    +0.000 A 
ATOM     24  N   UNL     1      -1.237  11.197  19.763  0.00  0.00    +0.000 NA
ATOM     25  C   UNL     1      -0.158  10.384  19.866  0.00  0.00    +0.000 A 
BRANCH  23  26
ATOM     26  O   UNL     1      -2.958  12.035  18.524  0.00  0.00    +0.000 OA
ATOM     27  H   UNL     1      -2.733  12.732  17.890  0.00  0.00    +0.000 HD
ENDBRANCH  23  26
ENDBRANCH   2  20
TORSDOF 3
ENDMDL
MODEL 4
REMARK VINA RESULT:      -8.0      4.423      6.364
REMARK  Name = 
REMARK  3 active torsions:
REMARK  status: ('A' for Active; 'I' for Inactive)
REMARK    1  A    between atoms: C_2  and  C_19
REMARK    2  A    between atoms: N_12  and  C_13
REMARK    3  A    between atoms: C_22  and  O_23
REMARK                            x       y       z     vdW  Elec       q    Type
REMARK                         _______ _______ _______ _____ _____    ______ ____
ROOT
ATOM      1  O   UNL     1       1.681   7.755  17.510  0.00  0.00    +0.000 OA
ATOM      2  C   UNL     1       1.979   8.107  18.646  0.00  0.00    +0.000 C 
ATOM      3  N   UNL     1       2.537   7.302  19.633  0.00  0.00    +0.000 N 
ATOM      4  C   UNL     1       2.581   5.947  19.337  0.00  0.00    +0.000 A 
ATOM      5  N   UNL     1       1.648   5.121  19.757  0.00  0.00    +0.000 NA
ATOM      6  C   UNL     1       2.049   3.878  19.355  0.00  0.00    +0.000 A 
ATOM      7  C   UNL     1       1.369   2.652  19.460  0.00  0.00    +0.000 A 
ATOM      8  C   UNL     1       1.986   1.484  18.997  0.00  0.00    +0.000 A 
ATOM      9  C   UNL     1       3.252   1.534  18.420  0.00  0.00    +0.000 A 
ATOM     10  C   UNL     1       3.929   2.749  18.280  0.00  0.00    +0.000 A 
ATOM     11  C   UNL     1       3.317   3.914  18.780  0.00  0.00    +0.000 A 
ATOM     12  N   UNL     1       3.688   5.263  18.817  0.00  0.00    +0.000 N 
ATOM     13  H   UNL     1       2.074   7.464  20.521  0.00  0.00    +0.000 HD
ENDROOT
BRANCH  12  14
ATOM     14  C   UNL     1       4.982   5.782  18.499  0.00  0.00    +0.000 A 
ATOM     15  C   UNL     1       5.173   6.663  17.430  0.00  0.00    +0.000 A 
ATOM     16  C   UNL     1       6.451   7.152  17.134  0.00  0.00    +0.000 A 
ATOM     17  C   UNL     1       7.551   6.759  17.897  0.00  0.00    +0.000 A 
ATOM     18  C   UNL     1       7.370   5.890  18.967  0.00  0.00    +0.000 A 
ATOM     19  C   UNL     1       6.095   5.415  19.276  0.00  0.00    +0.000 A 
ENDBRANCH  12  14
BRANCH   2  20
ATOM     20  C   UNL     1       1.768   9.525  19.019  0.00  0.00    +0.000 A 
ATOM     21  C   UNL     1       1.023   9.855  20.153  0.00  0.00    +0.000 A 
ATOM     22  C   UNL     1       0.738  11.195  20.422  0.00  0.00    +0.000 A 
ATOM     23  C   UNL     1       1.208  12.150  19.536  0.00  0.00    +0.000 A 
ATOM     24  N   UNL     1       1.938  11.868  18.441  0.00  0.00    +0.000 NA
ATOM     25  C   UNL     1       2.196  10.560  18.199  0.00  0.00    +0.000 A 
BRANCH  23  26
ATOM     26  O   UNL     1       0.934  13.473  19.713  0.00  0.00    +0.000 OA
ATOM     27  H   UNL     1       0.708  13.615  20.643  0.00  0.00    +0.000 HD
ENDBRANCH  23  26
ENDBRANCH   2  20
TORSDOF 3
ENDMDL
MODEL 5
REMARK VINA RESULT:      -7.9      4.421      6.308
REMARK  Name = 
REMARK  3 active torsions:
REMARK  status: ('A' for Active; 'I' for Inactive)
REMARK    1  A    between atoms: C_2  and  C_19
REMARK    2  A    between atoms: N_12  and  C_13
REMARK    3  A    between atoms: C_22  and  O_23
REMARK                            x       y       z     vdW  Elec       q    Type
REMARK                         _______ _______ _______ _____ _____    ______ ____
ROOT
ATOM      1  O   UNL     1       1.618   7.751  17.400  0.00  0.00    +0.000 OA
ATOM      2  C   UNL     1       1.907   8.128  18.531  0.00  0.00    +0.000 C 
ATOM      3  N   UNL     1       2.461   7.347  19.537  0.00  0.00    +0.000 N 
ATOM      4  C   UNL     1       2.513   5.986  19.271  0.00  0.00    +0.000 A 
ATOM      5  N   UNL     1       1.580   5.165  19.701  0.00  0.00    +0.000 NA
ATOM      6  C   UNL     1       1.990   3.915  19.328  0.00  0.00    +0.000 A 
ATOM      7  C   UNL     1       1.315   2.689  19.454  0.00  0.00    +0.000 A 
ATOM      8  C   UNL     1       1.940   1.514  19.020  0.00  0.00    +0.000 A 
ATOM      9  C   UNL     1       3.209   1.558  18.451  0.00  0.00    +0.000 A 
ATOM     10  C   UNL     1       3.882   2.773  18.290  0.00  0.00    +0.000 A 
ATOM     11  C   UNL     1       3.261   3.945  18.762  0.00  0.00    +0.000 A 
ATOM     12  N   UNL     1       3.626   5.296  18.773  0.00  0.00    +0.000 N 
ATOM     13  H   UNL     1       1.991   7.526  20.419  0.00  0.00    +0.000 HD
ENDROOT
BRANCH  12  14
ATOM     14  C   UNL     1       4.921   5.815  18.453  0.00  0.00    +0.000 A 
ATOM     15  C   UNL     1       6.050   5.472  19.202  0.00  0.00    +0.000 A 
ATOM     16  C   UNL     1       7.305   5.997  18.874  0.00  0.00    +0.000 A 
ATOM     17  C   UNL     1       7.443   6.878  17.801  0.00  0.00    +0.000 A 
ATOM     18  C   UNL     1       6.327   7.219  17.045  0.00  0.00    +0.000 A 
ATOM     19  C   UNL     1       5.078   6.682  17.358  0.00  0.00    +0.000 A 
ENDBRANCH  12  14
BRANCH   2  20
ATOM     20  C   UNL     1       1.686   9.553  18.872  0.00  0.00    +0.000 A 
ATOM     21  C   UNL     1       2.183  10.564  18.047  0.00  0.00    +0.000 A 
ATOM     22  C   UNL     1       2.065  11.896  18.446  0.00  0.00    +0.000 A 
ATOM     23  C   UNL     1       1.458  12.159  19.663  0.00  0.00    +0.000 A 
ATOM     24  N   UNL     1       0.958  11.211  20.476  0.00  0.00    +0.000 NA
ATOM     25  C   UNL     1       1.090   9.925  20.070  0.00  0.00    +0.000 A 
BRANCH  23  26
ATOM     26  O   UNL     1       1.345  13.433  20.135  0.00  0.00    +0.000 OA
ATOM     27  H   UNL     1       1.199  14.024  19.383  0.00  0.00    +0.000 HD
ENDBRANCH  23  26
ENDBRANCH   2  20
TORSDOF 3
ENDMDL
MODEL 6
REMARK VINA RESULT:      -7.8      4.624      6.693
REMARK  Name = 
REMARK  3 active torsions:
REMARK  status: ('A' for Active; 'I' for Inactive)
REMARK    1  A    between atoms: C_2  and  C_19
REMARK    2  A    between atoms: N_12  and  C_13
REMARK    3  A    between atoms: C_22  and  O_23
REMARK                            x       y       z     vdW  Elec       q    Type
REMARK                         _______ _______ _______ _____ _____    ______ ____
ROOT
ATOM      1  O   UNL     1       2.220   8.869  19.884  0.00  0.00    +0.000 OA
ATOM      2  C   UNL     1       1.604   8.762  18.829  0.00  0.00    +0.000 C 
ATOM      3  N   UNL     1       1.939   7.931  17.767  0.00  0.00    +0.000 N 
ATOM      4  C   UNL     1       3.180   7.319  17.862  0.00  0.00    +0.000 A 
ATOM      5  N   UNL     1       4.244   7.824  17.277  0.00  0.00    +0.000 NA
ATOM      6  C   UNL     1       5.252   6.932  17.512  0.00  0.00    +0.000 A 
ATOM      7  C   UNL     1       6.617   7.036  17.193  0.00  0.00    +0.000 A 
ATOM      8  C   UNL     1       7.478   5.979  17.511  0.00  0.00    +0.000 A 
ATOM      9  C   UNL     1       6.995   4.844  18.155  0.00  0.00    +0.000 A 
ATOM     10  C   UNL     1       5.646   4.738  18.508  0.00  0.00    +0.000 A 
ATOM     11  C   UNL     1       4.781   5.789  18.152  0.00  0.00    +0.000 A 
ATOM     12  N   UNL     1       3.412   6.020  18.334  0.00  0.00    +0.000 N 
ATOM     13  H   UNL     1       1.849   8.432  16.889  0.00  0.00    +0.000 HD
ENDROOT
BRANCH  12  14
ATOM     14  C   UNL     1       2.457   5.059  18.793  0.00  0.00    +0.000 A 
ATOM     15  C   UNL     1       1.975   4.050  17.953  0.00  0.00    +0.000 A 
ATOM     16  C   UNL     1       1.035   3.126  18.423  0.00  0.00    +0.000 A 
ATOM     17  C   UNL     1       0.560   3.206  19.732  0.00  0.00    +0.000 A 
ATOM     18  C   UNL     1       1.040   4.200  20.578  0.00  0.00    +0.000 A 
ATOM     19  C   UNL     1       1.991   5.112  20.118  0.00  0.00    +0.000 A 
ENDBRANCH  12  14
BRANCH   2  20
ATOM     20  C   UNL     1       0.364   9.555  18.658  0.00  0.00    +0.000 A 
ATOM     21  C   UNL     1      -0.099  10.375  19.688  0.00  0.00    +0.000 A 
ATOM     22  C   UNL     1      -1.328  11.023  19.550  0.00  0.00    +0.000 A 
ATOM     23  C   UNL     1      -2.046  10.814  18.384  0.00  0.00    +0.000 A 
ATOM     24  N   UNL     1      -1.623  10.041  17.367  0.00  0.00    +0.000 NA
ATOM     25  C   UNL     1      -0.431   9.419  17.528  0.00  0.00    +0.000 A 
BRANCH  23  26
ATOM     26  O   UNL     1      -3.271  11.382  18.198  0.00  0.00    +0.000 OA
ATOM     27  H   UNL     1      -3.941  10.787  18.563  0.00  0.00    +0.000 HD
ENDBRANCH  23  26
ENDBRANCH   2  20
TORSDOF 3
ENDMDL
MODEL 7
REMARK VINA RESULT:      -7.1      7.550      9.729
REMARK  Name = 
REMARK  3 active torsions:
REMARK  status: ('A' for Active; 'I' for Inactive)
REMARK    1  A    between atoms: C_2  and  C_19
REMARK    2  A    between atoms: N_12  and  C_13
REMARK    3  A    between atoms: C_22  and  O_23
REMARK                            x       y       z     vdW  Elec       q    Type
REMARK                         _______ _______ _______ _____ _____    ______ ____
ROOT
ATOM      1  O   UNL     1       2.181   9.695  17.631  0.00  0.00    +0.000 OA
ATOM      2  C   UNL     1       1.797   9.235  18.701  0.00  0.00    +0.000 C 
ATOM      3  N   UNL     1       1.090   9.924  19.680  0.00  0.00    +0.000 N 
ATOM      4  C   UNL     1       0.984  11.293  19.483  0.00  0.00    +0.000 A 
ATOM      5  N   UNL     1       1.813  12.137  20.057  0.00  0.00    +0.000 NA
ATOM      6  C   UNL     1       1.369  13.382  19.709  0.00  0.00    +0.000 A 
ATOM      7  C   UNL     1       1.951  14.635  19.974  0.00  0.00    +0.000 A 
ATOM      8  C   UNL     1       1.305  15.797  19.537  0.00  0.00    +0.000 A 
ATOM      9  C   UNL     1       0.109  15.717  18.829  0.00  0.00    +0.000 A 
ATOM     10  C   UNL     1      -0.467  14.478  18.530  0.00  0.00    +0.000 A 
ATOM     11  C   UNL     1       0.171  13.316  19.004  0.00  0.00    +0.000 A 
ATOM     12  N   UNL     1      -0.110  11.949  18.902  0.00  0.00    +0.000 N 
ATOM     13  H   UNL     1       1.473   9.718  20.597  0.00  0.00    +0.000 HD
ENDROOT
BRANCH  12  14
ATOM     14  C   UNL     1      -1.328  11.380  18.413  0.00  0.00    +0.000 A 
ATOM     15  C   UNL     1      -1.326  10.362  17.454  0.00  0.00    +0.000 A 
ATOM     16  C   UNL     1      -2.530   9.826  16.986  0.00  0.00    +0.000 A 
ATOM     17  C   UNL     1      -3.749  10.308  17.464  0.00  0.00    +0.000 A 
ATOM     18  C   UNL     1      -3.762  11.314  18.424  0.00  0.00    +0.000 A 
ATOM     19  C   UNL     1      -2.563  11.837  18.906  0.00  0.00    +0.000 A 
ENDBRANCH  12  14
BRANCH   2  20
ATOM     20  C   UNL     1       2.066   7.807  18.988  0.00  0.00    +0.000 A 
ATOM     21  C   UNL     1       2.467   6.944  17.967  0.00  0.00    +0.000 A 
ATOM     22  C   UNL     1       2.604   5.581  18.235  0.00  0.00    +0.000 A 
ATOM     23  C   UNL     1       2.324   5.138  19.517  0.00  0.00    +0.000 A 
ATOM     24  N   UNL     1       1.948   5.944  20.527  0.00  0.00    +0.000 NA
ATOM     25  C   UNL     1       1.817   7.262  20.240  0.00  0.00    +0.000 A 
BRANCH  23  26
ATOM     26  O   UNL     1       2.397   3.817  19.840  0.00  0.00    +0.000 OA
ATOM     27  H   UNL     1       2.960   3.725  20.623  0.00  0.00    +0.000 HD
ENDBRANCH  23  26
ENDBRANCH   2  20
TORSDOF 3
ENDMDL
MODEL 8
REMARK VINA RESULT:      -7.0     11.331     14.717
REMARK  Name = 
REMARK  3 active torsions:
REMARK  status: ('A' for Active; 'I' for Inactive)
REMARK    1  A    between atoms: C_2  and  C_19
REMARK    2  A    between atoms: N_12  and  C_13
REMARK    3  A    between atoms: C_22  and  O_23
REMARK                            x       y       z     vdW  Elec       q    Type
REMARK                         _______ _______ _______ _____ _____    ______ ____
ROOT
ATOM      1  O   UNL     1      -2.143  13.480  20.987  0.00  0.00    +0.000 OA
ATOM      2  C   UNL     1      -2.268  12.541  21.767  0.00  0.00    +0.000 C 
ATOM      3  N   UNL     1      -3.393  12.259  22.533  0.00  0.00    +0.000 N 
ATOM      4  C   UNL     1      -4.373  13.242  22.532  0.00  0.00    +0.000 A 
ATOM      5  N   UNL     1      -4.445  14.143  23.487  0.00  0.00    +0.000 NA
ATOM      6  C   UNL     1      -5.558  14.885  23.209  0.00  0.00    +0.000 A 
ATOM      7  C   UNL     1      -6.037  16.037  23.857  0.00  0.00    +0.000 A 
ATOM      8  C   UNL     1      -7.225  16.630  23.413  0.00  0.00    +0.000 A 
ATOM      9  C   UNL     1      -7.917  16.099  22.328  0.00  0.00    +0.000 A 
ATOM     10  C   UNL     1      -7.437  14.972  21.652  0.00  0.00    +0.000 A 
ATOM     11  C   UNL     1      -6.262  14.362  22.128  0.00  0.00    +0.000 A 
ATOM     12  N   UNL     1      -5.513  13.252  21.718  0.00  0.00    +0.000 N 
ATOM     13  H   UNL     1      -3.120  12.021  23.481  0.00  0.00    +0.000 HD
ENDROOT
BRANCH  12  14
ATOM     14  C   UNL     1      -5.921  12.281  20.749  0.00  0.00    +0.000 A 
ATOM     15  C   UNL     1      -5.286  12.177  19.508  0.00  0.00    +0.000 A 
ATOM     16  C   UNL     1      -5.708  11.224  18.574  0.00  0.00    +0.000 A 
ATOM     17  C   UNL     1      -6.773  10.372  18.867  0.00  0.00    +0.000 A 
ATOM     18  C   UNL     1      -7.405  10.462  20.102  0.00  0.00    +0.000 A 
ATOM     19  C   UNL     1      -6.976  11.399  21.042  0.00  0.00    +0.000 A 
ENDBRANCH  12  14
BRANCH   2  20
ATOM     20  C   UNL     1      -1.145  11.584  21.898  0.00  0.00    +0.000 A 
ATOM     21  C   UNL     1      -0.364  11.253  20.790  0.00  0.00    +0.000 A 
ATOM     22  C   UNL     1       0.614  10.264  20.909  0.00  0.00    +0.000 A 
ATOM     23  C   UNL     1       0.762   9.642  22.138  0.00  0.00    +0.000 A 
ATOM     24  N   UNL     1       0.035   9.945  23.229  0.00  0.00    +0.000 NA
ATOM     25  C   UNL     1      -0.911  10.904  23.086  0.00  0.00    +0.000 A 
BRANCH  23  26
ATOM     26  O   UNL     1       1.669   8.640  22.317  0.00  0.00    +0.000 OA
ATOM     27  H   UNL     1       1.895   8.598  23.257  0.00  0.00    +0.000 HD
ENDBRANCH  23  26
ENDBRANCH   2  20
TORSDOF 3
ENDMDL
MODEL 9
REMARK VINA RESULT:      -7.0     11.343     14.715
REMARK  Name = 
REMARK  3 active torsions:
REMARK  status: ('A' for Active; 'I' for Inactive)
REMARK    1  A    between atoms: C_2  and  C_19
REMARK    2  A    between atoms: N_12  and  C_13
REMARK    3  A    between atoms: C_22  and  O_23
REMARK                            x       y       z     vdW  Elec       q    Type
REMARK                         _______ _______ _______ _____ _____    ______ ____
ROOT
ATOM      1  O   UNL     1      -1.638  13.203  21.293  0.00  0.00    +0.000 OA
ATOM      2  C   UNL     1      -1.840  12.272  22.066  0.00  0.00    +0.000 C 
ATOM      3  N   UNL     1      -2.835  12.214  23.035  0.00  0.00    +0.000 N 
ATOM      4  C   UNL     1      -3.527  13.397  23.245  0.00  0.00    +0.000 A 
ATOM      5  N   UNL     1      -3.196  14.226  24.211  0.00  0.00    +0.000 NA
ATOM      6  C   UNL     1      -4.127  15.226  24.172  0.00  0.00    +0.000 A 
ATOM      7  C   UNL     1      -4.180  16.414  24.922  0.00  0.00    +0.000 A 
ATOM      8  C   UNL     1      -5.249  17.298  24.733  0.00  0.00    +0.000 A 
ATOM      9  C   UNL     1      -6.240  17.016  23.797  0.00  0.00    +0.000 A 
ATOM     10  C   UNL     1      -6.186  15.855  23.020  0.00  0.00    +0.000 A 
ATOM     11  C   UNL     1      -5.127  14.955  23.242  0.00  0.00    +0.000 A 
ATOM     12  N   UNL     1      -4.763  13.730  22.673  0.00  0.00    +0.000 N 
ATOM     13  H   UNL     1      -2.454  11.857  23.905  0.00  0.00    +0.000 HD
ENDROOT
BRANCH  12  14
ATOM     14  C   UNL     1      -5.569  12.947  21.787  0.00  0.00    +0.000 A 
ATOM     15  C   UNL     1      -5.177  12.699  20.469  0.00  0.00    +0.000 A 
ATOM     16  C   UNL     1      -5.986  11.937  19.619  0.00  0.00    +0.000 A 
ATOM     17  C   UNL     1      -7.200  11.422  20.075  0.00  0.00    +0.000 A 
ATOM     18  C   UNL     1      -7.595  11.656  21.388  0.00  0.00    +0.000 A 
ATOM     19  C   UNL     1      -6.782  12.400  22.243  0.00  0.00    +0.000 A 
ENDBRANCH  12  14
BRANCH   2  20
ATOM     20  C   UNL     1      -0.980  11.071  21.955  0.00  0.00    +0.000 A 
ATOM     21  C   UNL     1      -0.665  10.320  23.089  0.00  0.00    +0.000 A 
ATOM     22  C   UNL     1       0.239   9.261  22.983  0.00  0.00    +0.000 A 
ATOM     23  C   UNL     1       0.796   9.004  21.741  0.00  0.00    +0.000 A 
ATOM     24  N   UNL     1       0.505   9.699  20.626  0.00  0.00    +0.000 NA
ATOM     25  C   UNL     1      -0.370  10.726  20.757  0.00  0.00    +0.000 A 
BRANCH  23  26
ATOM     26  O   UNL     1       1.715   8.012  21.570  0.00  0.00    +0.000 OA
ATOM     27  H   UNL     1       1.337   7.344  20.981  0.00  0.00    +0.000 HD
ENDBRANCH  23  26
ENDBRANCH   2  20
TORSDOF 3
ENDMDL
