MODEL 1
REMARK VINA RESULT:      -9.2      0.000      0.000
REMARK  Name = 
REMARK  5 active torsions:
REMARK  status: ('A' for Active; 'I' for Inactive)
REMARK    1  A    between atoms: C_1  and  C_2
REMARK    2  A    between atoms: C_2  and  C_3
REMARK    3  A    between atoms: C_10  and  C_11
REMARK    4  A    between atoms: N_13  and  C_14
REMARK    5  A    between atoms: C_17  and  C_18
REMARK                            x       y       z     vdW  Elec       q    Type
REMARK                         _______ _______ _______ _____ _____    ______ ____
ROOT
ATOM      1  C   UNL     1       2.050   6.306  20.124  0.00  0.00    +0.000 C 
ATOM      2  O   UNL     1       1.180   5.695  20.738  0.00  0.00    +0.000 OA
ATOM      3  N   UNL     1       2.196   7.680  20.059  0.00  0.00    +0.000 N 
ATOM      4  H   UNL     1       2.828   8.066  19.369  0.00  0.00    +0.000 HD
ENDROOT
BRANCH   1  14
ATOM      5  C   UNL     1       7.469   5.618  19.161  0.00  0.00    +0.000 C 
ATOM      6  C   UNL     1       6.546   5.703  17.949  0.00  0.00    +0.000 C 
ATOM      7  C   UNL     1       6.593   7.087  17.296  0.00  0.00    +0.000 C 
ATOM      8  C   UNL     1       6.884   4.605  16.912  0.00  0.00    +0.000 C 
ATOM      9  O   UNL     1       7.935   4.461  16.311  0.00  0.00    +0.000 OA
ATOM     10  N   UNL     1       5.756   3.795  16.774  0.00  0.00    +0.000 N 
ATOM     11  C   UNL     1       4.721   4.215  17.594  0.00  0.00    +0.000 A 
ATOM     12  C   UNL     1       3.448   3.689  17.717  0.00  0.00    +0.000 A 
ATOM     13  C   UNL     1       2.550   4.329  18.589  0.00  0.00    +0.000 A 
ATOM     14  C   UNL     1       2.959   5.467  19.311  0.00  0.00    +0.000 A 
ATOM     15  C   UNL     1       4.267   5.958  19.185  0.00  0.00    +0.000 A 
ATOM     16  C   UNL     1       5.131   5.329  18.317  0.00  0.00    +0.000 A 
ATOM     17  H   UNL     1       5.727   3.016  16.132  0.00  0.00    +0.000 HD
ENDBRANCH   1  14
BRANCH   3  18
ATOM     18  C   UNL     1       1.271   8.581  20.652  0.00  0.00    +0.000 A 
ATOM     19  C   UNL     1       0.630   9.584  19.916  0.00  0.00    +0.000 A 
ATOM     20  C   UNL     1      -0.111  10.583  20.545  0.00  0.00    +0.000 A 
ATOM     21  C   UNL     1      -0.258  10.593  21.932  0.00  0.00    +0.000 A 
ATOM     22  C   UNL     1       0.284   9.524  22.661  0.00  0.00    +0.000 A 
ATOM     23  C   UNL     1       1.038   8.519  22.027  0.00  0.00    +0.000 A 
BRANCH  21  24
ATOM     24  C   UNL     1      -0.906  11.705  22.608  0.00  0.00    +0.000 A 
ATOM     25  C   UNL     1      -2.214  11.744  23.050  0.00  0.00    +0.000 A 
ATOM     26  N   UNL     1      -2.395  13.010  23.538  0.00  0.00    +0.000 N 
ATOM     27  C   UNL     1      -1.218  13.682  23.379  0.00  0.00    +0.000 A 
ATOM     28  N   UNL     1      -0.299  12.923  22.829  0.00  0.00    +0.000 NA
ATOM     29  H   UNL     1      -3.251  13.387  23.921  0.00  0.00    +0.000 HD
ENDBRANCH  21  24
ENDBRANCH   3  18
TORSDOF 3
ENDMDL
MODEL 2
REMARK VINA RESULT:      -8.6      2.777      3.646
REMARK  Name = 
REMARK  5 active torsions:
REMARK  status: ('A' for Active; 'I' for Inactive)
REMARK    1  A    between atoms: C_1  and  C_2
REMARK    2  A    between atoms: C_2  and  C_3
REMARK    3  A    between atoms: C_10  and  C_11
REMARK    4  A    between atoms: N_13  and  C_14
REMARK    5  A    between atoms: C_17  and  C_18
REMARK                            x       y       z     vdW  Elec       q    Type
REMARK                         _______ _______ _______ _____ _____    ______ ____
ROOT
ATOM      1  C   UNL     1       2.167   7.947  18.759  0.00  0.00    +0.000 C 
ATOM      2  O   UNL     1       1.928   7.994  19.962  0.00  0.00    +0.000 OA
ATOM      3  N   UNL     1       1.838   8.907  17.819  0.00  0.00    +0.000 N 
ATOM      4  H   UNL     1       1.914   8.667  16.838  0.00  0.00    +0.000 HD
ENDROOT
BRANCH   1  14
ATOM      5  C   UNL     1       1.134   2.499  18.617  0.00  0.00    +0.000 C 
ATOM      6  C   UNL     1       2.515   2.939  19.094  0.00  0.00    +0.000 C 
ATOM      7  C   UNL     1       2.631   2.890  20.619  0.00  0.00    +0.000 C 
ATOM      8  C   UNL     1       3.629   2.087  18.440  0.00  0.00    +0.000 C 
ATOM      9  O   UNL     1       3.792   0.883  18.547  0.00  0.00    +0.000 OA
ATOM     10  N   UNL     1       4.436   2.949  17.695  0.00  0.00    +0.000 N 
ATOM     11  C   UNL     1       3.990   4.258  17.770  0.00  0.00    +0.000 A 
ATOM     12  C   UNL     1       4.538   5.391  17.195  0.00  0.00    +0.000 A 
ATOM     13  C   UNL     1       3.927   6.628  17.461  0.00  0.00    +0.000 A 
ATOM     14  C   UNL     1       2.786   6.688  18.286  0.00  0.00    +0.000 A 
ATOM     15  C   UNL     1       2.238   5.516  18.829  0.00  0.00    +0.000 A 
ATOM     16  C   UNL     1       2.857   4.313  18.572  0.00  0.00    +0.000 A 
ATOM     17  H   UNL     1       5.248   2.625  17.191  0.00  0.00    +0.000 HD
ENDBRANCH   1  14
BRANCH   3  18
ATOM     18  C   UNL     1       1.083  10.068  18.137  0.00  0.00    +0.000 A 
ATOM     19  C   UNL     1       1.689  11.262  18.545  0.00  0.00    +0.000 A 
ATOM     20  C   UNL     1       0.936  12.321  19.047  0.00  0.00    +0.000 A 
ATOM     21  C   UNL     1      -0.453  12.230  19.132  0.00  0.00    +0.000 A 
ATOM     22  C   UNL     1      -1.072  11.080  18.615  0.00  0.00    +0.000 A 
ATOM     23  C   UNL     1      -0.311  10.008  18.113  0.00  0.00    +0.000 A 
BRANCH  21  24
ATOM     24  C   UNL     1      -1.234  13.267  19.785  0.00  0.00    +0.000 A 
ATOM     25  C   UNL     1      -2.536  13.153  20.230  0.00  0.00    +0.000 A 
ATOM     26  N   UNL     1      -2.875  14.398  20.688  0.00  0.00    +0.000 N 
ATOM     27  C   UNL     1      -1.791  15.208  20.509  0.00  0.00    +0.000 A 
ATOM     28  N   UNL     1      -0.784  14.557  19.974  0.00  0.00    +0.000 NA
ATOM     29  H   UNL     1      -3.771  14.673  21.066  0.00  0.00    +0.000 HD
ENDBRANCH  21  24
ENDBRANCH   3  18
TORSDOF 3
ENDMDL
MODEL 3
REMARK VINA RESULT:      -8.5      1.225      1.311
REMARK  Name = 
REMARK  5 active torsions:
REMARK  status: ('A' for Active; 'I' for Inactive)
REMARK    1  A    between atoms: C_1  and  C_2
REMARK    2  A    between atoms: C_2  and  C_3
REMARK    3  A    between atoms: C_10  and  C_11
REMARK    4  A    between atoms: N_13  and  C_14
REMARK    5  A    between atoms: C_17  and  C_18
REMARK                            x       y       z     vdW  Elec       q    Type
REMARK                         _______ _______ _______ _____ _____    ______ ____
ROOT
ATOM      1  C   UNL     1       2.134   7.503  19.613  0.00  0.00    +0.000 C 
ATOM      2  O   UNL     1       1.782   8.144  18.626  0.00  0.00    +0.000 OA
ATOM      3  N   UNL     1       1.699   7.694  20.912  0.00  0.00    +0.000 N 
ATOM      4  H   UNL     1       2.204   7.237  21.661  0.00  0.00    +0.000 HD
ENDROOT
BRANCH   1  14
ATOM      5  C   UNL     1       7.164   7.113  17.306  0.00  0.00    +0.000 C 
ATOM      6  C   UNL     1       6.139   6.043  16.939  0.00  0.00    +0.000 C 
ATOM      7  C   UNL     1       5.514   6.302  15.566  0.00  0.00    +0.000 C 
ATOM      8  C   UNL     1       6.765   4.629  16.991  0.00  0.00    +0.000 C 
ATOM      9  O   UNL     1       7.691   4.211  16.316  0.00  0.00    +0.000 OA
ATOM     10  N   UNL     1       6.073   3.897  17.957  0.00  0.00    +0.000 N 
ATOM     11  C   UNL     1       5.076   4.652  18.554  0.00  0.00    +0.000 A 
ATOM     12  C   UNL     1       4.169   4.271  19.526  0.00  0.00    +0.000 A 
ATOM     13  C   UNL     1       3.209   5.211  19.939  0.00  0.00    +0.000 A 
ATOM     14  C   UNL     1       3.195   6.499  19.370  0.00  0.00    +0.000 A 
ATOM     15  C   UNL     1       4.148   6.864  18.407  0.00  0.00    +0.000 A 
ATOM     16  C   UNL     1       5.073   5.927  18.002  0.00  0.00    +0.000 A 
ATOM     17  H   UNL     1       6.289   2.931  18.158  0.00  0.00    +0.000 HD
ENDBRANCH   1  14
BRANCH   3  18
ATOM     18  C   UNL     1       0.821   8.748  21.282  0.00  0.00    +0.000 A 
ATOM     19  C   UNL     1       0.719   9.929  20.539  0.00  0.00    +0.000 A 
ATOM     20  C   UNL     1       0.013  11.029  21.021  0.00  0.00    +0.000 A 
ATOM     21  C   UNL     1      -0.638  10.973  22.253  0.00  0.00    +0.000 A 
ATOM     22  C   UNL     1      -0.636   9.752  22.945  0.00  0.00    +0.000 A 
ATOM     23  C   UNL     1       0.082   8.643  22.461  0.00  0.00    +0.000 A 
BRANCH  21  24
ATOM     24  C   UNL     1      -1.255  12.156  22.830  0.00  0.00    +0.000 A 
ATOM     25  C   UNL     1      -2.609  12.395  22.954  0.00  0.00    +0.000 A 
ATOM     26  N   UNL     1      -2.710  13.660  23.467  0.00  0.00    +0.000 N 
ATOM     27  C   UNL     1      -1.442  14.136  23.633  0.00  0.00    +0.000 A 
ATOM     28  N   UNL     1      -0.542  13.253  23.266  0.00  0.00    +0.000 NA
ATOM     29  H   UNL     1      -3.566  14.160  23.663  0.00  0.00    +0.000 HD
ENDBRANCH  21  24
ENDBRANCH   3  18
TORSDOF 3
ENDMDL
MODEL 4
REMARK VINA RESULT:      -8.5      2.004      3.227
REMARK  Name = 
REMARK  5 active torsions:
REMARK  status: ('A' for Active; 'I' for Inactive)
REMARK    1  A    between atoms: C_1  and  C_2
REMARK    2  A    between atoms: C_2  and  C_3
REMARK    3  A    between atoms: C_10  and  C_11
REMARK    4  A    between atoms: N_13  and  C_14
REMARK    5  A    between atoms: C_17  and  C_18
REMARK                            x       y       z     vdW  Elec       q    Type
REMARK                         _______ _______ _______ _____ _____    ______ ____
ROOT
ATOM      1  C   UNL     1       1.921   8.000  19.162  0.00  0.00    +0.000 C 
ATOM      2  O   UNL     1       2.064   9.026  18.503  0.00  0.00    +0.000 OA
ATOM      3  N   UNL     1       1.260   7.887  20.372  0.00  0.00    +0.000 N 
ATOM      4  H   UNL     1       1.378   7.036  20.907  0.00  0.00    +0.000 HD
ENDROOT
BRANCH   1  14
ATOM      5  C   UNL     1       1.140   2.537  18.595  0.00  0.00    +0.000 C 
ATOM      6  C   UNL     1       2.479   3.000  19.161  0.00  0.00    +0.000 C 
ATOM      7  C   UNL     1       2.536   2.847  20.682  0.00  0.00    +0.000 C 
ATOM      8  C   UNL     1       3.656   2.244  18.498  0.00  0.00    +0.000 C 
ATOM      9  O   UNL     1       3.868   1.043  18.527  0.00  0.00    +0.000 OA
ATOM     10  N   UNL     1       4.453   3.190  17.850  0.00  0.00    +0.000 N 
ATOM     11  C   UNL     1       3.946   4.471  17.997  0.00  0.00    +0.000 A 
ATOM     12  C   UNL     1       4.465   5.665  17.528  0.00  0.00    +0.000 A 
ATOM     13  C   UNL     1       3.789   6.853  17.852  0.00  0.00    +0.000 A 
ATOM     14  C   UNL     1       2.615   6.805  18.629  0.00  0.00    +0.000 A 
ATOM     15  C   UNL     1       2.098   5.575  19.066  0.00  0.00    +0.000 A 
ATOM     16  C   UNL     1       2.780   4.421  18.751  0.00  0.00    +0.000 A 
ATOM     17  H   UNL     1       5.298   2.937  17.360  0.00  0.00    +0.000 HD
ENDBRANCH   1  14
BRANCH   3  18
ATOM     18  C   UNL     1       0.717   9.006  21.059  0.00  0.00    +0.000 A 
ATOM     19  C   UNL     1       0.443   8.977  22.431  0.00  0.00    +0.000 A 
ATOM     20  C   UNL     1      -0.274   9.999  23.048  0.00  0.00    +0.000 A 
ATOM     21  C   UNL     1      -0.717  11.100  22.316  0.00  0.00    +0.000 A 
ATOM     22  C   UNL     1      -0.343  11.188  20.966  0.00  0.00    +0.000 A 
ATOM     23  C   UNL     1       0.376  10.153  20.341  0.00  0.00    +0.000 A 
BRANCH  21  24
ATOM     24  C   UNL     1      -1.586  12.099  22.916  0.00  0.00    +0.000 A 
ATOM     25  C   UNL     1      -1.257  13.412  23.189  0.00  0.00    +0.000 A 
ATOM     26  N   UNL     1      -2.350  13.936  23.826  0.00  0.00    +0.000 N 
ATOM     27  C   UNL     1      -3.284  12.945  23.917  0.00  0.00    +0.000 A 
ATOM     28  N   UNL     1      -2.859  11.829  23.373  0.00  0.00    +0.000 NA
ATOM     29  H   UNL     1      -2.439  14.876  24.185  0.00  0.00    +0.000 HD
ENDBRANCH  21  24
ENDBRANCH   3  18
TORSDOF 3
ENDMDL
MODEL 5
REMARK VINA RESULT:      -8.5      2.057      2.353
REMARK  Name = 
REMARK  5 active torsions:
REMARK  status: ('A' for Active; 'I' for Inactive)
REMARK    1  A    between atoms: C_1  and  C_2
REMARK    2  A    between atoms: C_2  and  C_3
REMARK    3  A    between atoms: C_10  and  C_11
REMARK    4  A    between atoms: N_13  and  C_14
REMARK    5  A    between atoms: C_17  and  C_18
REMARK                            x       y       z     vdW  Elec       q    Type
REMARK                         _______ _______ _______ _____ _____    ______ ____
ROOT
ATOM      1  C   UNL     1       2.240   7.600  18.940  0.00  0.00    +0.000 C 
ATOM      2  O   UNL     1       1.789   7.492  20.077  0.00  0.00    +0.000 OA
ATOM      3  N   UNL     1       1.948   8.604  18.035  0.00  0.00    +0.000 N 
ATOM      4  H   UNL     1       2.228   8.479  17.070  0.00  0.00    +0.000 HD
ENDROOT
BRANCH   1  14
ATOM      5  C   UNL     1       7.460   5.797  19.464  0.00  0.00    +0.000 C 
ATOM      6  C   UNL     1       6.869   5.836  18.058  0.00  0.00    +0.000 C 
ATOM      7  C   UNL     1       7.355   7.055  17.271  0.00  0.00    +0.000 C 
ATOM      8  C   UNL     1       7.183   4.533  17.284  0.00  0.00    +0.000 C 
ATOM      9  O   UNL     1       8.285   4.101  16.990  0.00  0.00    +0.000 OA
ATOM     10  N   UNL     1       5.966   3.926  16.969  0.00  0.00    +0.000 N 
ATOM     11  C   UNL     1       4.891   4.660  17.444  0.00  0.00    +0.000 A 
ATOM     12  C   UNL     1       3.539   4.400  17.307  0.00  0.00    +0.000 A 
ATOM     13  C   UNL     1       2.630   5.330  17.838  0.00  0.00    +0.000 A 
ATOM     14  C   UNL     1       3.104   6.484  18.493  0.00  0.00    +0.000 A 
ATOM     15  C   UNL     1       4.482   6.704  18.640  0.00  0.00    +0.000 A 
ATOM     16  C   UNL     1       5.361   5.790  18.102  0.00  0.00    +0.000 A 
ATOM     17  H   UNL     1       5.913   3.067  16.443  0.00  0.00    +0.000 HD
ENDBRANCH   1  14
BRANCH   3  18
ATOM     18  C   UNL     1       0.992   9.622  18.297  0.00  0.00    +0.000 A 
ATOM     19  C   UNL     1       1.283  10.727  19.106  0.00  0.00    +0.000 A 
ATOM     20  C   UNL     1       0.284  11.605  19.519  0.00  0.00    +0.000 A 
ATOM     21  C   UNL     1      -1.037  11.422  19.113  0.00  0.00    +0.000 A 
ATOM     22  C   UNL     1      -1.311  10.384  18.207  0.00  0.00    +0.000 A 
ATOM     23  C   UNL     1      -0.303   9.494  17.795  0.00  0.00    +0.000 A 
BRANCH  21  24
ATOM     24  C   UNL     1      -2.108  12.244  19.651  0.00  0.00    +0.000 A 
ATOM     25  C   UNL     1      -3.435  12.213  19.268  0.00  0.00    +0.000 A 
ATOM     26  N   UNL     1      -4.042  13.214  19.978  0.00  0.00    +0.000 N 
ATOM     27  C   UNL     1      -3.084  13.806  20.750  0.00  0.00    +0.000 A 
ATOM     28  N   UNL     1      -1.911  13.241  20.583  0.00  0.00    +0.000 NA
ATOM     29  H   UNL     1      -5.014  13.483  19.922  0.00  0.00    +0.000 HD
ENDBRANCH  21  24
ENDBRANCH   3  18
TORSDOF 3
ENDMDL
MODEL 6
REMARK VINA RESULT:      -8.5      6.216      8.829
REMARK  Name = 
REMARK  5 active torsions:
REMARK  status: ('A' for Active; 'I' for Inactive)
REMARK    1  A    between atoms: C_1  and  C_2
REMARK    2  A    between atoms: C_2  and  C_3
REMARK    3  A    between atoms: C_10  and  C_11
REMARK    4  A    between atoms: N_13  and  C_14
REMARK    5  A    between atoms: C_17  and  C_18
REMARK                            x       y       z     vdW  Elec       q    Type
REMARK                         _______ _______ _______ _____ _____    ______ ____
ROOT
ATOM      1  C   UNL     1       8.182   9.211  18.033  0.00  0.00    +0.000 C 
ATOM      2  O   UNL     1       7.611   9.811  17.126  0.00  0.00    +0.000 OA
ATOM      3  N   UNL     1       9.157   9.725  18.870  0.00  0.00    +0.000 N 
ATOM      4  H   UNL     1       9.685   9.081  19.445  0.00  0.00    +0.000 HD
ENDROOT
BRANCH   1  14
ATOM      5  C   UNL     1       5.252   5.304  15.403  0.00  0.00    +0.000 C 
ATOM      6  C   UNL     1       5.061   5.428  16.911  0.00  0.00    +0.000 C 
ATOM      7  C   UNL     1       3.773   6.177  17.261  0.00  0.00    +0.000 C 
ATOM      8  C   UNL     1       5.079   4.039  17.593  0.00  0.00    +0.000 C 
ATOM      9  O   UNL     1       4.304   3.117  17.401  0.00  0.00    +0.000 OA
ATOM     10  N   UNL     1       6.153   4.021  18.484  0.00  0.00    +0.000 N 
ATOM     11  C   UNL     1       6.848   5.220  18.472  0.00  0.00    +0.000 A 
ATOM     12  C   UNL     1       7.943   5.591  19.231  0.00  0.00    +0.000 A 
ATOM     13  C   UNL     1       8.445   6.894  19.072  0.00  0.00    +0.000 A 
ATOM     14  C   UNL     1       7.838   7.776  18.157  0.00  0.00    +0.000 A 
ATOM     15  C   UNL     1       6.746   7.358  17.381  0.00  0.00    +0.000 A 
ATOM     16  C   UNL     1       6.257   6.084  17.558  0.00  0.00    +0.000 A 
ATOM     17  H   UNL     1       6.357   3.221  19.065  0.00  0.00    +0.000 HD
ENDBRANCH   1  14
BRANCH   3  18
ATOM     18  C   UNL     1       9.689  11.033  18.719  0.00  0.00    +0.000 A 
ATOM     19  C   UNL     1       9.233  12.116  19.479  0.00  0.00    +0.000 A 
ATOM     20  C   UNL     1       9.614  13.422  19.181  0.00  0.00    +0.000 A 
ATOM     21  C   UNL     1      10.488  13.686  18.127  0.00  0.00    +0.000 A 
ATOM     22  C   UNL     1      11.039  12.593  17.438  0.00  0.00    +0.000 A 
ATOM     23  C   UNL     1      10.649  11.275  17.735  0.00  0.00    +0.000 A 
BRANCH  21  24
ATOM     24  C   UNL     1      10.780  15.049  17.718  0.00  0.00    +0.000 A 
ATOM     25  C   UNL     1      12.033  15.605  17.556  0.00  0.00    +0.000 A 
ATOM     26  N   UNL     1      11.812  16.922  17.253  0.00  0.00    +0.000 N 
ATOM     27  C   UNL     1      10.461  17.116  17.241  0.00  0.00    +0.000 A 
ATOM     28  N   UNL     1       9.810  16.008  17.510  0.00  0.00    +0.000 NA
ATOM     29  H   UNL     1      12.518  17.626  17.092  0.00  0.00    +0.000 HD
ENDBRANCH  21  24
ENDBRANCH   3  18
TORSDOF 3
ENDMDL
MODEL 7
REMARK VINA RESULT:      -8.3      1.144      1.564
REMARK  Name = 
REMARK  5 active torsions:
REMARK  status: ('A' for Active; 'I' for Inactive)
REMARK    1  A    between atoms: C_1  and  C_2
REMARK    2  A    between atoms: C_2  and  C_3
REMARK    3  A    between atoms: C_10  and  C_11
REMARK    4  A    between atoms: N_13  and  C_14
REMARK    5  A    between atoms: C_17  and  C_18
REMARK                            x       y       z     vdW  Elec       q    Type
REMARK                         _______ _______ _______ _____ _____    ______ ____
ROOT
ATOM      1  C   UNL     1       2.199   7.523  18.983  0.00  0.00    +0.000 C 
ATOM      2  O   UNL     1       1.880   8.322  18.106  0.00  0.00    +0.000 OA
ATOM      3  N   UNL     1       1.887   7.615  20.328  0.00  0.00    +0.000 N 
ATOM      4  H   UNL     1       2.367   7.004  20.976  0.00  0.00    +0.000 HD
ENDROOT
BRANCH   1  14
ATOM      5  C   UNL     1       7.447   5.804  19.503  0.00  0.00    +0.000 C 
ATOM      6  C   UNL     1       6.850   5.822  18.099  0.00  0.00    +0.000 C 
ATOM      7  C   UNL     1       7.315   7.041  17.300  0.00  0.00    +0.000 C 
ATOM      8  C   UNL     1       7.181   4.517  17.335  0.00  0.00    +0.000 C 
ATOM      9  O   UNL     1       8.288   4.099  17.041  0.00  0.00    +0.000 OA
ATOM     10  N   UNL     1       5.972   3.889  17.031  0.00  0.00    +0.000 N 
ATOM     11  C   UNL     1       4.888   4.611  17.503  0.00  0.00    +0.000 A 
ATOM     12  C   UNL     1       3.540   4.329  17.373  0.00  0.00    +0.000 A 
ATOM     13  C   UNL     1       2.618   5.250  17.900  0.00  0.00    +0.000 A 
ATOM     14  C   UNL     1       3.078   6.417  18.542  0.00  0.00    +0.000 A 
ATOM     15  C   UNL     1       4.453   6.659  18.683  0.00  0.00    +0.000 A 
ATOM     16  C   UNL     1       5.343   5.754  18.149  0.00  0.00    +0.000 A 
ATOM     17  H   UNL     1       5.930   3.024  16.512  0.00  0.00    +0.000 HD
ENDBRANCH   1  14
BRANCH   3  18
ATOM     18  C   UNL     1       1.204   8.729  20.885  0.00  0.00    +0.000 A 
ATOM     19  C   UNL     1       0.982   8.856  22.261  0.00  0.00    +0.000 A 
ATOM     20  C   UNL     1       0.139   9.840  22.772  0.00  0.00    +0.000 A 
ATOM     21  C   UNL     1      -0.488  10.751  21.922  0.00  0.00    +0.000 A 
ATOM     22  C   UNL     1      -0.174  10.701  20.554  0.00  0.00    +0.000 A 
ATOM     23  C   UNL     1       0.672   9.702  20.038  0.00  0.00    +0.000 A 
BRANCH  21  24
ATOM     24  C   UNL     1      -1.477  11.689  22.426  0.00  0.00    +0.000 A 
ATOM     25  C   UNL     1      -1.552  13.036  22.133  0.00  0.00    +0.000 A 
ATOM     26  N   UNL     1      -2.579  13.519  22.899  0.00  0.00    +0.000 N 
ATOM     27  C   UNL     1      -3.081  12.472  23.616  0.00  0.00    +0.000 A 
ATOM     28  N   UNL     1      -2.446  11.354  23.349  0.00  0.00    +0.000 NA
ATOM     29  H   UNL     1      -2.891  14.479  22.944  0.00  0.00    +0.000 HD
ENDBRANCH  21  24
ENDBRANCH   3  18
TORSDOF 3
ENDMDL
MODEL 8
REMARK VINA RESULT:      -8.2      2.436      3.473
REMARK  Name = 
REMARK  5 active torsions:
REMARK  status: ('A' for Active; 'I' for Inactive)
REMARK    1  A    between atoms: C_1  and  C_2
REMARK    2  A    between atoms: C_2  and  C_3
REMARK    3  A    between atoms: C_10  and  C_11
REMARK    4  A    between atoms: N_13  and  C_14
REMARK    5  A    between atoms: C_17  and  C_18
REMARK                            x       y       z     vdW  Elec       q    Type
REMARK                         _______ _______ _______ _____ _____    ______ ____
ROOT
ATOM      1  C   UNL     1       2.206   8.218  18.203  0.00  0.00    +0.000 C 
ATOM      2  O   UNL     1       2.269   8.917  17.195  0.00  0.00    +0.000 OA
ATOM      3  N   UNL     1       1.469   8.488  19.343  0.00  0.00    +0.000 N 
ATOM      4  H   UNL     1       1.651   7.940  20.174  0.00  0.00    +0.000 HD
ENDROOT
BRANCH   1  14
ATOM      5  C   UNL     1       1.952   2.752  19.111  0.00  0.00    +0.000 C 
ATOM      6  C   UNL     1       3.081   3.524  19.787  0.00  0.00    +0.000 C 
ATOM      7  C   UNL     1       2.779   3.796  21.263  0.00  0.00    +0.000 C 
ATOM      8  C   UNL     1       4.431   2.781  19.641  0.00  0.00    +0.000 C 
ATOM      9  O   UNL     1       4.709   1.672  20.065  0.00  0.00    +0.000 OA
ATOM     10  N   UNL     1       5.295   3.615  18.929  0.00  0.00    +0.000 N 
ATOM     11  C   UNL     1       4.683   4.809  18.582  0.00  0.00    +0.000 A 
ATOM     12  C   UNL     1       5.219   5.889  17.905  0.00  0.00    +0.000 A 
ATOM     13  C   UNL     1       4.407   7.020  17.715  0.00  0.00    +0.000 A 
ATOM     14  C   UNL     1       3.086   7.027  18.204  0.00  0.00    +0.000 A 
ATOM     15  C   UNL     1       2.563   5.903  18.862  0.00  0.00    +0.000 A 
ATOM     16  C   UNL     1       3.376   4.809  19.052  0.00  0.00    +0.000 A 
ATOM     17  H   UNL     1       6.249   3.354  18.725  0.00  0.00    +0.000 HD
ENDBRANCH   1  14
BRANCH   3  18
ATOM     18  C   UNL     1       0.735   9.692  19.517  0.00  0.00    +0.000 A 
ATOM     19  C   UNL     1       0.869  10.488  20.661  0.00  0.00    +0.000 A 
ATOM     20  C   UNL     1       0.001  11.548  20.911  0.00  0.00    +0.000 A 
ATOM     21  C   UNL     1      -1.015  11.864  20.009  0.00  0.00    +0.000 A 
ATOM     22  C   UNL     1      -1.077  11.143  18.806  0.00  0.00    +0.000 A 
ATOM     23  C   UNL     1      -0.204  10.069  18.557  0.00  0.00    +0.000 A 
BRANCH  21  24
ATOM     24  C   UNL     1      -2.012  12.873  20.327  0.00  0.00    +0.000 A 
ATOM     25  C   UNL     1      -3.377  12.759  20.149  0.00  0.00    +0.000 A 
ATOM     26  N   UNL     1      -3.893  13.977  20.500  0.00  0.00    +0.000 N 
ATOM     27  C   UNL     1      -2.847  14.772  20.870  0.00  0.00    +0.000 A 
ATOM     28  N   UNL     1      -1.702  14.137  20.784  0.00  0.00    +0.000 NA
ATOM     29  H   UNL     1      -4.866  14.246  20.468  0.00  0.00    +0.000 HD
ENDBRANCH  21  24
ENDBRANCH   3  18
TORSDOF 3
ENDMDL
MODEL 9
REMARK VINA RESULT:      -8.2      2.155      2.676
REMARK  Name = 
REMARK  5 active torsions:
REMARK  status: ('A' for Active; 'I' for Inactive)
REMARK    1  A    between atoms: C_1  and  C_2
REMARK    2  A    between atoms: C_2  and  C_3
REMARK    3  A    between atoms: C_10  and  C_11
REMARK    4  A    between atoms: N_13  and  C_14
REMARK    5  A    between atoms: C_17  and  C_18
REMARK                            x       y       z     vdW  Elec       q    Type
REMARK                         _______ _______ _______ _____ _____    ______ ____
ROOT
ATOM      1  C   UNL     1       2.034   7.675  19.580  0.00  0.00    +0.000 C 
ATOM      2  O   UNL     1       1.393   7.486  20.611  0.00  0.00    +0.000 OA
ATOM      3  N   UNL     1       1.834   8.693  18.666  0.00  0.00    +0.000 N 
ATOM      4  H   UNL     1       2.294   8.630  17.766  0.00  0.00    +0.000 HD
ENDROOT
BRANCH   1  14
ATOM      5  C   UNL     1       7.054   7.224  17.264  0.00  0.00    +0.000 C 
ATOM      6  C   UNL     1       5.984   6.231  16.820  0.00  0.00    +0.000 C 
ATOM      7  C   UNL     1       5.380   6.614  15.467  0.00  0.00    +0.000 C 
ATOM      8  C   UNL     1       6.546   4.789  16.772  0.00  0.00    +0.000 C 
ATOM      9  O   UNL     1       7.457   4.379  16.071  0.00  0.00    +0.000 OA
ATOM     10  N   UNL     1       5.817   4.022  17.682  0.00  0.00    +0.000 N 
ATOM     11  C   UNL     1       4.851   4.777  18.328  0.00  0.00    +0.000 A 
ATOM     12  C   UNL     1       3.922   4.369  19.268  0.00  0.00    +0.000 A 
ATOM     13  C   UNL     1       3.004   5.319  19.745  0.00  0.00    +0.000 A 
ATOM     14  C   UNL     1       3.051   6.644  19.270  0.00  0.00    +0.000 A 
ATOM     15  C   UNL     1       4.024   7.033  18.337  0.00  0.00    +0.000 A 
ATOM     16  C   UNL     1       4.908   6.087  17.869  0.00  0.00    +0.000 A 
ATOM     17  H   UNL     1       5.988   3.036  17.814  0.00  0.00    +0.000 HD
ENDBRANCH   1  14
BRANCH   3  18
ATOM     18  C   UNL     1       0.770   9.628  18.775  0.00  0.00    +0.000 A 
ATOM     19  C   UNL     1       0.677  10.531  19.840  0.00  0.00    +0.000 A 
ATOM     20  C   UNL     1      -0.470  11.295  20.044  0.00  0.00    +0.000 A 
ATOM     21  C   UNL     1      -1.552  11.202  19.170  0.00  0.00    +0.000 A 
ATOM     22  C   UNL     1      -1.415  10.386  18.035  0.00  0.00    +0.000 A 
ATOM     23  C   UNL     1      -0.260   9.609  17.834  0.00  0.00    +0.000 A 
BRANCH  21  24
ATOM     24  C   UNL     1      -2.804  11.885  19.450  0.00  0.00    +0.000 A 
ATOM     25  C   UNL     1      -3.939  11.868  18.665  0.00  0.00    +0.000 A 
ATOM     26  N   UNL     1      -4.820  12.717  19.280  0.00  0.00    +0.000 N 
ATOM     27  C   UNL     1      -4.203  13.209  20.393  0.00  0.00    +0.000 A 
ATOM     28  N   UNL     1      -2.991  12.723  20.529  0.00  0.00    +0.000 NA
ATOM     29  H   UNL     1      -5.747  12.954  18.956  0.00  0.00    +0.000 HD
ENDBRANCH  21  24
ENDBRANCH   3  18
TORSDOF 3
ENDMDL
