MODEL 1
REMARK VINA RESULT:      -9.1      0.000      0.000
REMARK  Name = 
REMARK  6 active torsions:
REMARK  status: ('A' for Active; 'I' for Inactive)
REMARK    1  A    between atoms: C_2  and  C_14
REMARK    2  A    between atoms: N_3  and  C_4
REMARK    3  A    between atoms: C_4  and  C_5
REMARK    4  A    between atoms: C_17  and  S_18
REMARK    5  A    between atoms: S_18  and  N_21
REMARK    6  A    between atoms: N_21  and  C_22
REMARK                            x       y       z     vdW  Elec       q    Type
REMARK                         _______ _______ _______ _____ _____    ______ ____
ROOT
ATOM      1  C   UNL     1       2.706   8.007  18.278  0.00  0.00    +0.000 A 
ATOM      2  C   UNL     1       2.681   7.126  19.371  0.00  0.00    +0.000 A 
ATOM      3  C   UNL     1       3.436   5.943  19.348  0.00  0.00    +0.000 A 
ATOM      4  C   UNL     1       4.216   5.642  18.227  0.00  0.00    +0.000 A 
ATOM      5  C   UNL     1       4.286   6.543  17.157  0.00  0.00    +0.000 A 
ATOM      6  C   UNL     1       3.539   7.726  17.188  0.00  0.00    +0.000 A 
ENDROOT
BRANCH   1   8
ATOM      7  O   UNL     1       1.873  10.028  17.369  0.00  0.00    +0.000 OA
ATOM      8  C   UNL     1       1.846   9.231  18.298  0.00  0.00    +0.000 C 
ATOM      9  N   UNL     1       1.083   9.421  19.431  0.00  0.00    +0.000 N 
ATOM     10  H   UNL     1       1.219   8.837  20.250  0.00  0.00    +0.000 HD
BRANCH   9  11
ATOM     11  C   UNL     1       0.280  10.615  19.608  0.00  0.00    +0.000 C 
BRANCH  11  12
ATOM     12  C   UNL     1      -0.171  10.726  21.025  0.00  0.00    +0.000 A 
ATOM     13  N   UNL     1       0.404  10.190  22.087  0.00  0.00    +0.000 NA
ATOM     14  N   UNL     1      -0.300  10.576  23.203  0.00  0.00    +0.000 NA
ATOM     15  C   UNL     1      -1.296  11.341  22.813  0.00  0.00    +0.000 A 
ATOM     16  C   UNL     1      -2.323  12.027  23.521  0.00  0.00    +0.000 A 
ATOM     17  C   UNL     1      -3.231  12.750  22.839  0.00  0.00    +0.000 A 
ATOM     18  C   UNL     1      -3.188  12.845  21.388  0.00  0.00    +0.000 A 
ATOM     19  C   UNL     1      -2.214  12.206  20.717  0.00  0.00    +0.000 A 
ATOM     20  N   UNL     1      -1.269  11.459  21.430  0.00  0.00    +0.000 N 
ENDBRANCH  11  12
ENDBRANCH   9  11
ENDBRANCH   1   8
BRANCH   4  21
ATOM     21  S   UNL     1       5.242   4.182  18.205  0.00  0.00    +0.000 S 
ATOM     22  O   UNL     1       5.893   4.140  16.914  0.00  0.00    +0.000 OA
ATOM     23  O   UNL     1       6.015   4.154  19.430  0.00  0.00    +0.000 OA
BRANCH  21  24
ATOM     24  N   UNL     1       4.150   2.920  18.203  0.00  0.00    +0.000 N 
ATOM     25  H   UNL     1       4.311   2.173  17.531  0.00  0.00    +0.000 HD
BRANCH  24  26
ATOM     26  C   UNL     1       3.119   2.797  19.160  0.00  0.00    +0.000 A 
ATOM     27  C   UNL     1       3.462   2.641  20.502  0.00  0.00    +0.000 A 
ATOM     28  C   UNL     1       2.469   2.648  21.481  0.00  0.00    +0.000 A 
ATOM     29  C   UNL     1       1.136   2.835  21.120  0.00  0.00    +0.000 A 
ATOM     30  C   UNL     1       0.793   3.001  19.777  0.00  0.00    +0.000 A 
ATOM     31  C   UNL     1       1.786   2.977  18.793  0.00  0.00    +0.000 A 
ENDBRANCH  24  26
ENDBRANCH  21  24
ENDBRANCH   4  21
TORSDOF 6
ENDMDL
MODEL 2
REMARK VINA RESULT:      -9.0      3.382      9.302
REMARK  Name = 
REMARK  6 active torsions:
REMARK  status: ('A' for Active; 'I' for Inactive)
REMARK    1  A    between atoms: C_2  and  C_14
REMARK    2  A    between atoms: N_3  and  C_4
REMARK    3  A    between atoms: C_4  and  C_5
REMARK    4  A    between atoms: C_17  and  S_18
REMARK    5  A    between atoms: S_18  and  N_21
REMARK    6  A    between atoms: N_21  and  C_22
REMARK                            x       y       z     vdW  Elec       q    Type
REMARK                         _______ _______ _______ _____ _____    ______ ____
ROOT
ATOM      1  C   UNL     1       1.967   7.590  19.513  0.00  0.00    +0.000 A 
ATOM      2  C   UNL     1       1.895   8.662  18.610  0.00  0.00    +0.000 A 
ATOM      3  C   UNL     1       1.263   9.860  18.978  0.00  0.00    +0.000 A 
ATOM      4  C   UNL     1       0.700   9.982  20.253  0.00  0.00    +0.000 A 
ATOM      5  C   UNL     1       0.815   8.934  21.175  0.00  0.00    +0.000 A 
ATOM      6  C   UNL     1       1.455   7.745  20.808  0.00  0.00    +0.000 A 
ENDROOT
BRANCH   1   8
ATOM      7  O   UNL     1       2.220   5.742  18.054  0.00  0.00    +0.000 OA
ATOM      8  C   UNL     1       2.591   6.301  19.079  0.00  0.00    +0.000 C 
ATOM      9  N   UNL     1       3.549   5.774  19.919  0.00  0.00    +0.000 N 
ATOM     10  H   UNL     1       3.703   6.171  20.839  0.00  0.00    +0.000 HD
BRANCH   9  11
ATOM     11  C   UNL     1       4.160   4.487  19.653  0.00  0.00    +0.000 C 
BRANCH  11  12
ATOM     12  C   UNL     1       5.481   4.671  18.989  0.00  0.00    +0.000 A 
ATOM     13  N   UNL     1       6.637   4.927  19.577  0.00  0.00    +0.000 NA
ATOM     14  N   UNL     1       7.614   4.974  18.610  0.00  0.00    +0.000 NA
ATOM     15  C   UNL     1       7.048   4.748  17.445  0.00  0.00    +0.000 A 
ATOM     16  C   UNL     1       7.561   4.663  16.121  0.00  0.00    +0.000 A 
ATOM     17  C   UNL     1       6.721   4.418  15.097  0.00  0.00    +0.000 A 
ATOM     18  C   UNL     1       5.294   4.241  15.315  0.00  0.00    +0.000 A 
ATOM     19  C   UNL     1       4.806   4.312  16.566  0.00  0.00    +0.000 A 
ATOM     20  N   UNL     1       5.684   4.562  17.628  0.00  0.00    +0.000 N 
ENDBRANCH  11  12
ENDBRANCH   9  11
ENDBRANCH   1   8
BRANCH   4  21
ATOM     21  S   UNL     1      -0.043  11.520  20.769  0.00  0.00    +0.000 S 
ATOM     22  O   UNL     1      -1.181  11.184  21.597  0.00  0.00    +0.000 OA
ATOM     23  O   UNL     1       1.008  12.386  21.264  0.00  0.00    +0.000 OA
BRANCH  21  24
ATOM     24  N   UNL     1      -0.677  12.155  19.363  0.00  0.00    +0.000 N 
ATOM     25  H   UNL     1      -0.098  12.821  18.856  0.00  0.00    +0.000 HD
BRANCH  24  26
ATOM     26  C   UNL     1      -1.898  11.715  18.806  0.00  0.00    +0.000 A 
ATOM     27  C   UNL     1      -1.891  10.603  17.966  0.00  0.00    +0.000 A 
ATOM     28  C   UNL     1      -3.094  10.069  17.507  0.00  0.00    +0.000 A 
ATOM     29  C   UNL     1      -4.305  10.632  17.906  0.00  0.00    +0.000 A 
ATOM     30  C   UNL     1      -4.312  11.740  18.755  0.00  0.00    +0.000 A 
ATOM     31  C   UNL     1      -3.106  12.287  19.203  0.00  0.00    +0.000 A 
ENDBRANCH  24  26
ENDBRANCH  21  24
ENDBRANCH   4  21
TORSDOF 6
ENDMDL
MODEL 3
REMARK VINA RESULT:      -8.9      3.765      9.746
REMARK  Name = 
REMARK  6 active torsions:
REMARK  status: ('A' for Active; 'I' for Inactive)
REMARK    1  A    between atoms: C_2  and  C_14
REMARK    2  A    between atoms: N_3  and  C_4
REMARK    3  A    between atoms: C_4  and  C_5
REMARK    4  A    between atoms: C_17  and  S_18
REMARK    5  A    between atoms: S_18  and  N_21
REMARK    6  A    between atoms: N_21  and  C_22
REMARK                            x       y       z     vdW  Elec       q    Type
REMARK                         _______ _______ _______ _____ _____    ______ ____
ROOT
ATOM      1  C   UNL     1       2.635   5.639  18.860  0.00  0.00    +0.000 A 
ATOM      2  C   UNL     1       2.024   5.367  20.095  0.00  0.00    +0.000 A 
ATOM      3  C   UNL     1       1.502   6.410  20.875  0.00  0.00    +0.000 A 
ATOM      4  C   UNL     1       1.594   7.729  20.418  0.00  0.00    +0.000 A 
ATOM      5  C   UNL     1       2.156   8.000  19.164  0.00  0.00    +0.000 A 
ATOM      6  C   UNL     1       2.666   6.956  18.384  0.00  0.00    +0.000 A 
ENDROOT
BRANCH   1   8
ATOM      7  O   UNL     1       2.850   3.368  18.226  0.00  0.00    +0.000 OA
ATOM      8  C   UNL     1       3.240   4.519  18.074  0.00  0.00    +0.000 C 
ATOM      9  N   UNL     1       4.276   4.857  17.230  0.00  0.00    +0.000 N 
ATOM     10  H   UNL     1       4.687   5.784  17.261  0.00  0.00    +0.000 HD
BRANCH   9  11
ATOM     11  C   UNL     1       5.002   3.848  16.484  0.00  0.00    +0.000 C 
BRANCH  11  12
ATOM     12  C   UNL     1       6.055   4.486  15.645  0.00  0.00    +0.000 A 
ATOM     13  N   UNL     1       6.997   5.320  16.049  0.00  0.00    +0.000 NA
ATOM     14  N   UNL     1       7.791   5.634  14.970  0.00  0.00    +0.000 NA
ATOM     15  C   UNL     1       7.326   4.992  13.921  0.00  0.00    +0.000 A 
ATOM     16  C   UNL     1       7.748   4.926  12.563  0.00  0.00    +0.000 A 
ATOM     17  C   UNL     1       7.058   4.169  11.689  0.00  0.00    +0.000 A 
ATOM     18  C   UNL     1       5.883   3.417  12.102  0.00  0.00    +0.000 A 
ATOM     19  C   UNL     1       5.486   3.471  13.385  0.00  0.00    +0.000 A 
ATOM     20  N   UNL     1       6.210   4.255  14.292  0.00  0.00    +0.000 N 
ENDBRANCH  11  12
ENDBRANCH   9  11
ENDBRANCH   1   8
BRANCH   4  21
ATOM     21  S   UNL     1       0.872   9.063  21.357  0.00  0.00    +0.000 S 
ATOM     22  O   UNL     1      -0.496   8.688  21.644  0.00  0.00    +0.000 OA
ATOM     23  O   UNL     1       1.787   9.412  22.424  0.00  0.00    +0.000 OA
BRANCH  21  24
ATOM     24  N   UNL     1       0.777  10.321  20.266  0.00  0.00    +0.000 N 
ATOM     25  H   UNL     1       1.648  10.787  20.023  0.00  0.00    +0.000 HD
BRANCH  24  26
ATOM     26  C   UNL     1      -0.417  10.664  19.594  0.00  0.00    +0.000 A 
ATOM     27  C   UNL     1      -1.198  11.703  20.097  0.00  0.00    +0.000 A 
ATOM     28  C   UNL     1      -2.311  12.147  19.383  0.00  0.00    +0.000 A 
ATOM     29  C   UNL     1      -2.628  11.570  18.155  0.00  0.00    +0.000 A 
ATOM     30  C   UNL     1      -1.840  10.535  17.646  0.00  0.00    +0.000 A 
ATOM     31  C   UNL     1      -0.734  10.077  18.369  0.00  0.00    +0.000 A 
ENDBRANCH  24  26
ENDBRANCH  21  24
ENDBRANCH   4  21
TORSDOF 6
ENDMDL
MODEL 4
REMARK VINA RESULT:      -8.9      3.851      9.881
REMARK  Name = 
REMARK  6 active torsions:
REMARK  status: ('A' for Active; 'I' for Inactive)
REMARK    1  A    between atoms: C_2  and  C_14
REMARK    2  A    between atoms: N_3  and  C_4
REMARK    3  A    between atoms: C_4  and  C_5
REMARK    4  A    between atoms: C_17  and  S_18
REMARK    5  A    between atoms: S_18  and  N_21
REMARK    6  A    between atoms: N_21  and  C_22
REMARK                            x       y       z     vdW  Elec       q    Type
REMARK                         _______ _______ _______ _____ _____    ______ ____
ROOT
ATOM      1  C   UNL     1       2.992   6.754  18.727  0.00  0.00    +0.000 A 
ATOM      2  C   UNL     1       2.888   7.800  17.797  0.00  0.00    +0.000 A 
ATOM      3  C   UNL     1       2.116   8.936  18.086  0.00  0.00    +0.000 A 
ATOM      4  C   UNL     1       1.445   9.021  19.310  0.00  0.00    +0.000 A 
ATOM      5  C   UNL     1       1.587   8.005  20.263  0.00  0.00    +0.000 A 
ATOM      6  C   UNL     1       2.366   6.879  19.974  0.00  0.00    +0.000 A 
ENDROOT
BRANCH   1   8
ATOM      7  O   UNL     1       4.204   4.788  19.248  0.00  0.00    +0.000 OA
ATOM      8  C   UNL     1       3.770   5.527  18.373  0.00  0.00    +0.000 C 
ATOM      9  N   UNL     1       4.006   5.321  17.030  0.00  0.00    +0.000 N 
ATOM     10  H   UNL     1       3.785   6.041  16.350  0.00  0.00    +0.000 HD
BRANCH   9  11
ATOM     11  C   UNL     1       4.825   4.218  16.568  0.00  0.00    +0.000 C 
BRANCH  11  12
ATOM     12  C   UNL     1       5.929   4.723  15.703  0.00  0.00    +0.000 A 
ATOM     13  N   UNL     1       6.910   5.533  16.059  0.00  0.00    +0.000 NA
ATOM     14  N   UNL     1       7.740   5.710  14.977  0.00  0.00    +0.000 NA
ATOM     15  C   UNL     1       7.258   5.011  13.973  0.00  0.00    +0.000 A 
ATOM     16  C   UNL     1       7.701   4.808  12.636  0.00  0.00    +0.000 A 
ATOM     17  C   UNL     1       6.983   4.022  11.811  0.00  0.00    +0.000 A 
ATOM     18  C   UNL     1       5.758   3.376  12.257  0.00  0.00    +0.000 A 
ATOM     19  C   UNL     1       5.342   3.558  13.522  0.00  0.00    +0.000 A 
ATOM     20  N   UNL     1       6.095   4.372  14.378  0.00  0.00    +0.000 N 
ENDBRANCH  11  12
ENDBRANCH   9  11
ENDBRANCH   1   8
BRANCH   4  21
ATOM     21  S   UNL     1       0.517  10.487  19.731  0.00  0.00    +0.000 S 
ATOM     22  O   UNL     1      -0.617  10.059  20.521  0.00  0.00    +0.000 OA
ATOM     23  O   UNL     1       1.444  11.479  20.236  0.00  0.00    +0.000 OA
BRANCH  21  24
ATOM     24  N   UNL     1      -0.114  10.999  18.275  0.00  0.00    +0.000 N 
ATOM     25  H   UNL     1       0.545  11.366  17.590  0.00  0.00    +0.000 HD
BRANCH  24  26
ATOM     26  C   UNL     1      -1.471  10.825  17.924  0.00  0.00    +0.000 A 
ATOM     27  C   UNL     1      -2.410  11.742  18.393  0.00  0.00    +0.000 A 
ATOM     28  C   UNL     1      -3.732  11.669  17.957  0.00  0.00    +0.000 A 
ATOM     29  C   UNL     1      -4.111  10.696  17.034  0.00  0.00    +0.000 A 
ATOM     30  C   UNL     1      -3.168   9.783  16.557  0.00  0.00    +0.000 A 
ATOM     31  C   UNL     1      -1.845   9.844  17.006  0.00  0.00    +0.000 A 
ENDBRANCH  24  26
ENDBRANCH  21  24
ENDBRANCH   4  21
TORSDOF 6
ENDMDL
MODEL 5
REMARK VINA RESULT:      -8.9      3.445      9.371
REMARK  Name = 
REMARK  6 active torsions:
REMARK  status: ('A' for Active; 'I' for Inactive)
REMARK    1  A    between atoms: C_2  and  C_14
REMARK    2  A    between atoms: N_3  and  C_4
REMARK    3  A    between atoms: C_4  and  C_5
REMARK    4  A    between atoms: C_17  and  S_18
REMARK    5  A    between atoms: S_18  and  N_21
REMARK    6  A    between atoms: N_21  and  C_22
REMARK                            x       y       z     vdW  Elec       q    Type
REMARK                         _______ _______ _______ _____ _____    ______ ____
ROOT
ATOM      1  C   UNL     1       1.808   7.492  20.061  0.00  0.00    +0.000 A 
ATOM      2  C   UNL     1       1.970   8.230  18.878  0.00  0.00    +0.000 A 
ATOM      3  C   UNL     1       1.393   9.503  18.749  0.00  0.00    +0.000 A 
ATOM      4  C   UNL     1       0.651  10.036  19.808  0.00  0.00    +0.000 A 
ATOM      5  C   UNL     1       0.530   9.327  21.009  0.00  0.00    +0.000 A 
ATOM      6  C   UNL     1       1.116   8.063  21.137  0.00  0.00    +0.000 A 
ENDROOT
BRANCH   1   8
ATOM      7  O   UNL     1       1.910   5.294  20.934  0.00  0.00    +0.000 OA
ATOM      8  C   UNL     1       2.379   6.113  20.154  0.00  0.00    +0.000 C 
ATOM      9  N   UNL     1       3.477   5.853  19.361  0.00  0.00    +0.000 N 
ATOM     10  H   UNL     1       3.943   6.604  18.862  0.00  0.00    +0.000 HD
BRANCH   9  11
ATOM     11  C   UNL     1       4.175   4.584  19.429  0.00  0.00    +0.000 C 
BRANCH  11  12
ATOM     12  C   UNL     1       5.503   4.691  18.762  0.00  0.00    +0.000 A 
ATOM     13  N   UNL     1       6.678   4.837  19.348  0.00  0.00    +0.000 NA
ATOM     14  N   UNL     1       7.651   4.843  18.376  0.00  0.00    +0.000 NA
ATOM     15  C   UNL     1       7.062   4.702  17.209  0.00  0.00    +0.000 A 
ATOM     16  C   UNL     1       7.561   4.624  15.878  0.00  0.00    +0.000 A 
ATOM     17  C   UNL     1       6.699   4.479  14.853  0.00  0.00    +0.000 A 
ATOM     18  C   UNL     1       5.263   4.405  15.077  0.00  0.00    +0.000 A 
ATOM     19  C   UNL     1       4.790   4.469  16.332  0.00  0.00    +0.000 A 
ATOM     20  N   UNL     1       5.690   4.614  17.396  0.00  0.00    +0.000 N 
ENDBRANCH  11  12
ENDBRANCH   9  11
ENDBRANCH   1   8
BRANCH   4  21
ATOM     21  S   UNL     1      -0.029  11.682  19.695  0.00  0.00    +0.000 S 
ATOM     22  O   UNL     1       0.266  12.350  20.944  0.00  0.00    +0.000 OA
ATOM     23  O   UNL     1       0.381  12.256  18.429  0.00  0.00    +0.000 OA
BRANCH  21  24
ATOM     24  N   UNL     1      -1.679  11.440  19.691  0.00  0.00    +0.000 N 
ATOM     25  H   UNL     1      -2.180  11.660  20.549  0.00  0.00    +0.000 HD
BRANCH  24  26
ATOM     26  C   UNL     1      -2.397  11.074  18.531  0.00  0.00    +0.000 A 
ATOM     27  C   UNL     1      -3.581  11.746  18.233  0.00  0.00    +0.000 A 
ATOM     28  C   UNL     1      -4.241  11.497  17.030  0.00  0.00    +0.000 A 
ATOM     29  C   UNL     1      -3.704  10.593  16.114  0.00  0.00    +0.000 A 
ATOM     30  C   UNL     1      -2.513   9.927  16.408  0.00  0.00    +0.000 A 
ATOM     31  C   UNL     1      -1.860  10.163  17.622  0.00  0.00    +0.000 A 
ENDBRANCH  24  26
ENDBRANCH  21  24
ENDBRANCH   4  21
TORSDOF 6
ENDMDL
MODEL 6
REMARK VINA RESULT:      -8.8      3.796      9.783
REMARK  Name = 
REMARK  6 active torsions:
REMARK  status: ('A' for Active; 'I' for Inactive)
REMARK    1  A    between atoms: C_2  and  C_14
REMARK    2  A    between atoms: N_3  and  C_4
REMARK    3  A    between atoms: C_4  and  C_5
REMARK    4  A    between atoms: C_17  and  S_18
REMARK    5  A    between atoms: S_18  and  N_21
REMARK    6  A    between atoms: N_21  and  C_22
REMARK                            x       y       z     vdW  Elec       q    Type
REMARK                         _______ _______ _______ _____ _____    ______ ____
ROOT
ATOM      1  C   UNL     1       1.930   7.741  19.312  0.00  0.00    +0.000 A 
ATOM      2  C   UNL     1       1.835   8.720  18.310  0.00  0.00    +0.000 A 
ATOM      3  C   UNL     1       1.220   9.953  18.576  0.00  0.00    +0.000 A 
ATOM      4  C   UNL     1       0.697  10.205  19.849  0.00  0.00    +0.000 A 
ATOM      5  C   UNL     1       0.835   9.253  20.866  0.00  0.00    +0.000 A 
ATOM      6  C   UNL     1       1.458   8.029  20.600  0.00  0.00    +0.000 A 
ENDROOT
BRANCH   1   8
ATOM      7  O   UNL     1       2.115   5.747  18.050  0.00  0.00    +0.000 OA
ATOM      8  C   UNL     1       2.534   6.412  18.989  0.00  0.00    +0.000 C 
ATOM      9  N   UNL     1       3.533   5.975  19.834  0.00  0.00    +0.000 N 
ATOM     10  H   UNL     1       3.731   6.468  20.698  0.00  0.00    +0.000 HD
BRANCH   9  11
ATOM     11  C   UNL     1       4.132   4.664  19.679  0.00  0.00    +0.000 C 
BRANCH  11  12
ATOM     12  C   UNL     1       5.450   4.779  18.992  0.00  0.00    +0.000 A 
ATOM     13  N   UNL     1       6.624   5.001  19.557  0.00  0.00    +0.000 NA
ATOM     14  N   UNL     1       7.587   4.985  18.575  0.00  0.00    +0.000 NA
ATOM     15  C   UNL     1       6.994   4.756  17.424  0.00  0.00    +0.000 A 
ATOM     16  C   UNL     1       7.483   4.618  16.095  0.00  0.00    +0.000 A 
ATOM     17  C   UNL     1       6.618   4.384  15.089  0.00  0.00    +0.000 A 
ATOM     18  C   UNL     1       5.188   4.272  15.333  0.00  0.00    +0.000 A 
ATOM     19  C   UNL     1       4.724   4.391  16.588  0.00  0.00    +0.000 A 
ATOM     20  N   UNL     1       5.627   4.630  17.631  0.00  0.00    +0.000 N 
ENDBRANCH  11  12
ENDBRANCH   9  11
ENDBRANCH   1   8
BRANCH   4  21
ATOM     21  S   UNL     1      -0.023  11.792  20.232  0.00  0.00    +0.000 S 
ATOM     22  O   UNL     1      -1.452  11.593  20.345  0.00  0.00    +0.000 OA
ATOM     23  O   UNL     1       0.734  12.382  21.317  0.00  0.00    +0.000 OA
BRANCH  21  24
ATOM     24  N   UNL     1       0.202  12.685  18.841  0.00  0.00    +0.000 N 
ATOM     25  H   UNL     1      -0.444  12.512  18.073  0.00  0.00    +0.000 HD
BRANCH  24  26
ATOM     26  C   UNL     1       1.146  13.731  18.746  0.00  0.00    +0.000 A 
ATOM     27  C   UNL     1       2.433  13.436  18.302  0.00  0.00    +0.000 A 
ATOM     28  C   UNL     1       3.346  14.466  18.075  0.00  0.00    +0.000 A 
ATOM     29  C   UNL     1       2.963  15.792  18.269  0.00  0.00    +0.000 A 
ATOM     30  C   UNL     1       1.670  16.088  18.705  0.00  0.00    +0.000 A 
ATOM     31  C   UNL     1       0.760  15.055  18.950  0.00  0.00    +0.000 A 
ENDBRANCH  24  26
ENDBRANCH  21  24
ENDBRANCH   4  21
TORSDOF 6
ENDMDL
MODEL 7
REMARK VINA RESULT:      -8.8      1.772      3.278
REMARK  Name = 
REMARK  6 active torsions:
REMARK  status: ('A' for Active; 'I' for Inactive)
REMARK    1  A    between atoms: C_2  and  C_14
REMARK    2  A    between atoms: N_3  and  C_4
REMARK    3  A    between atoms: C_4  and  C_5
REMARK    4  A    between atoms: C_17  and  S_18
REMARK    5  A    between atoms: S_18  and  N_21
REMARK    6  A    between atoms: N_21  and  C_22
REMARK                            x       y       z     vdW  Elec       q    Type
REMARK                         _______ _______ _______ _____ _____    ______ ____
ROOT
ATOM      1  C   UNL     1       2.095   7.605  18.999  0.00  0.00    +0.000 A 
ATOM      2  C   UNL     1       2.524   6.991  17.811  0.00  0.00    +0.000 A 
ATOM      3  C   UNL     1       3.045   5.688  17.833  0.00  0.00    +0.000 A 
ATOM      4  C   UNL     1       3.137   5.000  19.047  0.00  0.00    +0.000 A 
ATOM      5  C   UNL     1       2.663   5.588  20.226  0.00  0.00    +0.000 A 
ATOM      6  C   UNL     1       2.134   6.884  20.199  0.00  0.00    +0.000 A 
ENDROOT
BRANCH   1   8
ATOM      7  O   UNL     1       1.648   9.668  17.925  0.00  0.00    +0.000 OA
ATOM      8  C   UNL     1       1.600   9.017  18.961  0.00  0.00    +0.000 C 
ATOM      9  N   UNL     1       1.151   9.537  20.157  0.00  0.00    +0.000 N 
ATOM     10  H   UNL     1       1.290   9.031  21.025  0.00  0.00    +0.000 HD
BRANCH   9  11
ATOM     11  C   UNL     1       0.733  10.920  20.268  0.00  0.00    +0.000 C 
BRANCH  11  12
ATOM     12  C   UNL     1      -0.179  11.090  21.435  0.00  0.00    +0.000 A 
ATOM     13  N   UNL     1       0.035  10.689  22.676  0.00  0.00    +0.000 NA
ATOM     14  N   UNL     1      -1.031  11.086  23.450  0.00  0.00    +0.000 NA
ATOM     15  C   UNL     1      -1.884  11.721  22.676  0.00  0.00    +0.000 A 
ATOM     16  C   UNL     1      -3.133  12.353  22.929  0.00  0.00    +0.000 A 
ATOM     17  C   UNL     1      -3.801  12.935  21.914  0.00  0.00    +0.000 A 
ATOM     18  C   UNL     1      -3.273  12.928  20.558  0.00  0.00    +0.000 A 
ATOM     19  C   UNL     1      -2.089  12.340  20.317  0.00  0.00    +0.000 A 
ATOM     20  N   UNL     1      -1.396  11.741  21.377  0.00  0.00    +0.000 N 
ENDBRANCH  11  12
ENDBRANCH   9  11
ENDBRANCH   1   8
BRANCH   4  21
ATOM     21  S   UNL     1       3.727   3.317  19.089  0.00  0.00    +0.000 S 
ATOM     22  O   UNL     1       3.431   2.796  20.406  0.00  0.00    +0.000 OA
ATOM     23  O   UNL     1       3.253   2.642  17.898  0.00  0.00    +0.000 OA
BRANCH  21  24
ATOM     24  N   UNL     1       5.387   3.467  19.025  0.00  0.00    +0.000 N 
ATOM     25  H   UNL     1       5.934   2.696  19.401  0.00  0.00    +0.000 HD
BRANCH  24  26
ATOM     26  C   UNL     1       6.035   4.537  18.369  0.00  0.00    +0.000 A 
ATOM     27  C   UNL     1       6.725   5.475  19.134  0.00  0.00    +0.000 A 
ATOM     28  C   UNL     1       7.481   6.465  18.506  0.00  0.00    +0.000 A 
ATOM     29  C   UNL     1       7.566   6.503  17.116  0.00  0.00    +0.000 A 
ATOM     30  C   UNL     1       6.882   5.557  16.350  0.00  0.00    +0.000 A 
ATOM     31  C   UNL     1       6.110   4.573  16.977  0.00  0.00    +0.000 A 
ENDBRANCH  24  26
ENDBRANCH  21  24
ENDBRANCH   4  21
TORSDOF 6
ENDMDL
MODEL 8
REMARK VINA RESULT:      -8.8      3.130      9.729
REMARK  Name = 
REMARK  6 active torsions:
REMARK  status: ('A' for Active; 'I' for Inactive)
REMARK    1  A    between atoms: C_2  and  C_14
REMARK    2  A    between atoms: N_3  and  C_4
REMARK    3  A    between atoms: C_4  and  C_5
REMARK    4  A    between atoms: C_17  and  S_18
REMARK    5  A    between atoms: S_18  and  N_21
REMARK    6  A    between atoms: N_21  and  C_22
REMARK                            x       y       z     vdW  Elec       q    Type
REMARK                         _______ _______ _______ _____ _____    ______ ____
ROOT
ATOM      1  C   UNL     1       1.913   8.051  19.579  0.00  0.00    +0.000 A 
ATOM      2  C   UNL     1       1.682   9.079  18.652  0.00  0.00    +0.000 A 
ATOM      3  C   UNL     1       1.101  10.289  19.062  0.00  0.00    +0.000 A 
ATOM      4  C   UNL     1       0.749  10.467  20.404  0.00  0.00    +0.000 A 
ATOM      5  C   UNL     1       1.025   9.464  21.342  0.00  0.00    +0.000 A 
ATOM      6  C   UNL     1       1.614   8.264  20.931  0.00  0.00    +0.000 A 
ENDROOT
BRANCH   1   8
ATOM      7  O   UNL     1       2.203   6.313  17.996  0.00  0.00    +0.000 OA
ATOM      8  C   UNL     1       2.477   6.747  19.108  0.00  0.00    +0.000 C 
ATOM      9  N   UNL     1       3.261   6.061  20.011  0.00  0.00    +0.000 N 
ATOM     10  H   UNL     1       3.322   6.363  20.978  0.00  0.00    +0.000 HD
BRANCH   9  11
ATOM     11  C   UNL     1       3.789   4.746  19.706  0.00  0.00    +0.000 C 
BRANCH  11  12
ATOM     12  C   UNL     1       5.154   4.863  19.119  0.00  0.00    +0.000 A 
ATOM     13  N   UNL     1       6.278   5.125  19.764  0.00  0.00    +0.000 NA
ATOM     14  N   UNL     1       7.314   5.095  18.860  0.00  0.00    +0.000 NA
ATOM     15  C   UNL     1       6.815   4.818  17.676  0.00  0.00    +0.000 A 
ATOM     16  C   UNL     1       7.408   4.646  16.393  0.00  0.00    +0.000 A 
ATOM     17  C   UNL     1       6.627   4.364  15.333  0.00  0.00    +0.000 A 
ATOM     18  C   UNL     1       5.185   4.232  15.469  0.00  0.00    +0.000 A 
ATOM     19  C   UNL     1       4.623   4.384  16.680  0.00  0.00    +0.000 A 
ATOM     20  N   UNL     1       5.439   4.673  17.781  0.00  0.00    +0.000 N 
ENDBRANCH  11  12
ENDBRANCH   9  11
ENDBRANCH   1   8
BRANCH   4  21
ATOM     21  S   UNL     1       0.077  12.022  20.963  0.00  0.00    +0.000 S 
ATOM     22  O   UNL     1       1.199  12.872  21.300  0.00  0.00    +0.000 OA
ATOM     23  O   UNL     1      -0.922  12.453  20.007  0.00  0.00    +0.000 OA
BRANCH  21  24
ATOM     24  N   UNL     1      -0.659  11.649  22.412  0.00  0.00    +0.000 N 
ATOM     25  H   UNL     1      -0.329  10.816  22.896  0.00  0.00    +0.000 HD
BRANCH  24  26
ATOM     26  C   UNL     1      -1.605  12.495  23.032  0.00  0.00    +0.000 A 
ATOM     27  C   UNL     1      -2.851  11.973  23.375  0.00  0.00    +0.000 A 
ATOM     28  C   UNL     1      -3.754  12.747  24.103  0.00  0.00    +0.000 A 
ATOM     29  C   UNL     1      -3.403  14.034  24.508  0.00  0.00    +0.000 A 
ATOM     30  C   UNL     1      -2.151  14.553  24.172  0.00  0.00    +0.000 A 
ATOM     31  C   UNL     1      -1.251  13.784  23.428  0.00  0.00    +0.000 A 
ENDBRANCH  24  26
ENDBRANCH  21  24
ENDBRANCH   4  21
TORSDOF 6
ENDMDL
MODEL 9
REMARK VINA RESULT:      -8.8      3.545      9.244
REMARK  Name = 
REMARK  6 active torsions:
REMARK  status: ('A' for Active; 'I' for Inactive)
REMARK    1  A    between atoms: C_2  and  C_14
REMARK    2  A    between atoms: N_3  and  C_4
REMARK    3  A    between atoms: C_4  and  C_5
REMARK    4  A    between atoms: C_17  and  S_18
REMARK    5  A    between atoms: S_18  and  N_21
REMARK    6  A    between atoms: N_21  and  C_22
REMARK                            x       y       z     vdW  Elec       q    Type
REMARK                         _______ _______ _______ _____ _____    ______ ____
ROOT
ATOM      1  C   UNL     1       1.967   7.589  19.585  0.00  0.00    +0.000 A 
ATOM      2  C   UNL     1       1.389   8.079  20.767  0.00  0.00    +0.000 A 
ATOM      3  C   UNL     1       0.924   9.402  20.835  0.00  0.00    +0.000 A 
ATOM      4  C   UNL     1       1.041  10.234  19.717  0.00  0.00    +0.000 A 
ATOM      5  C   UNL     1       1.569   9.734  18.520  0.00  0.00    +0.000 A 
ATOM      6  C   UNL     1       2.022   8.412  18.453  0.00  0.00    +0.000 A 
ENDROOT
BRANCH   1   8
ATOM      7  O   UNL     1       1.758   5.231  19.540  0.00  0.00    +0.000 OA
ATOM      8  C   UNL     1       2.511   6.196  19.555  0.00  0.00    +0.000 C 
ATOM      9  N   UNL     1       3.885   6.076  19.599  0.00  0.00    +0.000 N 
ATOM     10  H   UNL     1       4.468   6.885  19.788  0.00  0.00    +0.000 HD
BRANCH   9  11
ATOM     11  C   UNL     1       4.528   4.779  19.667  0.00  0.00    +0.000 C 
BRANCH  11  12
ATOM     12  C   UNL     1       5.759   4.771  18.826  0.00  0.00    +0.000 A 
ATOM     13  N   UNL     1       7.009   4.845  19.247  0.00  0.00    +0.000 NA
ATOM     14  N   UNL     1       7.841   4.754  18.155  0.00  0.00    +0.000 NA
ATOM     15  C   UNL     1       7.092   4.628  17.081  0.00  0.00    +0.000 A 
ATOM     16  C   UNL     1       7.401   4.480  15.700  0.00  0.00    +0.000 A 
ATOM     17  C   UNL     1       6.401   4.374  14.803  0.00  0.00    +0.000 A 
ATOM     18  C   UNL     1       5.007   4.411  15.217  0.00  0.00    +0.000 A 
ATOM     19  C   UNL     1       4.712   4.541  16.522  0.00  0.00    +0.000 A 
ATOM     20  N   UNL     1       5.754   4.646  17.451  0.00  0.00    +0.000 N 
ENDBRANCH  11  12
ENDBRANCH   9  11
ENDBRANCH   1   8
BRANCH   4  21
ATOM     21  S   UNL     1       0.391  11.896  19.755  0.00  0.00    +0.000 S 
ATOM     22  O   UNL     1      -0.569  11.950  20.837  0.00  0.00    +0.000 OA
ATOM     23  O   UNL     1       1.505  12.819  19.702  0.00  0.00    +0.000 OA
BRANCH  21  24
ATOM     24  N   UNL     1      -0.503  12.014  18.352  0.00  0.00    +0.000 N 
ATOM     25  H   UNL     1      -0.060  12.475  17.561  0.00  0.00    +0.000 HD
BRANCH  24  26
ATOM     26  C   UNL     1      -1.765  11.399  18.193  0.00  0.00    +0.000 A 
ATOM     27  C   UNL     1      -2.897  12.056  18.670  0.00  0.00    +0.000 A 
ATOM     28  C   UNL     1      -4.165  11.535  18.412  0.00  0.00    +0.000 A 
ATOM     29  C   UNL     1      -4.301  10.372  17.656  0.00  0.00    +0.000 A 
ATOM     30  C   UNL     1      -3.167   9.719  17.170  0.00  0.00    +0.000 A 
ATOM     31  C   UNL     1      -1.894  10.231  17.443  0.00  0.00    +0.000 A 
ENDBRANCH  24  26
ENDBRANCH  21  24
ENDBRANCH   4  21
TORSDOF 6
ENDMDL
