MODEL 1
REMARK VINA RESULT:      -7.6      0.000      0.000
REMARK  Name = 
REMARK  2 active torsions:
REMARK  status: ('A' for Active; 'I' for Inactive)
REMARK    1  A    between atoms: C_4  and  C_5
REMARK    2  A    between atoms: N_8  and  C_9
REMARK                            x       y       z     vdW  Elec       q    Type
REMARK                         _______ _______ _______ _____ _____    ______ ____
ROOT
ATOM      1  C   UNL     1       0.011   9.914  19.719  0.00  0.00    +0.000 C 
ATOM      2  C   UNL     1       0.214   8.912  20.870  0.00  0.00    +0.000 C 
ATOM      3  C   UNL     1       1.591   8.219  20.951  0.00  0.00    +0.000 C 
ATOM      4  N   UNL     1       2.099   7.882  19.626  0.00  0.00    +0.000 N 
ATOM      5  C   UNL     1       2.162   9.007  18.695  0.00  0.00    +0.000 C 
ATOM      6  C   UNL     1       0.756   9.541  18.434  0.00  0.00    +0.000 C 
ENDROOT
BRANCH   4   7
ATOM      7  C   UNL     1       2.379   6.610  19.146  0.00  0.00    +0.000 A 
ATOM      8  N   UNL     1       1.850   5.547  19.800  0.00  0.00    +0.000 NA
ATOM      9  C   UNL     1       2.730   4.586  20.130  0.00  0.00    +0.000 A 
ATOM     10  N   UNL     1       4.081   4.621  19.960  0.00  0.00    +0.000 NA
ATOM     11  C   UNL     1       4.488   5.592  19.049  0.00  0.00    +0.000 A 
ATOM     12  C   UNL     1       3.446   6.193  18.329  0.00  0.00    +0.000 A 
ATOM     13  O   UNL     1       3.327   5.152  17.299  0.00  0.00    +0.000 OA
ATOM     14  C   UNL     1       4.615   4.620  17.174  0.00  0.00    +0.000 A 
ATOM     15  C   UNL     1       5.120   3.760  16.216  0.00  0.00    +0.000 A 
ATOM     16  C   UNL     1       6.307   4.235  15.651  0.00  0.00    +0.000 A 
ATOM     17  C   UNL     1       6.858   5.455  16.077  0.00  0.00    +0.000 A 
ATOM     18  C   UNL     1       6.440   6.054  17.283  0.00  0.00    +0.000 A 
ATOM     19  C   UNL     1       5.415   5.402  17.989  0.00  0.00    +0.000 A 
ENDBRANCH   4   7
BRANCH   1  23
ATOM     20  O   UNL     1       1.433  13.936  21.793  0.00  0.00    +0.000 OA
ATOM     21  C   UNL     1       0.837  13.151  21.094  0.00  0.00    +0.000 A 
ATOM     22  N   UNL     1       0.921  11.764  21.124  0.00  0.00    +0.000 NA
ATOM     23  C   UNL     1       0.243  11.370  20.078  0.00  0.00    +0.000 A 
ATOM     24  N   UNL     1      -0.269  12.388  19.297  0.00  0.00    +0.000 N 
ATOM     25  N   UNL     1      -0.044  13.519  20.087  0.00  0.00    +0.000 N 
ATOM     26  H   UNL     1      -1.228  12.236  18.979  0.00  0.00    +0.000 HD
ATOM     27  H   UNL     1       0.118  14.422  19.646  0.00  0.00    +0.000 HD
ENDBRANCH   1  23
TORSDOF 2
ENDMDL
MODEL 2
REMARK VINA RESULT:      -7.4      1.022      1.204
REMARK  Name = 
REMARK  2 active torsions:
REMARK  status: ('A' for Active; 'I' for Inactive)
REMARK    1  A    between atoms: C_4  and  C_5
REMARK    2  A    between atoms: N_8  and  C_9
REMARK                            x       y       z     vdW  Elec       q    Type
REMARK                         _______ _______ _______ _____ _____    ______ ____
ROOT
ATOM      1  C   UNL     1      -0.193  10.092  19.277  0.00  0.00    +0.000 C 
ATOM      2  C   UNL     1       0.061   9.267  20.551  0.00  0.00    +0.000 C 
ATOM      3  C   UNL     1       1.461   8.634  20.701  0.00  0.00    +0.000 C 
ATOM      4  N   UNL     1       1.959   8.131  19.426  0.00  0.00    +0.000 N 
ATOM      5  C   UNL     1       1.971   9.116  18.347  0.00  0.00    +0.000 C 
ATOM      6  C   UNL     1       0.545   9.564  18.042  0.00  0.00    +0.000 C 
ENDROOT
BRANCH   4   7
ATOM      7  C   UNL     1       2.273   6.813  19.123  0.00  0.00    +0.000 A 
ATOM      8  N   UNL     1       1.979   5.857  20.039  0.00  0.00    +0.000 NA
ATOM      9  C   UNL     1       2.995   5.033  20.349  0.00  0.00    +0.000 A 
ATOM     10  N   UNL     1       4.283   5.125  19.915  0.00  0.00    +0.000 NA
ATOM     11  C   UNL     1       4.421   5.935  18.790  0.00  0.00    +0.000 A 
ATOM     12  C   UNL     1       3.213   6.323  18.197  0.00  0.00    +0.000 A 
ATOM     13  O   UNL     1       3.014   5.104  17.401  0.00  0.00    +0.000 OA
ATOM     14  C   UNL     1       4.305   4.644  17.119  0.00  0.00    +0.000 A 
ATOM     15  C   UNL     1       4.712   3.656  16.241  0.00  0.00    +0.000 A 
ATOM     16  C   UNL     1       5.724   4.096  15.383  0.00  0.00    +0.000 A 
ATOM     17  C   UNL     1       6.219   5.407  15.481  0.00  0.00    +0.000 A 
ATOM     18  C   UNL     1       5.968   6.190  16.626  0.00  0.00    +0.000 A 
ATOM     19  C   UNL     1       5.156   5.613  17.618  0.00  0.00    +0.000 A 
ENDBRANCH   4   7
BRANCH   1  23
ATOM     20  O   UNL     1      -0.227  14.787  18.606  0.00  0.00    +0.000 OA
ATOM     21  C   UNL     1       0.033  13.690  19.039  0.00  0.00    +0.000 A 
ATOM     22  N   UNL     1      -0.374  12.464  18.525  0.00  0.00    +0.000 NA
ATOM     23  C   UNL     1      -0.003  11.590  19.424  0.00  0.00    +0.000 A 
ATOM     24  N   UNL     1       0.593  12.127  20.549  0.00  0.00    +0.000 N 
ATOM     25  N   UNL     1       0.786  13.462  20.181  0.00  0.00    +0.000 N 
ATOM     26  H   UNL     1       1.417  11.619  20.874  0.00  0.00    +0.000 HD
ATOM     27  H   UNL     1       0.771  14.191  20.892  0.00  0.00    +0.000 HD
ENDBRANCH   1  23
TORSDOF 2
ENDMDL
MODEL 3
REMARK VINA RESULT:      -7.4      1.031      1.122
REMARK  Name = 
REMARK  2 active torsions:
REMARK  status: ('A' for Active; 'I' for Inactive)
REMARK    1  A    between atoms: C_4  and  C_5
REMARK    2  A    between atoms: N_8  and  C_9
REMARK                            x       y       z     vdW  Elec       q    Type
REMARK                         _______ _______ _______ _____ _____    ______ ____
ROOT
ATOM      1  C   UNL     1      -0.189   9.889  19.639  0.00  0.00    +0.000 C 
ATOM      2  C   UNL     1       0.279   8.783  20.602  0.00  0.00    +0.000 C 
ATOM      3  C   UNL     1       1.739   8.303  20.451  0.00  0.00    +0.000 C 
ATOM      4  N   UNL     1       2.135   8.230  19.049  0.00  0.00    +0.000 N 
ATOM      5  C   UNL     1       1.937   9.467  18.296  0.00  0.00    +0.000 C 
ATOM      6  C   UNL     1       0.451   9.811  18.250  0.00  0.00    +0.000 C 
ENDROOT
BRANCH   4   7
ATOM      7  C   UNL     1       2.531   7.093  18.360  0.00  0.00    +0.000 A 
ATOM      8  N   UNL     1       1.599   6.143  18.099  0.00  0.00    +0.000 NA
ATOM      9  C   UNL     1       1.942   4.894  18.457  0.00  0.00    +0.000 A 
ATOM     10  N   UNL     1       3.067   4.515  19.125  0.00  0.00    +0.000 NA
ATOM     11  C   UNL     1       4.069   5.483  19.095  0.00  0.00    +0.000 A 
ATOM     12  C   UNL     1       3.823   6.552  18.223  0.00  0.00    +0.000 A 
ATOM     13  O   UNL     1       4.305   5.891  17.002  0.00  0.00    +0.000 OA
ATOM     14  C   UNL     1       5.297   5.005  17.441  0.00  0.00    +0.000 A 
ATOM     15  C   UNL     1       6.217   4.283  16.703  0.00  0.00    +0.000 A 
ATOM     16  C   UNL     1       7.523   4.456  17.170  0.00  0.00    +0.000 A 
ATOM     17  C   UNL     1       7.777   5.281  18.278  0.00  0.00    +0.000 A 
ATOM     18  C   UNL     1       6.733   5.677  19.139  0.00  0.00    +0.000 A 
ATOM     19  C   UNL     1       5.438   5.255  18.794  0.00  0.00    +0.000 A 
ENDBRANCH   4   7
BRANCH   1  23
ATOM     20  O   UNL     1       0.926  13.773  22.124  0.00  0.00    +0.000 OA
ATOM     21  C   UNL     1       0.353  13.002  21.390  0.00  0.00    +0.000 A 
ATOM     22  N   UNL     1       0.641  11.657  21.192  0.00  0.00    +0.000 NA
ATOM     23  C   UNL     1      -0.120  11.301  20.190  0.00  0.00    +0.000 A 
ATOM     24  N   UNL     1      -0.884  12.317  19.648  0.00  0.00    +0.000 N 
ATOM     25  N   UNL     1      -0.711  13.352  20.572  0.00  0.00    +0.000 N 
ATOM     26  H   UNL     1      -1.847  12.053  19.433  0.00  0.00    +0.000 HD
ATOM     27  H   UNL     1      -0.749  14.320  20.261  0.00  0.00    +0.000 HD
ENDBRANCH   1  23
TORSDOF 2
ENDMDL
MODEL 4
REMARK VINA RESULT:      -7.3      4.808      9.326
REMARK  Name = 
REMARK  2 active torsions:
REMARK  status: ('A' for Active; 'I' for Inactive)
REMARK    1  A    between atoms: C_4  and  C_5
REMARK    2  A    between atoms: N_8  and  C_9
REMARK                            x       y       z     vdW  Elec       q    Type
REMARK                         _______ _______ _______ _____ _____    ______ ____
ROOT
ATOM      1  C   UNL     1       5.965   4.317  13.038  0.00  0.00    +0.000 C 
ATOM      2  C   UNL     1       7.126   5.109  13.665  0.00  0.00    +0.000 C 
ATOM      3  C   UNL     1       7.485   4.771  15.129  0.00  0.00    +0.000 C 
ATOM      4  N   UNL     1       6.291   4.520  15.927  0.00  0.00    +0.000 N 
ATOM      5  C   UNL     1       5.400   3.497  15.385  0.00  0.00    +0.000 C 
ATOM      6  C   UNL     1       4.859   3.949  14.031  0.00  0.00    +0.000 C 
ENDROOT
BRANCH   4   7
ATOM      7  C   UNL     1       5.871   5.241  17.036  0.00  0.00    +0.000 A 
ATOM      8  N   UNL     1       6.789   5.982  17.706  0.00  0.00    +0.000 NA
ATOM      9  C   UNL     1       6.827   5.779  19.033  0.00  0.00    +0.000 A 
ATOM     10  N   UNL     1       6.117   4.856  19.740  0.00  0.00    +0.000 NA
ATOM     11  C   UNL     1       5.025   4.356  19.035  0.00  0.00    +0.000 A 
ATOM     12  C   UNL     1       4.737   5.034  17.843  0.00  0.00    +0.000 A 
ATOM     13  O   UNL     1       3.958   6.123  18.450  0.00  0.00    +0.000 OA
ATOM     14  C   UNL     1       3.372   5.555  19.588  0.00  0.00    +0.000 A 
ATOM     15  C   UNL     1       2.385   6.062  20.412  0.00  0.00    +0.000 A 
ATOM     16  C   UNL     1       1.338   5.156  20.605  0.00  0.00    +0.000 A 
ATOM     17  C   UNL     1       1.375   3.890  19.998  0.00  0.00    +0.000 A 
ATOM     18  C   UNL     1       2.578   3.374  19.475  0.00  0.00    +0.000 A 
ATOM     19  C   UNL     1       3.704   4.213  19.539  0.00  0.00    +0.000 A 
ENDBRANCH   4   7
BRANCH   1  23
ATOM     20  O   UNL     1       6.020   0.200  10.683  0.00  0.00    +0.000 OA
ATOM     21  C   UNL     1       6.377   1.215  11.233  0.00  0.00    +0.000 A 
ATOM     22  N   UNL     1       5.593   2.090  11.977  0.00  0.00    +0.000 NA
ATOM     23  C   UNL     1       6.373   3.114  12.209  0.00  0.00    +0.000 A 
ATOM     24  N   UNL     1       7.630   3.032  11.640  0.00  0.00    +0.000 N 
ATOM     25  N   UNL     1       7.673   1.709  11.190  0.00  0.00    +0.000 N 
ATOM     26  H   UNL     1       8.391   3.332  12.251  0.00  0.00    +0.000 HD
ATOM     27  H   UNL     1       8.226   1.470  10.370  0.00  0.00    +0.000 HD
ENDBRANCH   1  23
TORSDOF 2
ENDMDL
MODEL 5
REMARK VINA RESULT:      -7.2      8.040      9.400
REMARK  Name = 
REMARK  2 active torsions:
REMARK  status: ('A' for Active; 'I' for Inactive)
REMARK    1  A    between atoms: C_4  and  C_5
REMARK    2  A    between atoms: N_8  and  C_9
REMARK                            x       y       z     vdW  Elec       q    Type
REMARK                         _______ _______ _______ _____ _____    ______ ____
ROOT
ATOM      1  C   UNL     1       6.353  12.646  25.996  0.00  0.00    +0.000 C 
ATOM      2  C   UNL     1       5.688  13.427  24.848  0.00  0.00    +0.000 C 
ATOM      3  C   UNL     1       6.108  13.041  23.413  0.00  0.00    +0.000 C 
ATOM      4  N   UNL     1       7.535  12.749  23.334  0.00  0.00    +0.000 N 
ATOM      5  C   UNL     1       8.002  11.736  24.278  0.00  0.00    +0.000 C 
ATOM      6  C   UNL     1       7.799  12.231  25.707  0.00  0.00    +0.000 C 
ENDROOT
BRANCH   4   7
ATOM      7  C   UNL     1       8.476  13.426  22.570  0.00  0.00    +0.000 A 
ATOM      8  N   UNL     1       8.565  14.772  22.707  0.00  0.00    +0.000 NA
ATOM      9  C   UNL     1       8.526  15.465  21.556  0.00  0.00    +0.000 A 
ATOM     10  N   UNL     1       8.315  14.964  20.307  0.00  0.00    +0.000 NA
ATOM     11  C   UNL     1       8.517  13.588  20.232  0.00  0.00    +0.000 A 
ATOM     12  C   UNL     1       9.096  13.020  21.374  0.00  0.00    +0.000 A 
ATOM     13  O   UNL     1      10.491  13.331  21.032  0.00  0.00    +0.000 OA
ATOM     14  C   UNL     1      10.528  13.323  19.633  0.00  0.00    +0.000 A 
ATOM     15  C   UNL     1      11.620  13.353  18.784  0.00  0.00    +0.000 A 
ATOM     16  C   UNL     1      11.572  12.336  17.826  0.00  0.00    +0.000 A 
ATOM     17  C   UNL     1      10.493  11.438  17.796  0.00  0.00    +0.000 A 
ATOM     18  C   UNL     1       9.295  11.724  18.483  0.00  0.00    +0.000 A 
ATOM     19  C   UNL     1       9.269  12.911  19.235  0.00  0.00    +0.000 A 
ENDBRANCH   4   7
BRANCH   1  23
ATOM     20  O   UNL     1       2.849   9.720  27.286  0.00  0.00    +0.000 OA
ATOM     21  C   UNL     1       3.938  10.232  27.176  0.00  0.00    +0.000 A 
ATOM     22  N   UNL     1       4.242  11.441  26.562  0.00  0.00    +0.000 NA
ATOM     23  C   UNL     1       5.550  11.478  26.536  0.00  0.00    +0.000 A 
ATOM     24  N   UNL     1       6.175  10.358  27.049  0.00  0.00    +0.000 N 
ATOM     25  N   UNL     1       5.116   9.662  27.639  0.00  0.00    +0.000 N 
ATOM     26  H   UNL     1       6.979  10.558  27.646  0.00  0.00    +0.000 HD
ATOM     27  H   UNL     1       5.142   8.646  27.690  0.00  0.00    +0.000 HD
ENDBRANCH   1  23
TORSDOF 2
ENDMDL
MODEL 6
REMARK VINA RESULT:      -7.2      2.237      3.748
REMARK  Name = 
REMARK  2 active torsions:
REMARK  status: ('A' for Active; 'I' for Inactive)
REMARK    1  A    between atoms: C_4  and  C_5
REMARK    2  A    between atoms: N_8  and  C_9
REMARK                            x       y       z     vdW  Elec       q    Type
REMARK                         _______ _______ _______ _____ _____    ______ ____
ROOT
ATOM      1  C   UNL     1       1.179  11.150  19.503  0.00  0.00    +0.000 C 
ATOM      2  C   UNL     1       1.985  10.881  18.219  0.00  0.00    +0.000 C 
ATOM      3  C   UNL     1       1.833   9.481  17.586  0.00  0.00    +0.000 C 
ATOM      4  N   UNL     1       1.761   8.439  18.604  0.00  0.00    +0.000 N 
ATOM      5  C   UNL     1       0.722   8.644  19.612  0.00  0.00    +0.000 C 
ATOM      6  C   UNL     1       1.013   9.919  20.399  0.00  0.00    +0.000 C 
ENDROOT
BRANCH   4   7
ATOM      7  C   UNL     1       2.650   7.387  18.775  0.00  0.00    +0.000 A 
ATOM      8  N   UNL     1       3.701   7.290  17.923  0.00  0.00    +0.000 NA
ATOM      9  C   UNL     1       3.859   6.085  17.350  0.00  0.00    +0.000 A 
ATOM     10  N   UNL     1       3.032   5.009  17.465  0.00  0.00    +0.000 NA
ATOM     11  C   UNL     1       2.166   5.104  18.552  0.00  0.00    +0.000 A 
ATOM     12  C   UNL     1       2.445   6.159  19.431  0.00  0.00    +0.000 A 
ATOM     13  O   UNL     1       3.482   5.466  20.207  0.00  0.00    +0.000 OA
ATOM     14  C   UNL     1       3.127   4.113  20.155  0.00  0.00    +0.000 A 
ATOM     15  C   UNL     1       3.631   3.045  20.874  0.00  0.00    +0.000 A 
ATOM     16  C   UNL     1       2.622   2.291  21.480  0.00  0.00    +0.000 A 
ATOM     17  C   UNL     1       1.273   2.647  21.313  0.00  0.00    +0.000 A 
ATOM     18  C   UNL     1       0.881   3.534  20.290  0.00  0.00    +0.000 A 
ATOM     19  C   UNL     1       1.908   4.080  19.502  0.00  0.00    +0.000 A 
ENDBRANCH   4   7
BRANCH   1  23
ATOM     20  O   UNL     1      -3.133  13.031  20.110  0.00  0.00    +0.000 OA
ATOM     21  C   UNL     1      -2.122  12.614  19.595  0.00  0.00    +0.000 A 
ATOM     22  N   UNL     1      -1.078  11.938  20.216  0.00  0.00    +0.000 NA
ATOM     23  C   UNL     1      -0.147  11.858  19.301  0.00  0.00    +0.000 A 
ATOM     24  N   UNL     1      -0.453  12.471  18.101  0.00  0.00    +0.000 N 
ATOM     25  N   UNL     1      -1.811  12.772  18.252  0.00  0.00    +0.000 N 
ATOM     26  H   UNL     1      -0.194  11.934  17.273  0.00  0.00    +0.000 HD
ATOM     27  H   UNL     1      -2.205  13.585  17.784  0.00  0.00    +0.000 HD
ENDBRANCH   1  23
TORSDOF 2
ENDMDL
MODEL 7
REMARK VINA RESULT:      -7.1      2.889      8.016
REMARK  Name = 
REMARK  2 active torsions:
REMARK  status: ('A' for Active; 'I' for Inactive)
REMARK    1  A    between atoms: C_4  and  C_5
REMARK    2  A    between atoms: N_8  and  C_9
REMARK                            x       y       z     vdW  Elec       q    Type
REMARK                         _______ _______ _______ _____ _____    ______ ____
ROOT
ATOM      1  C   UNL     1       1.542   4.564  18.933  0.00  0.00    +0.000 C 
ATOM      2  C   UNL     1       2.117   5.711  18.082  0.00  0.00    +0.000 C 
ATOM      3  C   UNL     1       2.911   6.801  18.834  0.00  0.00    +0.000 C 
ATOM      4  N   UNL     1       2.301   7.115  20.121  0.00  0.00    +0.000 N 
ATOM      5  C   UNL     1       2.092   5.962  20.993  0.00  0.00    +0.000 C 
ATOM      6  C   UNL     1       1.111   4.992  20.339  0.00  0.00    +0.000 C 
ENDROOT
BRANCH   4   7
ATOM      7  C   UNL     1       1.790   8.344  20.515  0.00  0.00    +0.000 A 
ATOM      8  N   UNL     1       1.733   8.620  21.842  0.00  0.00    +0.000 NA
ATOM      9  C   UNL     1       0.538   9.047  22.284  0.00  0.00    +0.000 A 
ATOM     10  N   UNL     1      -0.616   9.136  21.566  0.00  0.00    +0.000 NA
ATOM     11  C   UNL     1      -0.402   9.110  20.190  0.00  0.00    +0.000 A 
ATOM     12  C   UNL     1       0.942   9.213  19.805  0.00  0.00    +0.000 A 
ATOM     13  O   UNL     1       1.028  10.679  19.878  0.00  0.00    +0.000 OA
ATOM     14  C   UNL     1      -0.262  11.131  19.580  0.00  0.00    +0.000 A 
ATOM     15  C   UNL     1      -0.702  12.414  19.311  0.00  0.00    +0.000 A 
ATOM     16  C   UNL     1      -1.450  12.480  18.132  0.00  0.00    +0.000 A 
ATOM     17  C   UNL     1      -1.687  11.321  17.375  0.00  0.00    +0.000 A 
ATOM     18  C   UNL     1      -1.483  10.041  17.930  0.00  0.00    +0.000 A 
ATOM     19  C   UNL     1      -0.978   9.997  19.241  0.00  0.00    +0.000 A 
ENDBRANCH   4   7
BRANCH   1  23
ATOM     20  O   UNL     1       4.949   1.384  19.815  0.00  0.00    +0.000 OA
ATOM     21  C   UNL     1       3.986   1.934  19.335  0.00  0.00    +0.000 A 
ATOM     22  N   UNL     1       3.549   3.231  19.579  0.00  0.00    +0.000 NA
ATOM     23  C   UNL     1       2.388   3.306  18.983  0.00  0.00    +0.000 A 
ATOM     24  N   UNL     1       1.966   2.137  18.379  0.00  0.00    +0.000 N 
ATOM     25  N   UNL     1       3.106   1.332  18.447  0.00  0.00    +0.000 N 
ATOM     26  H   UNL     1       1.551   2.265  17.454  0.00  0.00    +0.000 HD
ATOM     27  H   UNL     1       3.009   0.321  18.516  0.00  0.00    +0.000 HD
ENDBRANCH   1  23
TORSDOF 2
ENDMDL
MODEL 8
REMARK VINA RESULT:      -7.0      1.074      1.186
REMARK  Name = 
REMARK  2 active torsions:
REMARK  status: ('A' for Active; 'I' for Inactive)
REMARK    1  A    between atoms: C_4  and  C_5
REMARK    2  A    between atoms: N_8  and  C_9
REMARK                            x       y       z     vdW  Elec       q    Type
REMARK                         _______ _______ _______ _____ _____    ______ ____
ROOT
ATOM      1  C   UNL     1      -0.394  10.082  21.034  0.00  0.00    +0.000 C 
ATOM      2  C   UNL     1       0.122   9.087  22.089  0.00  0.00    +0.000 C 
ATOM      3  C   UNL     1       1.498   8.441  21.820  0.00  0.00    +0.000 C 
ATOM      4  N   UNL     1       1.672   8.123  20.408  0.00  0.00    +0.000 N 
ATOM      5  C   UNL     1       1.465   9.249  19.500  0.00  0.00    +0.000 C 
ATOM      6  C   UNL     1       0.021   9.734  19.601  0.00  0.00    +0.000 C 
ENDROOT
BRANCH   4   7
ATOM      7  C   UNL     1       1.866   6.861  19.863  0.00  0.00    +0.000 A 
ATOM      8  N   UNL     1       1.439   5.784  20.568  0.00  0.00    +0.000 NA
ATOM      9  C   UNL     1       2.354   4.814  20.736  0.00  0.00    +0.000 A 
ATOM     10  N   UNL     1       3.662   4.850  20.358  0.00  0.00    +0.000 NA
ATOM     11  C   UNL     1       3.928   5.840  19.415  0.00  0.00    +0.000 A 
ATOM     12  C   UNL     1       2.791   6.460  18.881  0.00  0.00    +0.000 A 
ATOM     13  O   UNL     1       2.506   5.442  17.859  0.00  0.00    +0.000 OA
ATOM     14  C   UNL     1       3.756   4.910  17.523  0.00  0.00    +0.000 A 
ATOM     15  C   UNL     1       4.100   4.070  16.479  0.00  0.00    +0.000 A 
ATOM     16  C   UNL     1       5.187   4.556  15.746  0.00  0.00    +0.000 A 
ATOM     17  C   UNL     1       5.804   5.764  16.108  0.00  0.00    +0.000 A 
ATOM     18  C   UNL     1       5.584   6.337  17.377  0.00  0.00    +0.000 A 
ATOM     19  C   UNL     1       4.677   5.671  18.220  0.00  0.00    +0.000 A 
ENDBRANCH   4   7
BRANCH   1  23
ATOM     20  O   UNL     1       1.510  14.418  21.300  0.00  0.00    +0.000 OA
ATOM     21  C   UNL     1       0.806  13.457  21.503  0.00  0.00    +0.000 A 
ATOM     22  N   UNL     1       0.961  12.177  20.984  0.00  0.00    +0.000 NA
ATOM     23  C   UNL     1      -0.129  11.545  21.337  0.00  0.00    +0.000 A 
ATOM     24  N   UNL     1      -1.051  12.310  22.025  0.00  0.00    +0.000 N 
ATOM     25  N   UNL     1      -0.333  13.479  22.294  0.00  0.00    +0.000 N 
ATOM     26  H   UNL     1      -1.476  11.840  22.826  0.00  0.00    +0.000 HD
ATOM     27  H   UNL     1      -0.823  14.369  22.366  0.00  0.00    +0.000 HD
ENDBRANCH   1  23
TORSDOF 2
ENDMDL
MODEL 9
REMARK VINA RESULT:      -7.0      2.721      8.316
REMARK  Name = 
REMARK  2 active torsions:
REMARK  status: ('A' for Active; 'I' for Inactive)
REMARK    1  A    between atoms: C_4  and  C_5
REMARK    2  A    between atoms: N_8  and  C_9
REMARK                            x       y       z     vdW  Elec       q    Type
REMARK                         _______ _______ _______ _____ _____    ______ ____
ROOT
ATOM      1  C   UNL     1       1.609   4.912  19.310  0.00  0.00    +0.000 C 
ATOM      2  C   UNL     1       2.212   5.674  18.115  0.00  0.00    +0.000 C 
ATOM      3  C   UNL     1       2.770   7.084  18.402  0.00  0.00    +0.000 C 
ATOM      4  N   UNL     1       1.929   7.809  19.349  0.00  0.00    +0.000 N 
ATOM      5  C   UNL     1       1.684   7.106  20.606  0.00  0.00    +0.000 C 
ATOM      6  C   UNL     1       0.916   5.816  20.334  0.00  0.00    +0.000 C 
ENDROOT
BRANCH   4   7
ATOM      7  C   UNL     1       1.252   8.997  19.111  0.00  0.00    +0.000 A 
ATOM      8  N   UNL     1       1.703   9.807  18.121  0.00  0.00    +0.000 NA
ATOM      9  C   UNL     1       1.892  11.089  18.476  0.00  0.00    +0.000 A 
ATOM     10  N   UNL     1       1.769  11.619  19.725  0.00  0.00    +0.000 NA
ATOM     11  C   UNL     1       1.046  10.803  20.591  0.00  0.00    +0.000 A 
ATOM     12  C   UNL     1       0.408   9.717  19.977  0.00  0.00    +0.000 A 
ATOM     13  O   UNL     1      -0.785  10.450  19.531  0.00  0.00    +0.000 OA
ATOM     14  C   UNL     1      -0.961  11.464  20.480  0.00  0.00    +0.000 A 
ATOM     15  C   UNL     1      -2.034  12.316  20.666  0.00  0.00    +0.000 A 
ATOM     16  C   UNL     1      -2.477  12.326  21.991  0.00  0.00    +0.000 A 
ATOM     17  C   UNL     1      -1.837  11.537  22.961  0.00  0.00    +0.000 A 
ATOM     18  C   UNL     1      -0.560  10.991  22.719  0.00  0.00    +0.000 A 
ATOM     19  C   UNL     1      -0.004  11.226  21.450  0.00  0.00    +0.000 A 
ENDBRANCH   4   7
BRANCH   1  23
ATOM     20  O   UNL     1       5.191   1.978  20.342  0.00  0.00    +0.000 OA
ATOM     21  C   UNL     1       4.131   2.558  20.382  0.00  0.00    +0.000 A 
ATOM     22  N   UNL     1       3.612   3.429  19.431  0.00  0.00    +0.000 NA
ATOM     23  C   UNL     1       2.545   3.934  19.994  0.00  0.00    +0.000 A 
ATOM     24  N   UNL     1       2.311   3.508  21.288  0.00  0.00    +0.000 N 
ATOM     25  N   UNL     1       3.234   2.468  21.436  0.00  0.00    +0.000 N 
ATOM     26  H   UNL     1       1.336   3.286  21.490  0.00  0.00    +0.000 HD
ATOM     27  H   UNL     1       3.626   2.265  22.353  0.00  0.00    +0.000 HD
ENDBRANCH   1  23
TORSDOF 2
ENDMDL
