MODEL 1
REMARK VINA RESULT:      -9.6      0.000      0.000
REMARK  Name = 
REMARK  5 active torsions:
REMARK  status: ('A' for Active; 'I' for Inactive)
REMARK    1  A    between atoms: C_1  and  C_2
REMARK    2  A    between atoms: C_5  and  C_6
REMARK    3  A    between atoms: N_8  and  C_9
REMARK    4  A    between atoms: C_13  and  O_14
REMARK    5  A    between atoms: O_14  and  C_15
REMARK                            x       y       z     vdW  Elec       q    Type
REMARK                         _______ _______ _______ _____ _____    ______ ____
ROOT
ATOM      1  C   UNL     1       2.829   4.685  18.467  0.00  0.00    +0.000 A 
ATOM      2  C   UNL     1       2.187   3.535  18.928  0.00  0.00    +0.000 A 
ATOM      3  C   UNL     1       1.311   3.571  20.017  0.00  0.00    +0.000 A 
ATOM      4  C   UNL     1       1.068   4.763  20.704  0.00  0.00    +0.000 A 
ATOM      5  C   UNL     1       1.768   5.912  20.359  0.00  0.00    +0.000 A 
ATOM      6  C   UNL     1       2.634   5.866  19.222  0.00  0.00    +0.000 A 
ENDROOT
BRANCH   1   9
ATOM      7  C   UNL     1       5.039   4.652  17.259  0.00  0.00    +0.000 C 
ATOM      8  O   UNL     1       5.743   4.576  18.263  0.00  0.00    +0.000 OA
ATOM      9  N   UNL     1       3.642   4.686  17.283  0.00  0.00    +0.000 N 
ATOM     10  H   UNL     1       3.164   4.637  16.382  0.00  0.00    +0.000 HD
BRANCH   7  15
ATOM     11  C   UNL     1       7.604   4.572  11.988  0.00  0.00    +0.000 C 
ATOM     12  C   UNL     1       6.924   4.575  13.326  0.00  0.00    +0.000 A 
ATOM     13  C   UNL     1       5.817   3.868  13.597  0.00  0.00    +0.000 A 
ATOM     14  C   UNL     1       5.222   3.933  14.921  0.00  0.00    +0.000 A 
ATOM     15  C   UNL     1       5.739   4.677  15.919  0.00  0.00    +0.000 A 
ATOM     16  C   UNL     1       6.962   5.469  15.609  0.00  0.00    +0.000 A 
ATOM     17  O   UNL     1       7.485   6.195  16.450  0.00  0.00    +0.000 OA
ATOM     18  N   UNL     1       7.473   5.352  14.328  0.00  0.00    +0.000 N 
ATOM     19  H   UNL     1       8.305   5.894  14.132  0.00  0.00    +0.000 HD
ENDBRANCH   7  15
ENDBRANCH   1   9
BRANCH   5  20
ATOM     20  O   UNL     1       1.640   7.154  20.949  0.00  0.00    +0.000 OA
BRANCH  20  21
ATOM     21  C   UNL     1       1.366   8.368  20.329  0.00  0.00    +0.000 A 
ATOM     22  C   UNL     1       1.676   8.722  19.021  0.00  0.00    +0.000 A 
ATOM     23  C   UNL     1       1.241   9.955  18.547  0.00  0.00    +0.000 A 
ATOM     24  N   UNL     1       0.513  10.836  19.262  0.00  0.00    +0.000 NA
ATOM     25  C   UNL     1       0.192  10.506  20.518  0.00  0.00    +0.000 A 
ATOM     26  C   UNL     1      -0.556  11.411  21.267  0.00  0.00    +0.000 A 
ATOM     27  C   UNL     1      -0.913  11.153  22.592  0.00  0.00    +0.000 A 
ATOM     28  C   UNL     1      -0.537   9.952  23.175  0.00  0.00    +0.000 A 
ATOM     29  C   UNL     1       0.197   9.023  22.438  0.00  0.00    +0.000 A 
ATOM     30  C   UNL     1       0.591   9.280  21.107  0.00  0.00    +0.000 A 
ENDBRANCH  20  21
ENDBRANCH   5  20
TORSDOF 4
ENDMDL
MODEL 2
REMARK VINA RESULT:      -9.5      1.777      8.483
REMARK  Name = 
REMARK  5 active torsions:
REMARK  status: ('A' for Active; 'I' for Inactive)
REMARK    1  A    between atoms: C_1  and  C_2
REMARK    2  A    between atoms: C_5  and  C_6
REMARK    3  A    between atoms: N_8  and  C_9
REMARK    4  A    between atoms: C_13  and  O_14
REMARK    5  A    between atoms: O_14  and  C_15
REMARK                            x       y       z     vdW  Elec       q    Type
REMARK                         _______ _______ _______ _____ _____    ______ ____
ROOT
ATOM      1  C   UNL     1       2.359   5.011  20.221  0.00  0.00    +0.000 A 
ATOM      2  C   UNL     1       1.657   3.808  20.138  0.00  0.00    +0.000 A 
ATOM      3  C   UNL     1       2.293   2.612  19.787  0.00  0.00    +0.000 A 
ATOM      4  C   UNL     1       3.655   2.587  19.478  0.00  0.00    +0.000 A 
ATOM      5  C   UNL     1       4.373   3.775  19.433  0.00  0.00    +0.000 A 
ATOM      6  C   UNL     1       3.717   4.983  19.827  0.00  0.00    +0.000 A 
ENDROOT
BRANCH   1   9
ATOM      7  C   UNL     1       1.796   7.460  20.039  0.00  0.00    +0.000 C 
ATOM      8  O   UNL     1       2.345   7.647  18.955  0.00  0.00    +0.000 OA
ATOM      9  N   UNL     1       1.746   6.224  20.688  0.00  0.00    +0.000 N 
ATOM     10  H   UNL     1       1.167   6.167  21.527  0.00  0.00    +0.000 HD
BRANCH   7  15
ATOM     11  C   UNL     1      -0.895  11.914  22.736  0.00  0.00    +0.000 C 
ATOM     12  C   UNL     1      -0.204  10.759  22.074  0.00  0.00    +0.000 A 
ATOM     13  C   UNL     1       0.144   9.635  22.716  0.00  0.00    +0.000 A 
ATOM     14  C   UNL     1       0.816   8.567  21.995  0.00  0.00    +0.000 A 
ATOM     15  C   UNL     1       1.108   8.643  20.681  0.00  0.00    +0.000 A 
ATOM     16  C   UNL     1       0.730   9.898  19.976  0.00  0.00    +0.000 A 
ATOM     17  O   UNL     1       0.981  10.065  18.785  0.00  0.00    +0.000 OA
ATOM     18  N   UNL     1       0.089  10.868  20.727  0.00  0.00    +0.000 N 
ATOM     19  H   UNL     1      -0.164  11.715  20.235  0.00  0.00    +0.000 HD
ENDBRANCH   7  15
ENDBRANCH   1   9
BRANCH   5  20
ATOM     20  O   UNL     1       5.716   3.906  19.137  0.00  0.00    +0.000 OA
BRANCH  20  21
ATOM     21  C   UNL     1       6.330   4.897  18.382  0.00  0.00    +0.000 A 
ATOM     22  C   UNL     1       7.037   5.993  18.865  0.00  0.00    +0.000 A 
ATOM     23  C   UNL     1       7.662   6.834  17.952  0.00  0.00    +0.000 A 
ATOM     24  N   UNL     1       7.652   6.655  16.615  0.00  0.00    +0.000 NA
ATOM     25  C   UNL     1       6.990   5.598  16.133  0.00  0.00    +0.000 A 
ATOM     26  C   UNL     1       6.971   5.405  14.754  0.00  0.00    +0.000 A 
ATOM     27  C   UNL     1       6.284   4.341  14.169  0.00  0.00    +0.000 A 
ATOM     28  C   UNL     1       5.622   3.430  14.980  0.00  0.00    +0.000 A 
ATOM     29  C   UNL     1       5.644   3.593  16.365  0.00  0.00    +0.000 A 
ATOM     30  C   UNL     1       6.310   4.680  16.972  0.00  0.00    +0.000 A 
ENDBRANCH  20  21
ENDBRANCH   5  20
TORSDOF 4
ENDMDL
MODEL 3
REMARK VINA RESULT:      -9.4      1.912      8.205
REMARK  Name = 
REMARK  5 active torsions:
REMARK  status: ('A' for Active; 'I' for Inactive)
REMARK    1  A    between atoms: C_1  and  C_2
REMARK    2  A    between atoms: C_5  and  C_6
REMARK    3  A    between atoms: N_8  and  C_9
REMARK    4  A    between atoms: C_13  and  O_14
REMARK    5  A    between atoms: O_14  and  C_15
REMARK                            x       y       z     vdW  Elec       q    Type
REMARK                         _______ _______ _______ _____ _____    ______ ____
ROOT
ATOM      1  C   UNL     1       2.212   5.415  20.320  0.00  0.00    +0.000 A 
ATOM      2  C   UNL     1       1.401   4.327  20.646  0.00  0.00    +0.000 A 
ATOM      3  C   UNL     1       1.874   3.013  20.571  0.00  0.00    +0.000 A 
ATOM      4  C   UNL     1       3.174   2.742  20.136  0.00  0.00    +0.000 A 
ATOM      5  C   UNL     1       3.982   3.779  19.690  0.00  0.00    +0.000 A 
ATOM      6  C   UNL     1       3.496   5.119  19.805  0.00  0.00    +0.000 A 
ENDROOT
BRANCH   1   9
ATOM      7  C   UNL     1       1.825   7.774  19.525  0.00  0.00    +0.000 C 
ATOM      8  O   UNL     1       2.211   7.596  18.372  0.00  0.00    +0.000 OA
ATOM      9  N   UNL     1       1.779   6.773  20.499  0.00  0.00    +0.000 N 
ATOM     10  H   UNL     1       1.335   7.014  21.386  0.00  0.00    +0.000 HD
BRANCH   7  15
ATOM     11  C   UNL     1      -0.008  13.216  20.704  0.00  0.00    +0.000 C 
ATOM     12  C   UNL     1       0.460  11.830  20.371  0.00  0.00    +0.000 A 
ATOM     13  C   UNL     1       0.728  11.416  19.125  0.00  0.00    +0.000 A 
ATOM     14  C   UNL     1       1.172  10.052  18.893  0.00  0.00    +0.000 A 
ATOM     15  C   UNL     1       1.343   9.160  19.889  0.00  0.00    +0.000 A 
ATOM     16  C   UNL     1       1.034   9.622  21.271  0.00  0.00    +0.000 A 
ATOM     17  O   UNL     1       1.136   8.869  22.236  0.00  0.00    +0.000 OA
ATOM     18  N   UNL     1       0.619  10.935  21.413  0.00  0.00    +0.000 N 
ATOM     19  H   UNL     1       0.415  11.236  22.357  0.00  0.00    +0.000 HD
ENDBRANCH   7  15
ENDBRANCH   1   9
BRANCH   5  20
ATOM     20  O   UNL     1       5.279   3.663  19.229  0.00  0.00    +0.000 OA
BRANCH  20  21
ATOM     21  C   UNL     1       6.063   4.643  18.632  0.00  0.00    +0.000 A 
ATOM     22  C   UNL     1       6.890   5.554  19.280  0.00  0.00    +0.000 A 
ATOM     23  C   UNL     1       7.671   6.406  18.507  0.00  0.00    +0.000 A 
ATOM     24  N   UNL     1       7.705   6.402  17.159  0.00  0.00    +0.000 NA
ATOM     25  C   UNL     1       6.927   5.522  16.519  0.00  0.00    +0.000 A 
ATOM     26  C   UNL     1       6.950   5.512  15.127  0.00  0.00    +0.000 A 
ATOM     27  C   UNL     1       6.152   4.642  14.383  0.00  0.00    +0.000 A 
ATOM     28  C   UNL     1       5.330   3.741  15.044  0.00  0.00    +0.000 A 
ATOM     29  C   UNL     1       5.304   3.720  16.438  0.00  0.00    +0.000 A 
ATOM     30  C   UNL     1       6.083   4.613  17.206  0.00  0.00    +0.000 A 
ENDBRANCH  20  21
ENDBRANCH   5  20
TORSDOF 4
ENDMDL
MODEL 4
REMARK VINA RESULT:      -9.3      5.079      7.319
REMARK  Name = 
REMARK  5 active torsions:
REMARK  status: ('A' for Active; 'I' for Inactive)
REMARK    1  A    between atoms: C_1  and  C_2
REMARK    2  A    between atoms: C_5  and  C_6
REMARK    3  A    between atoms: N_8  and  C_9
REMARK    4  A    between atoms: C_13  and  O_14
REMARK    5  A    between atoms: O_14  and  C_15
REMARK                            x       y       z     vdW  Elec       q    Type
REMARK                         _______ _______ _______ _____ _____    ______ ____
ROOT
ATOM      1  C   UNL     1       7.742   7.907  17.995  0.00  0.00    +0.000 A 
ATOM      2  C   UNL     1       8.409   6.963  18.777  0.00  0.00    +0.000 A 
ATOM      3  C   UNL     1       7.900   5.673  18.961  0.00  0.00    +0.000 A 
ATOM      4  C   UNL     1       6.684   5.293  18.388  0.00  0.00    +0.000 A 
ATOM      5  C   UNL     1       5.925   6.229  17.699  0.00  0.00    +0.000 A 
ATOM      6  C   UNL     1       6.475   7.532  17.491  0.00  0.00    +0.000 A 
ENDROOT
BRANCH   1   9
ATOM      7  C   UNL     1       8.978  10.012  18.619  0.00  0.00    +0.000 C 
ATOM      8  O   UNL     1       9.204   9.698  19.785  0.00  0.00    +0.000 OA
ATOM      9  N   UNL     1       8.306   9.196  17.705  0.00  0.00    +0.000 N 
ATOM     10  H   UNL     1       8.276   9.517  16.736  0.00  0.00    +0.000 HD
BRANCH   7  15
ATOM     11  C   UNL     1      11.195  15.159  16.900  0.00  0.00    +0.000 C 
ATOM     12  C   UNL     1      10.656  13.832  17.348  0.00  0.00    +0.000 A 
ATOM     13  C   UNL     1      11.404  12.889  17.938  0.00  0.00    +0.000 A 
ATOM     14  C   UNL     1      10.800  11.629  18.335  0.00  0.00    +0.000 A 
ATOM     15  C   UNL     1       9.494  11.352  18.148  0.00  0.00    +0.000 A 
ATOM     16  C   UNL     1       8.671  12.400  17.483  0.00  0.00    +0.000 A 
ATOM     17  O   UNL     1       7.478  12.224  17.248  0.00  0.00    +0.000 OA
ATOM     18  N   UNL     1       9.315  13.574  17.136  0.00  0.00    +0.000 N 
ATOM     19  H   UNL     1       8.743  14.278  16.687  0.00  0.00    +0.000 HD
ENDBRANCH   7  15
ENDBRANCH   1   9
BRANCH   5  20
ATOM     20  O   UNL     1       4.707   6.002  17.088  0.00  0.00    +0.000 OA
BRANCH  20  21
ATOM     21  C   UNL     1       3.791   4.992  17.360  0.00  0.00    +0.000 A 
ATOM     22  C   UNL     1       3.694   3.762  16.719  0.00  0.00    +0.000 A 
ATOM     23  C   UNL     1       2.769   2.839  17.191  0.00  0.00    +0.000 A 
ATOM     24  N   UNL     1       1.961   3.039  18.252  0.00  0.00    +0.000 NA
ATOM     25  C   UNL     1       2.051   4.211  18.892  0.00  0.00    +0.000 A 
ATOM     26  C   UNL     1       1.219   4.430  19.987  0.00  0.00    +0.000 A 
ATOM     27  C   UNL     1       1.233   5.632  20.693  0.00  0.00    +0.000 A 
ATOM     28  C   UNL     1       2.119   6.632  20.317  0.00  0.00    +0.000 A 
ATOM     29  C   UNL     1       2.975   6.427  19.235  0.00  0.00    +0.000 A 
ATOM     30  C   UNL     1       2.953   5.228  18.490  0.00  0.00    +0.000 A 
ENDBRANCH  20  21
ENDBRANCH   5  20
TORSDOF 4
ENDMDL
MODEL 5
REMARK VINA RESULT:      -9.3      1.882      8.179
REMARK  Name = 
REMARK  5 active torsions:
REMARK  status: ('A' for Active; 'I' for Inactive)
REMARK    1  A    between atoms: C_1  and  C_2
REMARK    2  A    between atoms: C_5  and  C_6
REMARK    3  A    between atoms: N_8  and  C_9
REMARK    4  A    between atoms: C_13  and  O_14
REMARK    5  A    between atoms: O_14  and  C_15
REMARK                            x       y       z     vdW  Elec       q    Type
REMARK                         _______ _______ _______ _____ _____    ______ ____
ROOT
ATOM      1  C   UNL     1       2.086   5.988  19.789  0.00  0.00    +0.000 A 
ATOM      2  C   UNL     1       1.275   5.116  20.516  0.00  0.00    +0.000 A 
ATOM      3  C   UNL     1       1.732   3.857  20.920  0.00  0.00    +0.000 A 
ATOM      4  C   UNL     1       3.014   3.416  20.582  0.00  0.00    +0.000 A 
ATOM      5  C   UNL     1       3.818   4.198  19.763  0.00  0.00    +0.000 A 
ATOM      6  C   UNL     1       3.349   5.495  19.387  0.00  0.00    +0.000 A 
ENDROOT
BRANCH   1   9
ATOM      7  C   UNL     1       1.407   8.339  20.389  0.00  0.00    +0.000 C 
ATOM      8  O   UNL     1       1.538   8.214  21.604  0.00  0.00    +0.000 OA
ATOM      9  N   UNL     1       1.672   7.325  19.465  0.00  0.00    +0.000 N 
ATOM     10  H   UNL     1       1.635   7.581  18.477  0.00  0.00    +0.000 HD
BRANCH   7  15
ATOM     11  C   UNL     1      -0.437  13.609  18.604  0.00  0.00    +0.000 C 
ATOM     12  C   UNL     1       0.025  12.267  19.090  0.00  0.00    +0.000 A 
ATOM     13  C   UNL     1      -0.176  11.821  20.338  0.00  0.00    +0.000 A 
ATOM     14  C   UNL     1       0.311  10.507  20.725  0.00  0.00    +0.000 A 
ATOM     15  C   UNL     1       0.962   9.689  19.874  0.00  0.00    +0.000 A 
ATOM     16  C   UNL     1       1.192  10.195  18.492  0.00  0.00    +0.000 A 
ATOM     17  O   UNL     1       1.799   9.528  17.659  0.00  0.00    +0.000 OA
ATOM     18  N   UNL     1       0.696  11.453  18.197  0.00  0.00    +0.000 N 
ATOM     19  H   UNL     1       0.857  11.783  17.254  0.00  0.00    +0.000 HD
ENDBRANCH   7  15
ENDBRANCH   1   9
BRANCH   5  20
ATOM     20  O   UNL     1       5.098   3.892  19.342  0.00  0.00    +0.000 OA
BRANCH  20  21
ATOM     21  C   UNL     1       6.009   4.727  18.707  0.00  0.00    +0.000 A 
ATOM     22  C   UNL     1       6.943   5.556  19.318  0.00  0.00    +0.000 A 
ATOM     23  C   UNL     1       7.836   6.254  18.514  0.00  0.00    +0.000 A 
ATOM     24  N   UNL     1       7.882   6.171  17.168  0.00  0.00    +0.000 NA
ATOM     25  C   UNL     1       7.001   5.366  16.564  0.00  0.00    +0.000 A 
ATOM     26  C   UNL     1       7.036   5.276  15.175  0.00  0.00    +0.000 A 
ATOM     27  C   UNL     1       6.137   4.478  14.466  0.00  0.00    +0.000 A 
ATOM     28  C   UNL     1       5.197   3.730  15.161  0.00  0.00    +0.000 A 
ATOM     29  C   UNL     1       5.156   3.790  16.554  0.00  0.00    +0.000 A 
ATOM     30  C   UNL     1       6.039   4.615  17.285  0.00  0.00    +0.000 A 
ENDBRANCH  20  21
ENDBRANCH   5  20
TORSDOF 4
ENDMDL
MODEL 6
REMARK VINA RESULT:      -9.2      2.028      7.775
REMARK  Name = 
REMARK  5 active torsions:
REMARK  status: ('A' for Active; 'I' for Inactive)
REMARK    1  A    between atoms: C_1  and  C_2
REMARK    2  A    between atoms: C_5  and  C_6
REMARK    3  A    between atoms: N_8  and  C_9
REMARK    4  A    between atoms: C_13  and  O_14
REMARK    5  A    between atoms: O_14  and  C_15
REMARK                            x       y       z     vdW  Elec       q    Type
REMARK                         _______ _______ _______ _____ _____    ______ ____
ROOT
ATOM      1  C   UNL     1       2.373   5.163  20.523  0.00  0.00    +0.000 A 
ATOM      2  C   UNL     1       1.897   4.112  21.308  0.00  0.00    +0.000 A 
ATOM      3  C   UNL     1       2.478   2.840  21.260  0.00  0.00    +0.000 A 
ATOM      4  C   UNL     1       3.544   2.570  20.399  0.00  0.00    +0.000 A 
ATOM      5  C   UNL     1       3.980   3.548  19.514  0.00  0.00    +0.000 A 
ATOM      6  C   UNL     1       3.399   4.851  19.600  0.00  0.00    +0.000 A 
ENDROOT
BRANCH   1   9
ATOM      7  C   UNL     1       1.935   7.487  19.657  0.00  0.00    +0.000 C 
ATOM      8  O   UNL     1       2.416   7.311  18.540  0.00  0.00    +0.000 OA
ATOM      9  N   UNL     1       1.862   6.500  20.643  0.00  0.00    +0.000 N 
ATOM     10  H   UNL     1       1.340   6.731  21.490  0.00  0.00    +0.000 HD
BRANCH   7  15
ATOM     11  C   UNL     1      -0.281  12.835  20.581  0.00  0.00    +0.000 C 
ATOM     12  C   UNL     1       0.283  11.470  20.313  0.00  0.00    +0.000 A 
ATOM     13  C   UNL     1       0.514  10.992  19.083  0.00  0.00    +0.000 A 
ATOM     14  C   UNL     1       1.058   9.655  18.916  0.00  0.00    +0.000 A 
ATOM     15  C   UNL     1       1.359   8.852  19.957  0.00  0.00    +0.000 A 
ATOM     16  C   UNL     1       1.089   9.386  21.321  0.00  0.00    +0.000 A 
ATOM     17  O   UNL     1       1.308   8.714  22.326  0.00  0.00    +0.000 OA
ATOM     18  N   UNL     1       0.575  10.668  21.400  0.00  0.00    +0.000 N 
ATOM     19  H   UNL     1       0.399  11.018  22.333  0.00  0.00    +0.000 HD
ENDBRANCH   7  15
ENDBRANCH   1   9
BRANCH   5  20
ATOM     20  O   UNL     1       5.012   3.424  18.605  0.00  0.00    +0.000 OA
BRANCH  20  21
ATOM     21  C   UNL     1       5.344   4.289  17.569  0.00  0.00    +0.000 A 
ATOM     22  C   UNL     1       4.757   4.342  16.310  0.00  0.00    +0.000 A 
ATOM     23  C   UNL     1       5.163   5.340  15.431  0.00  0.00    +0.000 A 
ATOM     24  N   UNL     1       6.080   6.286  15.717  0.00  0.00    +0.000 NA
ATOM     25  C   UNL     1       6.645   6.260  16.929  0.00  0.00    +0.000 A 
ATOM     26  C   UNL     1       7.597   7.230  17.234  0.00  0.00    +0.000 A 
ATOM     27  C   UNL     1       8.250   7.258  18.466  0.00  0.00    +0.000 A 
ATOM     28  C   UNL     1       7.927   6.313  19.429  0.00  0.00    +0.000 A 
ATOM     29  C   UNL     1       6.963   5.344  19.153  0.00  0.00    +0.000 A 
ATOM     30  C   UNL     1       6.314   5.282  17.900  0.00  0.00    +0.000 A 
ENDBRANCH  20  21
ENDBRANCH   5  20
TORSDOF 4
ENDMDL
MODEL 7
REMARK VINA RESULT:      -9.2      1.954      7.993
REMARK  Name = 
REMARK  5 active torsions:
REMARK  status: ('A' for Active; 'I' for Inactive)
REMARK    1  A    between atoms: C_1  and  C_2
REMARK    2  A    between atoms: C_5  and  C_6
REMARK    3  A    between atoms: N_8  and  C_9
REMARK    4  A    between atoms: C_13  and  O_14
REMARK    5  A    between atoms: O_14  and  C_15
REMARK                            x       y       z     vdW  Elec       q    Type
REMARK                         _______ _______ _______ _____ _____    ______ ____
ROOT
ATOM      1  C   UNL     1       1.807   4.795  20.227  0.00  0.00    +0.000 A 
ATOM      2  C   UNL     1       1.129   3.603  20.485  0.00  0.00    +0.000 A 
ATOM      3  C   UNL     1       1.694   2.359  20.186  0.00  0.00    +0.000 A 
ATOM      4  C   UNL     1       2.954   2.268  19.588  0.00  0.00    +0.000 A 
ATOM      5  C   UNL     1       3.620   3.425  19.206  0.00  0.00    +0.000 A 
ATOM      6  C   UNL     1       3.044   4.688  19.549  0.00  0.00    +0.000 A 
ENDROOT
BRANCH   1   9
ATOM      7  C   UNL     1       1.739   7.313  20.168  0.00  0.00    +0.000 C 
ATOM      8  O   UNL     1       2.615   7.454  19.319  0.00  0.00    +0.000 OA
ATOM      9  N   UNL     1       1.289   6.073  20.630  0.00  0.00    +0.000 N 
ATOM     10  H   UNL     1       0.480   6.079  21.253  0.00  0.00    +0.000 HD
BRANCH   7  15
ATOM     11  C   UNL     1      -0.776  12.065  22.504  0.00  0.00    +0.000 C 
ATOM     12  C   UNL     1      -0.127  10.837  21.935  0.00  0.00    +0.000 A 
ATOM     13  C   UNL     1       0.282   9.801  22.681  0.00  0.00    +0.000 A 
ATOM     14  C   UNL     1       0.906   8.653  22.046  0.00  0.00    +0.000 A 
ATOM     15  C   UNL     1       1.092   8.565  20.714  0.00  0.00    +0.000 A 
ATOM     16  C   UNL     1       0.645   9.724  19.892  0.00  0.00    +0.000 A 
ATOM     17  O   UNL     1       0.799   9.742  18.673  0.00  0.00    +0.000 OA
ATOM     18  N   UNL     1       0.057  10.779  20.567  0.00  0.00    +0.000 N 
ATOM     19  H   UNL     1      -0.244  11.558  19.996  0.00  0.00    +0.000 HD
ENDBRANCH   7  15
ENDBRANCH   1   9
BRANCH   5  20
ATOM     20  O   UNL     1       4.861   3.490  18.603  0.00  0.00    +0.000 OA
BRANCH  20  21
ATOM     21  C   UNL     1       5.259   4.316  17.558  0.00  0.00    +0.000 A 
ATOM     22  C   UNL     1       4.723   4.353  16.276  0.00  0.00    +0.000 A 
ATOM     23  C   UNL     1       5.193   5.313  15.388  0.00  0.00    +0.000 A 
ATOM     24  N   UNL     1       6.127   6.239  15.685  0.00  0.00    +0.000 NA
ATOM     25  C   UNL     1       6.643   6.229  16.919  0.00  0.00    +0.000 A 
ATOM     26  C   UNL     1       7.612   7.179  17.236  0.00  0.00    +0.000 A 
ATOM     27  C   UNL     1       8.217   7.222  18.492  0.00  0.00    +0.000 A 
ATOM     28  C   UNL     1       7.829   6.313  19.466  0.00  0.00    +0.000 A 
ATOM     29  C   UNL     1       6.847   5.365  19.177  0.00  0.00    +0.000 A 
ATOM     30  C   UNL     1       6.245   5.289  17.902  0.00  0.00    +0.000 A 
ENDBRANCH  20  21
ENDBRANCH   5  20
TORSDOF 4
ENDMDL
MODEL 8
REMARK VINA RESULT:      -9.2      3.170      9.902
REMARK  Name = 
REMARK  5 active torsions:
REMARK  status: ('A' for Active; 'I' for Inactive)
REMARK    1  A    between atoms: C_1  and  C_2
REMARK    2  A    between atoms: C_5  and  C_6
REMARK    3  A    between atoms: N_8  and  C_9
REMARK    4  A    between atoms: C_13  and  O_14
REMARK    5  A    between atoms: O_14  and  C_15
REMARK                            x       y       z     vdW  Elec       q    Type
REMARK                         _______ _______ _______ _____ _____    ______ ____
ROOT
ATOM      1  C   UNL     1       0.576   9.634  19.517  0.00  0.00    +0.000 A 
ATOM      2  C   UNL     1       1.111  10.071  18.304  0.00  0.00    +0.000 A 
ATOM      3  C   UNL     1       2.098   9.341  17.634  0.00  0.00    +0.000 A 
ATOM      4  C   UNL     1       2.604   8.156  18.173  0.00  0.00    +0.000 A 
ATOM      5  C   UNL     1       2.189   7.738  19.430  0.00  0.00    +0.000 A 
ATOM      6  C   UNL     1       1.156   8.477  20.087  0.00  0.00    +0.000 A 
ENDROOT
BRANCH   1   9
ATOM      7  C   UNL     1      -0.398  11.208  21.226  0.00  0.00    +0.000 C 
ATOM      8  O   UNL     1       0.674  11.557  21.717  0.00  0.00    +0.000 OA
ATOM      9  N   UNL     1      -0.515  10.312  20.160  0.00  0.00    +0.000 N 
ATOM     10  H   UNL     1      -1.448  10.186  19.765  0.00  0.00    +0.000 HD
BRANCH   7  15
ATOM     11  C   UNL     1      -5.225  13.475  23.658  0.00  0.00    +0.000 C 
ATOM     12  C   UNL     1      -3.979  12.886  23.064  0.00  0.00    +0.000 A 
ATOM     13  C   UNL     1      -3.065  12.212  23.776  0.00  0.00    +0.000 A 
ATOM     14  C   UNL     1      -1.884  11.679  23.119  0.00  0.00    +0.000 A 
ATOM     15  C   UNL     1      -1.656  11.821  21.798  0.00  0.00    +0.000 A 
ATOM     16  C   UNL     1      -2.669  12.580  21.015  0.00  0.00    +0.000 A 
ATOM     17  O   UNL     1      -2.530  12.781  19.811  0.00  0.00    +0.000 OA
ATOM     18  N   UNL     1      -3.769  13.054  21.709  0.00  0.00    +0.000 N 
ATOM     19  H   UNL     1      -4.451  13.566  21.164  0.00  0.00    +0.000 HD
ENDBRANCH   7  15
ENDBRANCH   1   9
BRANCH   5  20
ATOM     20  O   UNL     1       2.605   6.598  20.090  0.00  0.00    +0.000 OA
BRANCH  20  21
ATOM     21  C   UNL     1       3.380   5.558  19.591  0.00  0.00    +0.000 A 
ATOM     22  C   UNL     1       4.750   5.582  19.352  0.00  0.00    +0.000 A 
ATOM     23  C   UNL     1       5.370   4.411  18.934  0.00  0.00    +0.000 A 
ATOM     24  N   UNL     1       4.741   3.231  18.759  0.00  0.00    +0.000 NA
ATOM     25  C   UNL     1       3.426   3.185  18.999  0.00  0.00    +0.000 A 
ATOM     26  C   UNL     1       2.765   1.972  18.819  0.00  0.00    +0.000 A 
ATOM     27  C   UNL     1       1.391   1.845  19.024  0.00  0.00    +0.000 A 
ATOM     28  C   UNL     1       0.662   2.947  19.447  0.00  0.00    +0.000 A 
ATOM     29  C   UNL     1       1.306   4.167  19.652  0.00  0.00    +0.000 A 
ATOM     30  C   UNL     1       2.690   4.321  19.420  0.00  0.00    +0.000 A 
ENDBRANCH  20  21
ENDBRANCH   5  20
TORSDOF 4
ENDMDL
MODEL 9
REMARK VINA RESULT:      -9.2      3.208      5.228
REMARK  Name = 
REMARK  5 active torsions:
REMARK  status: ('A' for Active; 'I' for Inactive)
REMARK    1  A    between atoms: C_1  and  C_2
REMARK    2  A    between atoms: C_5  and  C_6
REMARK    3  A    between atoms: N_8  and  C_9
REMARK    4  A    between atoms: C_13  and  O_14
REMARK    5  A    between atoms: O_14  and  C_15
REMARK                            x       y       z     vdW  Elec       q    Type
REMARK                         _______ _______ _______ _____ _____    ______ ____
ROOT
ATOM      1  C   UNL     1       1.355   8.589  20.354  0.00  0.00    +0.000 A 
ATOM      2  C   UNL     1       1.172   8.469  21.732  0.00  0.00    +0.000 A 
ATOM      3  C   UNL     1       0.307   9.316  22.433  0.00  0.00    +0.000 A 
ATOM      4  C   UNL     1      -0.387  10.336  21.776  0.00  0.00    +0.000 A 
ATOM      5  C   UNL     1      -0.152  10.571  20.428  0.00  0.00    +0.000 A 
ATOM      6  C   UNL     1       0.709   9.676  19.720  0.00  0.00    +0.000 A 
ENDROOT
BRANCH   1   9
ATOM      7  C   UNL     1       2.601   7.846  18.295  0.00  0.00    +0.000 C 
ATOM      8  O   UNL     1       2.398   8.864  17.637  0.00  0.00    +0.000 OA
ATOM      9  N   UNL     1       2.152   7.658  19.604  0.00  0.00    +0.000 N 
ATOM     10  H   UNL     1       2.477   6.819  20.088  0.00  0.00    +0.000 HD
BRANCH   7  15
ATOM     11  C   UNL     1       5.893   3.774  15.659  0.00  0.00    +0.000 C 
ATOM     12  C   UNL     1       5.070   4.839  16.323  0.00  0.00    +0.000 A 
ATOM     13  C   UNL     1       5.314   6.151  16.198  0.00  0.00    +0.000 A 
ATOM     14  C   UNL     1       4.467   7.114  16.882  0.00  0.00    +0.000 A 
ATOM     15  C   UNL     1       3.418   6.751  17.647  0.00  0.00    +0.000 A 
ATOM     16  C   UNL     1       3.159   5.292  17.791  0.00  0.00    +0.000 A 
ATOM     17  O   UNL     1       2.241   4.870  18.490  0.00  0.00    +0.000 OA
ATOM     18  N   UNL     1       4.005   4.437  17.107  0.00  0.00    +0.000 N 
ATOM     19  H   UNL     1       3.816   3.448  17.212  0.00  0.00    +0.000 HD
ENDBRANCH   7  15
ENDBRANCH   1   9
BRANCH   5  20
ATOM     20  O   UNL     1      -0.755  11.542  19.652  0.00  0.00    +0.000 OA
BRANCH  20  21
ATOM     21  C   UNL     1      -2.114  11.794  19.504  0.00  0.00    +0.000 A 
ATOM     22  C   UNL     1      -2.930  12.495  20.385  0.00  0.00    +0.000 A 
ATOM     23  C   UNL     1      -4.253  12.724  20.024  0.00  0.00    +0.000 A 
ATOM     24  N   UNL     1      -4.807  12.332  18.858  0.00  0.00    +0.000 NA
ATOM     25  C   UNL     1      -4.033  11.670  17.992  0.00  0.00    +0.000 A 
ATOM     26  C   UNL     1      -4.596  11.257  16.787  0.00  0.00    +0.000 A 
ATOM     27  C   UNL     1      -3.864  10.541  15.839  0.00  0.00    +0.000 A 
ATOM     28  C   UNL     1      -2.529  10.253  16.086  0.00  0.00    +0.000 A 
ATOM     29  C   UNL     1      -1.939  10.673  17.278  0.00  0.00    +0.000 A 
ATOM     30  C   UNL     1      -2.673  11.373  18.261  0.00  0.00    +0.000 A 
ENDBRANCH  20  21
ENDBRANCH   5  20
TORSDOF 4
ENDMDL
