MODEL 1
REMARK VINA RESULT:      -7.5      0.000      0.000
REMARK  Name = 
REMARK  5 active torsions:
REMARK  status: ('A' for Active; 'I' for Inactive)
REMARK    1  A    between atoms: C_1  and  C_2
REMARK    2  A    between atoms: C_2  and  N_3
REMARK    3  A    between atoms: C_6  and  C_8
REMARK    4  A    between atoms: N_11  and  C_12
REMARK    5  A    between atoms: C_19  and  C_20
REMARK                            x       y       z     vdW  Elec       q    Type
REMARK                         _______ _______ _______ _____ _____    ______ ____
ROOT
ATOM      1  N   UNL     1       2.613   6.863  19.265  0.00  0.00    +0.000 N 
ATOM      2  C   UNL     1       1.847   6.933  20.408  0.00  0.00    +0.000 A 
ATOM      3  N   UNL     1       1.482   8.128  20.987  0.00  0.00    +0.000 N 
ATOM      4  C   UNL     1       0.171   8.313  21.400  0.00  0.00    +0.000 C 
ATOM      5  O   UNL     1      -0.714   7.479  21.262  0.00  0.00    +0.000 OA
ATOM      6  N   UNL     1       1.536   5.732  20.838  0.00  0.00    +0.000 NA
ATOM      7  C   UNL     1       2.122   4.853  19.964  0.00  0.00    +0.000 A 
ATOM      8  C   UNL     1       2.088   3.455  19.954  0.00  0.00    +0.000 A 
ATOM      9  C   UNL     1       2.738   2.796  18.911  0.00  0.00    +0.000 A 
ATOM     10  F   UNL     1       2.714   1.456  18.872  0.00  0.00    +0.000 F 
ATOM     11  C   UNL     1       3.416   3.487  17.909  0.00  0.00    +0.000 A 
ATOM     12  C   UNL     1       3.474   4.880  17.914  0.00  0.00    +0.000 A 
ATOM     13  C   UNL     1       2.811   5.533  18.964  0.00  0.00    +0.000 A 
ATOM     14  H   UNL     1       2.088   8.920  20.860  0.00  0.00    +0.000 HD
ENDROOT
BRANCH   4  15
ATOM     15  C   UNL     1      -0.132   9.672  21.879  0.00  0.00    +0.000 A 
ATOM     16  C   UNL     1      -0.493  10.085  23.179  0.00  0.00    +0.000 A 
ATOM     17  N   UNL     1      -0.605  11.400  23.304  0.00  0.00    +0.000 NA
ATOM     18  N   UNL     1      -0.351  11.895  22.064  0.00  0.00    +0.000 N 
ATOM     19  C   UNL     1      -0.081  10.870  21.164  0.00  0.00    +0.000 A 
BRANCH  18  20
ATOM     20  C   UNL     1      -0.446  13.302  21.797  0.00  0.00    +0.000 A 
ATOM     21  N   UNL     1       0.603  14.073  22.209  0.00  0.00    +0.000 NA
ATOM     22  C   UNL     1       0.581  15.393  21.922  0.00  0.00    +0.000 A 
ATOM     23  C   UNL     1      -0.464  16.009  21.268  0.00  0.00    +0.000 A 
ATOM     24  C   UNL     1      -1.552  15.228  20.891  0.00  0.00    +0.000 A 
ATOM     25  C   UNL     1      -1.558  13.853  21.147  0.00  0.00    +0.000 A 
ATOM     26 CL   UNL     1      -3.030  13.024  20.780  0.00  0.00    +0.000 Cl
ENDBRANCH  18  20
BRANCH  19  27
ATOM     27  C   UNL     1       0.212  11.162  19.739  0.00  0.00    +0.000 C 
ATOM     28  F   UNL     1       1.514  10.977  19.408  0.00  0.00    +0.000 F 
ATOM     29  F   UNL     1      -0.506  10.342  18.924  0.00  0.00    +0.000 F 
ENDBRANCH  19  27
ENDBRANCH   4  15
BRANCH   1  31
ATOM     30  C   UNL     1       1.664   8.371  17.546  0.00  0.00    +0.000 C 
ATOM     31  C   UNL     1       2.879   7.962  18.357  0.00  0.00    +0.000 C 
ENDBRANCH   1  31
TORSDOF 4
ENDMDL
MODEL 2
REMARK VINA RESULT:      -7.5      7.074     10.797
REMARK  Name = 
REMARK  5 active torsions:
REMARK  status: ('A' for Active; 'I' for Inactive)
REMARK    1  A    between atoms: C_1  and  C_2
REMARK    2  A    between atoms: C_2  and  N_3
REMARK    3  A    between atoms: C_6  and  C_8
REMARK    4  A    between atoms: N_11  and  C_12
REMARK    5  A    between atoms: C_19  and  C_20
REMARK                            x       y       z     vdW  Elec       q    Type
REMARK                         _______ _______ _______ _____ _____    ______ ____
ROOT
ATOM      1  N   UNL     1       9.545  10.994  19.980  0.00  0.00    +0.000 N 
ATOM      2  C   UNL     1       9.457  10.155  18.891  0.00  0.00    +0.000 A 
ATOM      3  N   UNL     1       8.955   8.875  18.977  0.00  0.00    +0.000 N 
ATOM      4  C   UNL     1       8.050   8.432  18.023  0.00  0.00    +0.000 C 
ATOM      5  O   UNL     1       7.636   9.121  17.101  0.00  0.00    +0.000 OA
ATOM      6  N   UNL     1       9.909  10.742  17.808  0.00  0.00    +0.000 NA
ATOM      7  C   UNL     1      10.315  11.993  18.197  0.00  0.00    +0.000 A 
ATOM      8  C   UNL     1      10.857  13.030  17.430  0.00  0.00    +0.000 A 
ATOM      9  C   UNL     1      11.143  14.233  18.073  0.00  0.00    +0.000 A 
ATOM     10  F   UNL     1      11.655  15.247  17.361  0.00  0.00    +0.000 F 
ATOM     11  C   UNL     1      10.917  14.415  19.436  0.00  0.00    +0.000 A 
ATOM     12  C   UNL     1      10.393  13.386  20.217  0.00  0.00    +0.000 A 
ATOM     13  C   UNL     1      10.103  12.182  19.559  0.00  0.00    +0.000 A 
ATOM     14  H   UNL     1       9.044   8.390  19.852  0.00  0.00    +0.000 HD
ENDROOT
BRANCH   4  15
ATOM     15  C   UNL     1       7.483   7.101  18.293  0.00  0.00    +0.000 A 
ATOM     16  C   UNL     1       8.049   6.037  19.027  0.00  0.00    +0.000 A 
ATOM     17  N   UNL     1       7.237   4.999  19.166  0.00  0.00    +0.000 NA
ATOM     18  N   UNL     1       6.110   5.340  18.489  0.00  0.00    +0.000 N 
ATOM     19  C   UNL     1       6.231   6.605  17.923  0.00  0.00    +0.000 A 
BRANCH  18  20
ATOM     20  C   UNL     1       5.015   4.420  18.364  0.00  0.00    +0.000 A 
ATOM     21  N   UNL     1       4.210   4.278  19.458  0.00  0.00    +0.000 NA
ATOM     22  C   UNL     1       3.133   3.468  19.361  0.00  0.00    +0.000 A 
ATOM     23  C   UNL     1       2.826   2.747  18.227  0.00  0.00    +0.000 A 
ATOM     24  C   UNL     1       3.675   2.858  17.130  0.00  0.00    +0.000 A 
ATOM     25  C   UNL     1       4.788   3.705  17.180  0.00  0.00    +0.000 A 
ATOM     26 CL   UNL     1       5.852   3.633  15.821  0.00  0.00    +0.000 Cl
ENDBRANCH  18  20
BRANCH  19  27
ATOM     27  C   UNL     1       5.131   7.192  17.120  0.00  0.00    +0.000 C 
ATOM     28  F   UNL     1       5.004   6.632  15.891  0.00  0.00    +0.000 F 
ATOM     29  F   UNL     1       3.934   7.014  17.742  0.00  0.00    +0.000 F 
ENDBRANCH  19  27
ENDBRANCH   4  15
BRANCH   1  31
ATOM     30  C   UNL     1       8.669  12.096  22.016  0.00  0.00    +0.000 C 
ATOM     31  C   UNL     1       8.874  10.803  21.251  0.00  0.00    +0.000 C 
ENDBRANCH   1  31
TORSDOF 4
ENDMDL
MODEL 3
REMARK VINA RESULT:      -7.2      1.163      1.343
REMARK  Name = 
REMARK  5 active torsions:
REMARK  status: ('A' for Active; 'I' for Inactive)
REMARK    1  A    between atoms: C_1  and  C_2
REMARK    2  A    between atoms: C_2  and  N_3
REMARK    3  A    between atoms: C_6  and  C_8
REMARK    4  A    between atoms: N_11  and  C_12
REMARK    5  A    between atoms: C_19  and  C_20
REMARK                            x       y       z     vdW  Elec       q    Type
REMARK                         _______ _______ _______ _____ _____    ______ ____
ROOT
ATOM      1  N   UNL     1       2.499   7.195  19.212  0.00  0.00    +0.000 N 
ATOM      2  C   UNL     1       1.770   7.278  20.378  0.00  0.00    +0.000 A 
ATOM      3  N   UNL     1       1.369   8.479  20.920  0.00  0.00    +0.000 N 
ATOM      4  C   UNL     1       0.066   8.622  21.373  0.00  0.00    +0.000 C 
ATOM      5  O   UNL     1      -0.784   7.744  21.301  0.00  0.00    +0.000 OA
ATOM      6  N   UNL     1       1.530   6.084  20.868  0.00  0.00    +0.000 NA
ATOM      7  C   UNL     1       2.126   5.196  20.011  0.00  0.00    +0.000 A 
ATOM      8  C   UNL     1       2.157   3.798  20.059  0.00  0.00    +0.000 A 
ATOM      9  C   UNL     1       2.802   3.126  19.021  0.00  0.00    +0.000 A 
ATOM     10  F   UNL     1       2.839   1.786  19.038  0.00  0.00    +0.000 F 
ATOM     11  C   UNL     1       3.412   3.803  17.968  0.00  0.00    +0.000 A 
ATOM     12  C   UNL     1       3.404   5.196  17.914  0.00  0.00    +0.000 A 
ATOM     13  C   UNL     1       2.748   5.863  18.960  0.00  0.00    +0.000 A 
ATOM     14  H   UNL     1       1.933   9.291  20.740  0.00  0.00    +0.000 HD
ENDROOT
BRANCH   4  15
ATOM     15  C   UNL     1      -0.283   9.985  21.806  0.00  0.00    +0.000 A 
ATOM     16  C   UNL     1      -0.543  10.452  23.112  0.00  0.00    +0.000 A 
ATOM     17  N   UNL     1      -0.735  11.762  23.176  0.00  0.00    +0.000 NA
ATOM     18  N   UNL     1      -0.640  12.196  21.893  0.00  0.00    +0.000 N 
ATOM     19  C   UNL     1      -0.388  11.139  21.026  0.00  0.00    +0.000 A 
BRANCH  18  20
ATOM     20  C   UNL     1      -0.860  13.575  21.561  0.00  0.00    +0.000 A 
ATOM     21  N   UNL     1      -2.160  13.970  21.428  0.00  0.00    +0.000 NA
ATOM     22  C   UNL     1      -2.413  15.273  21.176  0.00  0.00    +0.000 A 
ATOM     23  C   UNL     1      -1.423  16.219  21.009  0.00  0.00    +0.000 A 
ATOM     24  C   UNL     1      -0.099  15.804  21.100  0.00  0.00    +0.000 A 
ATOM     25  C   UNL     1       0.206  14.467  21.383  0.00  0.00    +0.000 A 
ATOM     26 CL   UNL     1       1.880  14.043  21.309  0.00  0.00    +0.000 Cl
ENDBRANCH  18  20
BRANCH  19  27
ATOM     27  C   UNL     1      -0.257  11.362  19.565  0.00  0.00    +0.000 C 
ATOM     28  F   UNL     1       1.028  11.365  19.133  0.00  0.00    +0.000 F 
ATOM     29  F   UNL     1      -0.887  10.375  18.871  0.00  0.00    +0.000 F 
ENDBRANCH  19  27
ENDBRANCH   4  15
BRANCH   1  31
ATOM     30  C   UNL     1       1.398   8.656  17.545  0.00  0.00    +0.000 C 
ATOM     31  C   UNL     1       2.682   8.264  18.251  0.00  0.00    +0.000 C 
ENDBRANCH   1  31
TORSDOF 4
ENDMDL
MODEL 4
REMARK VINA RESULT:      -7.2      3.188      9.130
REMARK  Name = 
REMARK  5 active torsions:
REMARK  status: ('A' for Active; 'I' for Inactive)
REMARK    1  A    between atoms: C_1  and  C_2
REMARK    2  A    between atoms: C_2  and  N_3
REMARK    3  A    between atoms: C_6  and  C_8
REMARK    4  A    between atoms: N_11  and  C_12
REMARK    5  A    between atoms: C_19  and  C_20
REMARK                            x       y       z     vdW  Elec       q    Type
REMARK                         _______ _______ _______ _____ _____    ______ ____
ROOT
ATOM      1  N   UNL     1      -0.156  12.052  20.167  0.00  0.00    +0.000 N 
ATOM      2  C   UNL     1      -0.128  10.760  20.645  0.00  0.00    +0.000 A 
ATOM      3  N   UNL     1       0.384   9.708  19.917  0.00  0.00    +0.000 N 
ATOM      4  C   UNL     1       1.233   8.802  20.534  0.00  0.00    +0.000 C 
ATOM      5  O   UNL     1       1.589   8.883  21.702  0.00  0.00    +0.000 OA
ATOM      6  N   UNL     1      -0.646  10.693  21.850  0.00  0.00    +0.000 NA
ATOM      7  C   UNL     1      -1.034  11.970  22.166  0.00  0.00    +0.000 A 
ATOM      8  C   UNL     1      -1.625  12.454  23.338  0.00  0.00    +0.000 A 
ATOM      9  C   UNL     1      -1.879  13.823  23.420  0.00  0.00    +0.000 A 
ATOM     10  F   UNL     1      -2.436  14.316  24.535  0.00  0.00    +0.000 F 
ATOM     11  C   UNL     1      -1.574  14.695  22.378  0.00  0.00    +0.000 A 
ATOM     12  C   UNL     1      -1.000  14.226  21.197  0.00  0.00    +0.000 A 
ATOM     13  C   UNL     1      -0.743  12.848  21.127  0.00  0.00    +0.000 A 
ATOM     14  H   UNL     1       0.349   9.766  18.915  0.00  0.00    +0.000 HD
ENDROOT
BRANCH   4  15
ATOM     15  C   UNL     1       1.822   7.803  19.627  0.00  0.00    +0.000 A 
ATOM     16  C   UNL     1       2.431   8.008  18.371  0.00  0.00    +0.000 A 
ATOM     17  N   UNL     1       2.948   6.905  17.848  0.00  0.00    +0.000 NA
ATOM     18  N   UNL     1       2.660   5.923  18.741  0.00  0.00    +0.000 N 
ATOM     19  C   UNL     1       1.954   6.427  19.828  0.00  0.00    +0.000 A 
BRANCH  18  20
ATOM     20  C   UNL     1       3.014   4.556  18.477  0.00  0.00    +0.000 A 
ATOM     21  N   UNL     1       2.016   3.748  18.012  0.00  0.00    +0.000 NA
ATOM     22  C   UNL     1       2.321   2.471  17.692  0.00  0.00    +0.000 A 
ATOM     23  C   UNL     1       3.581   1.931  17.847  0.00  0.00    +0.000 A 
ATOM     24  C   UNL     1       4.583   2.745  18.364  0.00  0.00    +0.000 A 
ATOM     25  C   UNL     1       4.315   4.081  18.685  0.00  0.00    +0.000 A 
ATOM     26 CL   UNL     1       5.593   4.939  19.469  0.00  0.00    +0.000 Cl
ENDBRANCH  18  20
BRANCH  19  27
ATOM     27  C   UNL     1       1.512   5.540  20.931  0.00  0.00    +0.000 C 
ATOM     28  F   UNL     1       0.571   4.639  20.554  0.00  0.00    +0.000 F 
ATOM     29  F   UNL     1       2.558   4.815  21.413  0.00  0.00    +0.000 F 
ENDBRANCH  19  27
ENDBRANCH   4  15
BRANCH   1  31
ATOM     30  C   UNL     1       2.022  12.912  19.366  0.00  0.00    +0.000 C 
ATOM     31  C   UNL     1       0.589  12.548  19.027  0.00  0.00    +0.000 C 
ENDBRANCH   1  31
TORSDOF 4
ENDMDL
MODEL 5
REMARK VINA RESULT:      -7.1      0.896      1.124
REMARK  Name = 
REMARK  5 active torsions:
REMARK  status: ('A' for Active; 'I' for Inactive)
REMARK    1  A    between atoms: C_1  and  C_2
REMARK    2  A    between atoms: C_2  and  N_3
REMARK    3  A    between atoms: C_6  and  C_8
REMARK    4  A    between atoms: N_11  and  C_12
REMARK    5  A    between atoms: C_19  and  C_20
REMARK                            x       y       z     vdW  Elec       q    Type
REMARK                         _______ _______ _______ _____ _____    ______ ____
ROOT
ATOM      1  N   UNL     1       2.480   7.377  19.108  0.00  0.00    +0.000 N 
ATOM      2  C   UNL     1       1.801   7.419  20.306  0.00  0.00    +0.000 A 
ATOM      3  N   UNL     1       1.336   8.593  20.857  0.00  0.00    +0.000 N 
ATOM      4  C   UNL     1       0.048   8.643  21.369  0.00  0.00    +0.000 C 
ATOM      5  O   UNL     1      -0.735   7.702  21.344  0.00  0.00    +0.000 OA
ATOM      6  N   UNL     1       1.674   6.216  20.816  0.00  0.00    +0.000 NA
ATOM      7  C   UNL     1       2.296   5.365  19.938  0.00  0.00    +0.000 A 
ATOM      8  C   UNL     1       2.434   3.974  19.996  0.00  0.00    +0.000 A 
ATOM      9  C   UNL     1       3.079   3.341  18.934  0.00  0.00    +0.000 A 
ATOM     10  F   UNL     1       3.219   2.008  18.959  0.00  0.00    +0.000 F 
ATOM     11  C   UNL     1       3.588   4.050  17.849  0.00  0.00    +0.000 A 
ATOM     12  C   UNL     1       3.473   5.438  17.784  0.00  0.00    +0.000 A 
ATOM     13  C   UNL     1       2.817   6.065  18.854  0.00  0.00    +0.000 A 
ATOM     14  H   UNL     1       1.828   9.442  20.644  0.00  0.00    +0.000 HD
ENDROOT
BRANCH   4  15
ATOM     15  C   UNL     1      -0.383   9.980  21.808  0.00  0.00    +0.000 A 
ATOM     16  C   UNL     1      -0.513  10.473  23.123  0.00  0.00    +0.000 A 
ATOM     17  N   UNL     1      -0.833  11.758  23.177  0.00  0.00    +0.000 NA
ATOM     18  N   UNL     1      -0.957  12.145  21.881  0.00  0.00    +0.000 N 
ATOM     19  C   UNL     1      -0.712  11.083  21.017  0.00  0.00    +0.000 A 
BRANCH  18  20
ATOM     20  C   UNL     1      -1.364  13.480  21.544  0.00  0.00    +0.000 A 
ATOM     21  N   UNL     1      -0.366  14.391  21.350  0.00  0.00    +0.000 NA
ATOM     22  C   UNL     1      -0.704  15.643  20.971  0.00  0.00    +0.000 A 
ATOM     23  C   UNL     1      -2.009  16.059  20.807  0.00  0.00    +0.000 A 
ATOM     24  C   UNL     1      -3.024  15.140  21.050  0.00  0.00    +0.000 A 
ATOM     25  C   UNL     1      -2.716  13.826  21.421  0.00  0.00    +0.000 A 
ATOM     26 CL   UNL     1      -4.060  12.830  21.852  0.00  0.00    +0.000 Cl
ENDBRANCH  18  20
BRANCH  19  27
ATOM     27  C   UNL     1      -0.803  11.256  19.547  0.00  0.00    +0.000 C 
ATOM     28  F   UNL     1      -2.013  11.704  19.130  0.00  0.00    +0.000 F 
ATOM     29  F   UNL     1       0.108  12.171  19.114  0.00  0.00    +0.000 F 
ENDBRANCH  19  27
ENDBRANCH   4  15
BRANCH   1  31
ATOM     30  C   UNL     1       1.170   8.859  17.619  0.00  0.00    +0.000 C 
ATOM     31  C   UNL     1       2.537   8.447  18.131  0.00  0.00    +0.000 C 
ENDBRANCH   1  31
TORSDOF 4
ENDMDL
MODEL 6
REMARK VINA RESULT:      -7.0      3.063      9.044
REMARK  Name = 
REMARK  5 active torsions:
REMARK  status: ('A' for Active; 'I' for Inactive)
REMARK    1  A    between atoms: C_1  and  C_2
REMARK    2  A    between atoms: C_2  and  N_3
REMARK    3  A    between atoms: C_6  and  C_8
REMARK    4  A    between atoms: N_11  and  C_12
REMARK    5  A    between atoms: C_19  and  C_20
REMARK                            x       y       z     vdW  Elec       q    Type
REMARK                         _______ _______ _______ _____ _____    ______ ____
ROOT
ATOM      1  N   UNL     1      -0.033  11.869  19.939  0.00  0.00    +0.000 N 
ATOM      2  C   UNL     1       0.017  10.614  20.505  0.00  0.00    +0.000 A 
ATOM      3  N   UNL     1       0.561   9.527  19.856  0.00  0.00    +0.000 N 
ATOM      4  C   UNL     1       1.422   8.684  20.543  0.00  0.00    +0.000 C 
ATOM      5  O   UNL     1       1.762   8.853  21.706  0.00  0.00    +0.000 OA
ATOM      6  N   UNL     1      -0.513  10.619  21.705  0.00  0.00    +0.000 NA
ATOM      7  C   UNL     1      -0.933  11.905  21.929  0.00  0.00    +0.000 A 
ATOM      8  C   UNL     1      -1.548  12.455  23.058  0.00  0.00    +0.000 A 
ATOM      9  C   UNL     1      -1.832  13.820  23.043  0.00  0.00    +0.000 A 
ATOM     10  F   UNL     1      -2.413  14.376  24.116  0.00  0.00    +0.000 F 
ATOM     11  C   UNL     1      -1.533  14.626  21.947  0.00  0.00    +0.000 A 
ATOM     12  C   UNL     1      -0.936  14.089  20.807  0.00  0.00    +0.000 A 
ATOM     13  C   UNL     1      -0.649  12.716  20.834  0.00  0.00    +0.000 A 
ATOM     14  H   UNL     1       0.536   9.514  18.852  0.00  0.00    +0.000 HD
ENDROOT
BRANCH   4  15
ATOM     15  C   UNL     1       2.042   7.638  19.713  0.00  0.00    +0.000 A 
ATOM     16  C   UNL     1       2.805   7.789  18.536  0.00  0.00    +0.000 A 
ATOM     17  N   UNL     1       3.304   6.648  18.079  0.00  0.00    +0.000 NA
ATOM     18  N   UNL     1       2.849   5.697  18.936  0.00  0.00    +0.000 N 
ATOM     19  C   UNL     1       2.058   6.259  19.932  0.00  0.00    +0.000 A 
BRANCH  18  20
ATOM     20  C   UNL     1       3.138   4.307  18.718  0.00  0.00    +0.000 A 
ATOM     21  N   UNL     1       4.292   3.831  19.271  0.00  0.00    +0.000 NA
ATOM     22  C   UNL     1       4.570   2.515  19.142  0.00  0.00    +0.000 A 
ATOM     23  C   UNL     1       3.768   1.635  18.447  0.00  0.00    +0.000 A 
ATOM     24  C   UNL     1       2.616   2.134  17.846  0.00  0.00    +0.000 A 
ATOM     25  C   UNL     1       2.279   3.486  17.976  0.00  0.00    +0.000 A 
ATOM     26 CL   UNL     1       0.918   4.016  17.052  0.00  0.00    +0.000 Cl
ENDBRANCH  18  20
BRANCH  19  27
ATOM     27  C   UNL     1       1.432   5.415  20.979  0.00  0.00    +0.000 C 
ATOM     28  F   UNL     1       0.582   4.482  20.483  0.00  0.00    +0.000 F 
ATOM     29  F   UNL     1       2.381   4.730  21.673  0.00  0.00    +0.000 F 
ENDBRANCH  19  27
ENDBRANCH   4  15
BRANCH   1  31
ATOM     30  C   UNL     1       2.109  12.795  19.113  0.00  0.00    +0.000 C 
ATOM     31  C   UNL     1       0.715  12.302  18.775  0.00  0.00    +0.000 C 
ENDBRANCH   1  31
TORSDOF 4
ENDMDL
MODEL 7
REMARK VINA RESULT:      -7.0      3.285      8.889
REMARK  Name = 
REMARK  5 active torsions:
REMARK  status: ('A' for Active; 'I' for Inactive)
REMARK    1  A    between atoms: C_1  and  C_2
REMARK    2  A    between atoms: C_2  and  N_3
REMARK    3  A    between atoms: C_6  and  C_8
REMARK    4  A    between atoms: N_11  and  C_12
REMARK    5  A    between atoms: C_19  and  C_20
REMARK                            x       y       z     vdW  Elec       q    Type
REMARK                         _______ _______ _______ _____ _____    ______ ____
ROOT
ATOM      1  N   UNL     1      -2.446  11.526  19.369  0.00  0.00    +0.000 N 
ATOM      2  C   UNL     1      -1.391  11.002  20.084  0.00  0.00    +0.000 A 
ATOM      3  N   UNL     1      -0.578  10.007  19.588  0.00  0.00    +0.000 N 
ATOM      4  C   UNL     1       0.798  10.119  19.726  0.00  0.00    +0.000 C 
ATOM      5  O   UNL     1       1.358  11.074  20.248  0.00  0.00    +0.000 OA
ATOM      6  N   UNL     1      -1.291  11.575  21.261  0.00  0.00    +0.000 NA
ATOM      7  C   UNL     1      -2.312  12.489  21.325  0.00  0.00    +0.000 A 
ATOM      8  C   UNL     1      -2.645  13.378  22.353  0.00  0.00    +0.000 A 
ATOM      9  C   UNL     1      -3.716  14.245  22.140  0.00  0.00    +0.000 A 
ATOM     10  F   UNL     1      -4.053  15.113  23.104  0.00  0.00    +0.000 F 
ATOM     11  C   UNL     1      -4.452  14.235  20.957  0.00  0.00    +0.000 A 
ATOM     12  C   UNL     1      -4.142  13.345  19.930  0.00  0.00    +0.000 A 
ATOM     13  C   UNL     1      -3.059  12.481  20.151  0.00  0.00    +0.000 A 
ATOM     14  H   UNL     1      -0.968   9.367  18.920  0.00  0.00    +0.000 HD
ENDROOT
BRANCH   4  15
ATOM     15  C   UNL     1       1.567   9.067  19.043  0.00  0.00    +0.000 A 
ATOM     16  C   UNL     1       2.071   9.062  17.725  0.00  0.00    +0.000 A 
ATOM     17  N   UNL     1       2.807   7.996  17.444  0.00  0.00    +0.000 NA
ATOM     18  N   UNL     1       2.780   7.241  18.574  0.00  0.00    +0.000 N 
ATOM     19  C   UNL     1       2.015   7.850  19.562  0.00  0.00    +0.000 A 
BRANCH  18  20
ATOM     20  C   UNL     1       3.425   5.960  18.622  0.00  0.00    +0.000 A 
ATOM     21  N   UNL     1       4.731   5.950  19.022  0.00  0.00    +0.000 NA
ATOM     22  C   UNL     1       5.357   4.758  19.139  0.00  0.00    +0.000 A 
ATOM     23  C   UNL     1       4.757   3.553  18.840  0.00  0.00    +0.000 A 
ATOM     24  C   UNL     1       3.441   3.572  18.389  0.00  0.00    +0.000 A 
ATOM     25  C   UNL     1       2.749   4.783  18.276  0.00  0.00    +0.000 A 
ATOM     26 CL   UNL     1       1.182   4.691  17.552  0.00  0.00    +0.000 Cl
ENDBRANCH  18  20
BRANCH  19  27
ATOM     27  C   UNL     1       1.823   7.207  20.885  0.00  0.00    +0.000 C 
ATOM     28  F   UNL     1       1.286   8.036  21.814  0.00  0.00    +0.000 F 
ATOM     29  F   UNL     1       0.972   6.149  20.785  0.00  0.00    +0.000 F 
ENDBRANCH  19  27
ENDBRANCH   4  15
BRANCH   1  31
ATOM     30  C   UNL     1      -3.630  10.233  17.622  0.00  0.00    +0.000 C 
ATOM     31  C   UNL     1      -2.668  11.360  17.946  0.00  0.00    +0.000 C 
ENDBRANCH   1  31
TORSDOF 4
ENDMDL
MODEL 8
REMARK VINA RESULT:      -7.0      3.300      9.101
REMARK  Name = 
REMARK  5 active torsions:
REMARK  status: ('A' for Active; 'I' for Inactive)
REMARK    1  A    between atoms: C_1  and  C_2
REMARK    2  A    between atoms: C_2  and  N_3
REMARK    3  A    between atoms: C_6  and  C_8
REMARK    4  A    between atoms: N_11  and  C_12
REMARK    5  A    between atoms: C_19  and  C_20
REMARK                            x       y       z     vdW  Elec       q    Type
REMARK                         _______ _______ _______ _____ _____    ______ ____
ROOT
ATOM      1  N   UNL     1      -1.106  11.556  20.079  0.00  0.00    +0.000 N 
ATOM      2  C   UNL     1      -0.601  10.437  20.704  0.00  0.00    +0.000 A 
ATOM      3  N   UNL     1       0.001   9.408  20.014  0.00  0.00    +0.000 N 
ATOM      4  C   UNL     1       1.193   8.877  20.486  0.00  0.00    +0.000 C 
ATOM      5  O   UNL     1       1.776   9.283  21.483  0.00  0.00    +0.000 OA
ATOM      6  N   UNL     1      -0.780  10.504  22.003  0.00  0.00    +0.000 NA
ATOM      7  C   UNL     1      -1.428  11.690  22.235  0.00  0.00    +0.000 A 
ATOM      8  C   UNL     1      -1.839  12.255  23.447  0.00  0.00    +0.000 A 
ATOM      9  C   UNL     1      -2.443  13.511  23.407  0.00  0.00    +0.000 A 
ATOM     10  F   UNL     1      -2.838  14.081  24.554  0.00  0.00    +0.000 F 
ATOM     11  C   UNL     1      -2.652  14.193  22.210  0.00  0.00    +0.000 A 
ATOM     12  C   UNL     1      -2.263  13.636  20.992  0.00  0.00    +0.000 A 
ATOM     13  C   UNL     1      -1.651  12.374  21.045  0.00  0.00    +0.000 A 
ATOM     14  H   UNL     1      -0.284   9.244  19.065  0.00  0.00    +0.000 HD
ENDROOT
BRANCH   4  15
ATOM     15  C   UNL     1       1.809   7.878  19.598  0.00  0.00    +0.000 A 
ATOM     16  C   UNL     1       2.446   8.082  18.356  0.00  0.00    +0.000 A 
ATOM     17  N   UNL     1       2.983   6.980  17.850  0.00  0.00    +0.000 NA
ATOM     18  N   UNL     1       2.681   6.000  18.741  0.00  0.00    +0.000 N 
ATOM     19  C   UNL     1       1.946   6.504  19.808  0.00  0.00    +0.000 A 
BRANCH  18  20
ATOM     20  C   UNL     1       3.050   4.635  18.491  0.00  0.00    +0.000 A 
ATOM     21  N   UNL     1       2.052   3.801  18.074  0.00  0.00    +0.000 NA
ATOM     22  C   UNL     1       2.370   2.523  17.769  0.00  0.00    +0.000 A 
ATOM     23  C   UNL     1       3.643   2.008  17.893  0.00  0.00    +0.000 A 
ATOM     24  C   UNL     1       4.647   2.849  18.362  0.00  0.00    +0.000 A 
ATOM     25  C   UNL     1       4.365   4.186  18.666  0.00  0.00    +0.000 A 
ATOM     26 CL   UNL     1       5.653   5.081  19.392  0.00  0.00    +0.000 Cl
ENDBRANCH  18  20
BRANCH  19  27
ATOM     27  C   UNL     1       1.484   5.619  20.905  0.00  0.00    +0.000 C 
ATOM     28  F   UNL     1       0.539   4.728  20.516  0.00  0.00    +0.000 F 
ATOM     29  F   UNL     1       2.518   4.883  21.395  0.00  0.00    +0.000 F 
ENDBRANCH  19  27
ENDBRANCH   4  15
BRANCH   1  31
ATOM     30  C   UNL     1      -1.927  11.603  17.745  0.00  0.00    +0.000 C 
ATOM     31  C   UNL     1      -0.821  11.964  18.717  0.00  0.00    +0.000 C 
ENDBRANCH   1  31
TORSDOF 4
ENDMDL
MODEL 9
REMARK VINA RESULT:      -6.9      1.559      1.764
REMARK  Name = 
REMARK  5 active torsions:
REMARK  status: ('A' for Active; 'I' for Inactive)
REMARK    1  A    between atoms: C_1  and  C_2
REMARK    2  A    between atoms: C_2  and  N_3
REMARK    3  A    between atoms: C_6  and  C_8
REMARK    4  A    between atoms: N_11  and  C_12
REMARK    5  A    between atoms: C_19  and  C_20
REMARK                            x       y       z     vdW  Elec       q    Type
REMARK                         _______ _______ _______ _____ _____    ______ ____
ROOT
ATOM      1  N   UNL     1       3.393   5.810  18.491  0.00  0.00    +0.000 N 
ATOM      2  C   UNL     1       2.792   6.060  19.706  0.00  0.00    +0.000 A 
ATOM      3  N   UNL     1       2.475   7.331  20.131  0.00  0.00    +0.000 N 
ATOM      4  C   UNL     1       1.230   7.571  20.693  0.00  0.00    +0.000 C 
ATOM      5  O   UNL     1       0.360   6.719  20.819  0.00  0.00    +0.000 OA
ATOM      6  N   UNL     1       2.581   4.943  20.363  0.00  0.00    +0.000 NA
ATOM      7  C   UNL     1       3.066   3.937  19.567  0.00  0.00    +0.000 A 
ATOM      8  C   UNL     1       3.074   2.556  19.787  0.00  0.00    +0.000 A 
ATOM      9  C   UNL     1       3.592   1.741  18.781  0.00  0.00    +0.000 A 
ATOM     10  F   UNL     1       3.604   0.412  18.962  0.00  0.00    +0.000 F 
ATOM     11  C   UNL     1       4.102   2.263  17.595  0.00  0.00    +0.000 A 
ATOM     12  C   UNL     1       4.116   3.639  17.368  0.00  0.00    +0.000 A 
ATOM     13  C   UNL     1       3.587   4.450  18.383  0.00  0.00    +0.000 A 
ATOM     14  H   UNL     1       3.033   8.095  19.794  0.00  0.00    +0.000 HD
ENDROOT
BRANCH   4  15
ATOM     15  C   UNL     1       0.956   8.987  20.985  0.00  0.00    +0.000 A 
ATOM     16  C   UNL     1       0.710   9.594  22.235  0.00  0.00    +0.000 A 
ATOM     17  N   UNL     1       0.593  10.913  22.168  0.00  0.00    +0.000 NA
ATOM     18  N   UNL     1       0.727  11.213  20.850  0.00  0.00    +0.000 N 
ATOM     19  C   UNL     1       0.926  10.063  20.094  0.00  0.00    +0.000 A 
BRANCH  18  20
ATOM     20  C   UNL     1       0.591  12.563  20.382  0.00  0.00    +0.000 A 
ATOM     21  N   UNL     1       1.719  13.332  20.402  0.00  0.00    +0.000 NA
ATOM     22  C   UNL     1       1.648  14.589  19.913  0.00  0.00    +0.000 A 
ATOM     23  C   UNL     1       0.485  15.150  19.428  0.00  0.00    +0.000 A 
ATOM     24  C   UNL     1      -0.673  14.378  19.452  0.00  0.00    +0.000 A 
ATOM     25  C   UNL     1      -0.637  13.063  19.928  0.00  0.00    +0.000 A 
ATOM     26 CL   UNL     1      -2.165  12.266  20.059  0.00  0.00    +0.000 Cl
ENDBRANCH  18  20
BRANCH  19  27
ATOM     27  C   UNL     1       1.084  10.133  18.622  0.00  0.00    +0.000 C 
ATOM     28  F   UNL     1       2.317   9.766  18.193  0.00  0.00    +0.000 F 
ATOM     29  F   UNL     1       0.205   9.298  18.004  0.00  0.00    +0.000 F 
ENDBRANCH  19  27
ENDBRANCH   4  15
BRANCH   1  31
ATOM     30  C   UNL     1       4.925   6.993  16.947  0.00  0.00    +0.000 C 
ATOM     31  C   UNL     1       3.495   6.748  17.390  0.00  0.00    +0.000 C 
ENDBRANCH   1  31
TORSDOF 4
ENDMDL
