MODEL 1
REMARK VINA RESULT:      -9.6      0.000      0.000
REMARK  Name = 
REMARK  8 active torsions:
REMARK  status: ('A' for Active; 'I' for Inactive)
REMARK    1  A    between atoms: C_1  and  C_2
REMARK    2  A    between atoms: C_6  and  C_8
REMARK    3  A    between atoms: C_12  and  C_13
REMARK    4  A    between atoms: N_15  and  C_16
REMARK    5  A    between atoms: C_20  and  C_21
REMARK    6  A    between atoms: C_21  and  C_22
REMARK    7  A    between atoms: C_21  and  C_23
REMARK    8  A    between atoms: N_27  and  C_28
REMARK                            x       y       z     vdW  Elec       q    Type
REMARK                         _______ _______ _______ _____ _____    ______ ____
ROOT
ATOM      1  C   UNL     1       1.671   7.714  19.981  0.00  0.00    +0.000 C 
ATOM      2  O   UNL     1       1.865   8.515  19.075  0.00  0.00    +0.000 OA
ATOM      3  N   UNL     1       0.933   7.915  21.138  0.00  0.00    +0.000 N 
ATOM      4  H   UNL     1       0.983   7.163  21.820  0.00  0.00    +0.000 HD
ENDROOT
BRANCH   1   9
ATOM      5  C   UNL     1       4.235   4.991  19.477  0.00  0.00    +0.000 A 
ATOM      6  C   UNL     1       3.492   3.927  20.007  0.00  0.00    +0.000 A 
ATOM      7  C   UNL     1       2.168   4.124  20.347  0.00  0.00    +0.000 A 
ATOM      8  N   UNL     1       1.556   5.317  20.304  0.00  0.00    +0.000 NA
ATOM      9  C   UNL     1       2.322   6.369  19.905  0.00  0.00    +0.000 A 
ATOM     10  C   UNL     1       3.641   6.256  19.469  0.00  0.00    +0.000 A 
BRANCH   5  16
ATOM     11  C   UNL     1       7.215   4.599  13.448  0.00  0.00    +0.000 C 
ATOM     12  C   UNL     1       6.773   4.689  14.885  0.00  0.00    +0.000 C 
ATOM     13  N   UNL     1       7.650   4.637  15.809  0.00  0.00    +0.000 NA
ATOM     14  C   UNL     1       7.315   4.727  17.222  0.00  0.00    +0.000 C 
ATOM     15  N   UNL     1       5.910   4.822  17.578  0.00  0.00    +0.000 N 
ATOM     16  C   UNL     1       5.643   4.879  18.966  0.00  0.00    +0.000 C 
ATOM     17  O   UNL     1       6.542   4.887  19.812  0.00  0.00    +0.000 OA
ATOM     18  C   UNL     1       4.900   4.761  16.554  0.00  0.00    +0.000 C 
ATOM     19  C   UNL     1       5.310   4.837  15.111  0.00  0.00    +0.000 C 
ENDBRANCH   5  16
ENDBRANCH   1   9
BRANCH   3  20
ATOM     20  C   UNL     1       0.244   9.095  21.498  0.00  0.00    +0.000 A 
ATOM     21  C   UNL     1      -0.090   9.385  22.819  0.00  0.00    +0.000 A 
ATOM     22  C   UNL     1      -0.824  10.527  23.133  0.00  0.00    +0.000 A 
ATOM     23  C   UNL     1      -1.200  11.413  22.132  0.00  0.00    +0.000 A 
ATOM     24  C   UNL     1      -0.827  11.181  20.801  0.00  0.00    +0.000 A 
ATOM     25  C   UNL     1      -0.106  10.008  20.492  0.00  0.00    +0.000 A 
BRANCH  24  26
ATOM     26  C   UNL     1      -1.179  12.216  19.739  0.00  0.00    +0.000 C 
ATOM     27  C   UNL     1       0.081  12.695  19.010  0.00  0.00    +0.000 C 
BRANCH  26  28
ATOM     28  C   UNL     1      -2.223  11.731  18.772  0.00  0.00    +0.000 A 
ATOM     29  N   UNL     1      -2.007  11.081  17.643  0.00  0.00    +0.000 NA
ATOM     30  N   UNL     1      -3.221  10.821  17.056  0.00  0.00    +0.000 NA
ATOM     31  C   UNL     1      -4.153  11.313  17.836  0.00  0.00    +0.000 A 
ATOM     32  N   UNL     1      -3.577  11.910  18.913  0.00  0.00    +0.000 N 
ATOM     33  C   UNL     1      -4.275  12.600  19.964  0.00  0.00    +0.000 C 
ENDBRANCH  26  28
ENDBRANCH  24  26
ENDBRANCH   3  20
TORSDOF 5
ENDMDL
MODEL 2
REMARK VINA RESULT:      -9.5      1.751      2.646
REMARK  Name = 
REMARK  8 active torsions:
REMARK  status: ('A' for Active; 'I' for Inactive)
REMARK    1  A    between atoms: C_1  and  C_2
REMARK    2  A    between atoms: C_6  and  C_8
REMARK    3  A    between atoms: C_12  and  C_13
REMARK    4  A    between atoms: N_15  and  C_16
REMARK    5  A    between atoms: C_20  and  C_21
REMARK    6  A    between atoms: C_21  and  C_22
REMARK    7  A    between atoms: C_21  and  C_23
REMARK    8  A    between atoms: N_27  and  C_28
REMARK                            x       y       z     vdW  Elec       q    Type
REMARK                         _______ _______ _______ _____ _____    ______ ____
ROOT
ATOM      1  C   UNL     1       1.752   5.836  20.441  0.00  0.00    +0.000 C 
ATOM      2  O   UNL     1       0.615   5.455  20.689  0.00  0.00    +0.000 OA
ATOM      3  N   UNL     1       2.212   7.145  20.408  0.00  0.00    +0.000 N 
ATOM      4  H   UNL     1       3.164   7.260  20.073  0.00  0.00    +0.000 HD
ENDROOT
BRANCH   1   9
ATOM      5  C   UNL     1       4.937   4.250  19.184  0.00  0.00    +0.000 A 
ATOM      6  C   UNL     1       4.703   2.951  19.655  0.00  0.00    +0.000 A 
ATOM      7  C   UNL     1       3.478   2.637  20.206  0.00  0.00    +0.000 A 
ATOM      8  N   UNL     1       2.506   3.536  20.425  0.00  0.00    +0.000 NA
ATOM      9  C   UNL     1       2.789   4.821  20.077  0.00  0.00    +0.000 A 
ATOM     10  C   UNL     1       3.965   5.219  19.445  0.00  0.00    +0.000 A 
BRANCH   5  16
ATOM     11  C   UNL     1       6.983   4.640  12.777  0.00  0.00    +0.000 C 
ATOM     12  C   UNL     1       6.738   4.655  14.262  0.00  0.00    +0.000 C 
ATOM     13  N   UNL     1       7.670   5.043  15.043  0.00  0.00    +0.000 NA
ATOM     14  C   UNL     1       7.517   5.100  16.488  0.00  0.00    +0.000 C 
ATOM     15  N   UNL     1       6.262   4.636  17.053  0.00  0.00    +0.000 N 
ATOM     16  C   UNL     1       6.181   4.688  18.465  0.00  0.00    +0.000 C 
ATOM     17  O   UNL     1       7.097   5.134  19.163  0.00  0.00    +0.000 OA
ATOM     18  C   UNL     1       5.246   4.082  16.197  0.00  0.00    +0.000 C 
ATOM     19  C   UNL     1       5.392   4.205  14.708  0.00  0.00    +0.000 C 
ENDBRANCH   5  16
ENDBRANCH   1   9
BRANCH   3  20
ATOM     20  C   UNL     1       1.451   8.307  20.667  0.00  0.00    +0.000 A 
ATOM     21  C   UNL     1       1.162   8.730  21.962  0.00  0.00    +0.000 A 
ATOM     22  C   UNL     1       0.357   9.846  22.183  0.00  0.00    +0.000 A 
ATOM     23  C   UNL     1      -0.138  10.574  21.109  0.00  0.00    +0.000 A 
ATOM     24  C   UNL     1       0.185  10.209  19.794  0.00  0.00    +0.000 A 
ATOM     25  C   UNL     1       0.980   9.063  19.583  0.00  0.00    +0.000 A 
BRANCH  24  26
ATOM     26  C   UNL     1      -0.300  11.080  18.641  0.00  0.00    +0.000 C 
ATOM     27  C   UNL     1      -1.792  10.847  18.377  0.00  0.00    +0.000 C 
BRANCH  26  28
ATOM     28  C   UNL     1       0.002  12.539  18.840  0.00  0.00    +0.000 A 
ATOM     29  N   UNL     1      -0.852  13.475  19.210  0.00  0.00    +0.000 NA
ATOM     30  N   UNL     1      -0.180  14.671  19.276  0.00  0.00    +0.000 NA
ATOM     31  C   UNL     1       1.070  14.443  18.948  0.00  0.00    +0.000 A 
ATOM     32  N   UNL     1       1.229  13.127  18.647  0.00  0.00    +0.000 N 
ATOM     33  C   UNL     1       2.448  12.508  18.201  0.00  0.00    +0.000 C 
ENDBRANCH  26  28
ENDBRANCH  24  26
ENDBRANCH   3  20
TORSDOF 5
ENDMDL
MODEL 3
REMARK VINA RESULT:      -9.4      2.500      9.672
REMARK  Name = 
REMARK  8 active torsions:
REMARK  status: ('A' for Active; 'I' for Inactive)
REMARK    1  A    between atoms: C_1  and  C_2
REMARK    2  A    between atoms: C_6  and  C_8
REMARK    3  A    between atoms: C_12  and  C_13
REMARK    4  A    between atoms: N_15  and  C_16
REMARK    5  A    between atoms: C_20  and  C_21
REMARK    6  A    between atoms: C_21  and  C_22
REMARK    7  A    between atoms: C_21  and  C_23
REMARK    8  A    between atoms: N_27  and  C_28
REMARK                            x       y       z     vdW  Elec       q    Type
REMARK                         _______ _______ _______ _____ _____    ______ ____
ROOT
ATOM      1  C   UNL     1       2.133   7.955  18.731  0.00  0.00    +0.000 C 
ATOM      2  O   UNL     1       2.422   8.414  17.632  0.00  0.00    +0.000 OA
ATOM      3  N   UNL     1       2.321   6.654  19.174  0.00  0.00    +0.000 N 
ATOM      4  H   UNL     1       1.913   6.444  20.081  0.00  0.00    +0.000 HD
ENDROOT
BRANCH   1   9
ATOM      5  C   UNL     1       0.151  10.782  20.252  0.00  0.00    +0.000 A 
ATOM      6  C   UNL     1       0.059  10.273  21.555  0.00  0.00    +0.000 A 
ATOM      7  C   UNL     1       0.767   9.137  21.893  0.00  0.00    +0.000 A 
ATOM      8  N   UNL     1       1.471   8.408  21.015  0.00  0.00    +0.000 NA
ATOM      9  C   UNL     1       1.453   8.842  19.725  0.00  0.00    +0.000 A 
ATOM     10  C   UNL     1       0.833  10.016  19.304  0.00  0.00    +0.000 A 
BRANCH   5  16
ATOM     11  C   UNL     1       2.242  17.070  19.036  0.00  0.00    +0.000 C 
ATOM     12  C   UNL     1       1.560  15.741  19.229  0.00  0.00    +0.000 C 
ATOM     13  N   UNL     1       0.304  15.651  19.021  0.00  0.00    +0.000 NA
ATOM     14  C   UNL     1      -0.433  14.406  19.171  0.00  0.00    +0.000 C 
ATOM     15  N   UNL     1       0.297  13.240  19.635  0.00  0.00    +0.000 N 
ATOM     16  C   UNL     1      -0.477  12.066  19.790  0.00  0.00    +0.000 C 
ATOM     17  O   UNL     1      -1.680  12.027  19.512  0.00  0.00    +0.000 OA
ATOM     18  C   UNL     1       1.688  13.353  19.991  0.00  0.00    +0.000 C 
ATOM     19  C   UNL     1       2.432  14.614  19.656  0.00  0.00    +0.000 C 
ENDBRANCH   5  16
ENDBRANCH   1   9
BRANCH   3  20
ATOM     20  C   UNL     1       2.899   5.594  18.441  0.00  0.00    +0.000 A 
ATOM     21  C   UNL     1       2.141   4.530  17.956  0.00  0.00    +0.000 A 
ATOM     22  C   UNL     1       2.750   3.469  17.289  0.00  0.00    +0.000 A 
ATOM     23  C   UNL     1       4.121   3.478  17.066  0.00  0.00    +0.000 A 
ATOM     24  C   UNL     1       4.902   4.563  17.488  0.00  0.00    +0.000 A 
ATOM     25  C   UNL     1       4.277   5.619  18.184  0.00  0.00    +0.000 A 
BRANCH  24  26
ATOM     26  C   UNL     1       6.388   4.584  17.151  0.00  0.00    +0.000 C 
ATOM     27  C   UNL     1       6.625   4.110  15.714  0.00  0.00    +0.000 C 
BRANCH  26  28
ATOM     28  C   UNL     1       7.026   5.923  17.402  0.00  0.00    +0.000 A 
ATOM     29  N   UNL     1       7.048   6.950  16.572  0.00  0.00    +0.000 NA
ATOM     30  N   UNL     1       7.727   7.979  17.177  0.00  0.00    +0.000 NA
ATOM     31  C   UNL     1       8.104   7.563  18.363  0.00  0.00    +0.000 A 
ATOM     32  N   UNL     1       7.706   6.275  18.542  0.00  0.00    +0.000 N 
ATOM     33  C   UNL     1       7.975   5.466  19.699  0.00  0.00    +0.000 C 
ENDBRANCH  26  28
ENDBRANCH  24  26
ENDBRANCH   3  20
TORSDOF 5
ENDMDL
MODEL 4
REMARK VINA RESULT:      -9.4      2.324      3.211
REMARK  Name = 
REMARK  8 active torsions:
REMARK  status: ('A' for Active; 'I' for Inactive)
REMARK    1  A    between atoms: C_1  and  C_2
REMARK    2  A    between atoms: C_6  and  C_8
REMARK    3  A    between atoms: C_12  and  C_13
REMARK    4  A    between atoms: N_15  and  C_16
REMARK    5  A    between atoms: C_20  and  C_21
REMARK    6  A    between atoms: C_21  and  C_22
REMARK    7  A    between atoms: C_21  and  C_23
REMARK    8  A    between atoms: N_27  and  C_28
REMARK                            x       y       z     vdW  Elec       q    Type
REMARK                         _______ _______ _______ _____ _____    ______ ____
ROOT
ATOM      1  C   UNL     1       1.742   7.693  20.005  0.00  0.00    +0.000 C 
ATOM      2  O   UNL     1       1.731   8.423  19.021  0.00  0.00    +0.000 OA
ATOM      3  N   UNL     1       1.234   7.975  21.265  0.00  0.00    +0.000 N 
ATOM      4  H   UNL     1       1.439   7.281  21.979  0.00  0.00    +0.000 HD
ENDROOT
BRANCH   1   9
ATOM      5  C   UNL     1       4.332   5.010  19.435  0.00  0.00    +0.000 A 
ATOM      6  C   UNL     1       3.610   3.931  19.965  0.00  0.00    +0.000 A 
ATOM      7  C   UNL     1       2.290   4.107  20.326  0.00  0.00    +0.000 A 
ATOM      8  N   UNL     1       1.662   5.293  20.305  0.00  0.00    +0.000 NA
ATOM      9  C   UNL     1       2.409   6.358  19.905  0.00  0.00    +0.000 A 
ATOM     10  C   UNL     1       3.722   6.267  19.449  0.00  0.00    +0.000 A 
BRANCH   5  16
ATOM     11  C   UNL     1       7.219   4.569  13.364  0.00  0.00    +0.000 C 
ATOM     12  C   UNL     1       6.800   4.677  14.806  0.00  0.00    +0.000 C 
ATOM     13  N   UNL     1       7.693   4.664  15.716  0.00  0.00    +0.000 NA
ATOM     14  C   UNL     1       7.379   4.775  17.132  0.00  0.00    +0.000 C 
ATOM     15  N   UNL     1       5.979   4.844  17.511  0.00  0.00    +0.000 N 
ATOM     16  C   UNL     1       5.734   4.922  18.902  0.00  0.00    +0.000 C 
ATOM     17  O   UNL     1       6.646   4.968  19.732  0.00  0.00    +0.000 OA
ATOM     18  C   UNL     1       4.954   4.737  16.506  0.00  0.00    +0.000 C 
ATOM     19  C   UNL     1       5.337   4.795  15.055  0.00  0.00    +0.000 C 
ENDBRANCH   5  16
ENDBRANCH   1   9
BRANCH   3  20
ATOM     20  C   UNL     1       0.589   9.168  21.662  0.00  0.00    +0.000 A 
ATOM     21  C   UNL     1      -0.211   9.235  22.801  0.00  0.00    +0.000 A 
ATOM     22  C   UNL     1      -0.882  10.410  23.130  0.00  0.00    +0.000 A 
ATOM     23  C   UNL     1      -0.730  11.545  22.344  0.00  0.00    +0.000 A 
ATOM     24  C   UNL     1       0.116  11.528  21.227  0.00  0.00    +0.000 A 
ATOM     25  C   UNL     1       0.770  10.324  20.889  0.00  0.00    +0.000 A 
BRANCH  24  26
ATOM     26  C   UNL     1       0.330  12.813  20.436  0.00  0.00    +0.000 C 
ATOM     27  C   UNL     1      -0.941  13.669  20.439  0.00  0.00    +0.000 C 
BRANCH  26  28
ATOM     28  C   UNL     1       1.523  13.598  20.906  0.00  0.00    +0.000 A 
ATOM     29  N   UNL     1       1.686  14.143  22.098  0.00  0.00    +0.000 NA
ATOM     30  N   UNL     1       2.908  14.769  22.123  0.00  0.00    +0.000 NA
ATOM     31  C   UNL     1       3.469  14.594  20.950  0.00  0.00    +0.000 A 
ATOM     32  N   UNL     1       2.632  13.883  20.147  0.00  0.00    +0.000 N 
ATOM     33  C   UNL     1       2.881  13.533  18.775  0.00  0.00    +0.000 C 
ENDBRANCH  26  28
ENDBRANCH  24  26
ENDBRANCH   3  20
TORSDOF 5
ENDMDL
MODEL 5
REMARK VINA RESULT:      -9.4      1.256      1.375
REMARK  Name = 
REMARK  8 active torsions:
REMARK  status: ('A' for Active; 'I' for Inactive)
REMARK    1  A    between atoms: C_1  and  C_2
REMARK    2  A    between atoms: C_6  and  C_8
REMARK    3  A    between atoms: C_12  and  C_13
REMARK    4  A    between atoms: N_15  and  C_16
REMARK    5  A    between atoms: C_20  and  C_21
REMARK    6  A    between atoms: C_21  and  C_22
REMARK    7  A    between atoms: C_21  and  C_23
REMARK    8  A    between atoms: N_27  and  C_28
REMARK                            x       y       z     vdW  Elec       q    Type
REMARK                         _______ _______ _______ _____ _____    ______ ____
ROOT
ATOM      1  C   UNL     1       1.674   5.947  20.556  0.00  0.00    +0.000 C 
ATOM      2  O   UNL     1       0.543   5.520  20.753  0.00  0.00    +0.000 OA
ATOM      3  N   UNL     1       2.107   7.261  20.664  0.00  0.00    +0.000 N 
ATOM      4  H   UNL     1       3.059   7.428  20.351  0.00  0.00    +0.000 HD
ENDROOT
BRANCH   1   9
ATOM      5  C   UNL     1       4.869   4.561  19.105  0.00  0.00    +0.000 A 
ATOM      6  C   UNL     1       4.698   3.228  19.503  0.00  0.00    +0.000 A 
ATOM      7  C   UNL     1       3.504   2.835  20.072  0.00  0.00    +0.000 A 
ATOM      8  N   UNL     1       2.508   3.682  20.377  0.00  0.00    +0.000 NA
ATOM      9  C   UNL     1       2.733   4.995  20.099  0.00  0.00    +0.000 A 
ATOM     10  C   UNL     1       3.872   5.475  19.455  0.00  0.00    +0.000 A 
BRANCH   5  16
ATOM     11  C   UNL     1       7.080   4.594  12.741  0.00  0.00    +0.000 C 
ATOM     12  C   UNL     1       6.781   4.720  14.211  0.00  0.00    +0.000 C 
ATOM     13  N   UNL     1       7.626   5.302  14.970  0.00  0.00    +0.000 NA
ATOM     14  C   UNL     1       7.414   5.478  16.398  0.00  0.00    +0.000 C 
ATOM     15  N   UNL     1       6.210   4.910  16.977  0.00  0.00    +0.000 N 
ATOM     16  C   UNL     1       6.071   5.088  18.375  0.00  0.00    +0.000 C 
ATOM     17  O   UNL     1       6.896   5.716  19.045  0.00  0.00    +0.000 OA
ATOM     18  C   UNL     1       5.305   4.145  16.159  0.00  0.00    +0.000 C 
ATOM     19  C   UNL     1       5.488   4.141  14.668  0.00  0.00    +0.000 C 
ENDBRANCH   5  16
ENDBRANCH   1   9
BRANCH   3  20
ATOM     20  C   UNL     1       1.321   8.375  21.035  0.00  0.00    +0.000 A 
ATOM     21  C   UNL     1       0.957   8.617  22.358  0.00  0.00    +0.000 A 
ATOM     22  C   UNL     1       0.130   9.690  22.682  0.00  0.00    +0.000 A 
ATOM     23  C   UNL     1      -0.313  10.557  21.691  0.00  0.00    +0.000 A 
ATOM     24  C   UNL     1       0.087  10.375  20.360  0.00  0.00    +0.000 A 
ATOM     25  C   UNL     1       0.904   9.270  20.040  0.00  0.00    +0.000 A 
BRANCH  24  26
ATOM     26  C   UNL     1      -0.343  11.393  19.310  0.00  0.00    +0.000 C 
ATOM     27  C   UNL     1       0.855  11.840  18.465  0.00  0.00    +0.000 C 
BRANCH  26  28
ATOM     28  C   UNL     1      -1.472  10.903  18.447  0.00  0.00    +0.000 A 
ATOM     29  N   UNL     1      -1.386  10.031  17.459  0.00  0.00    +0.000 NA
ATOM     30  N   UNL     1      -2.639   9.855  16.927  0.00  0.00    +0.000 NA
ATOM     31  C   UNL     1      -3.467  10.618  17.600  0.00  0.00    +0.000 A 
ATOM     32  N   UNL     1      -2.781  11.309  18.549  0.00  0.00    +0.000 N 
ATOM     33  C   UNL     1      -3.340  12.279  19.451  0.00  0.00    +0.000 C 
ENDBRANCH  26  28
ENDBRANCH  24  26
ENDBRANCH   3  20
TORSDOF 5
ENDMDL
MODEL 6
REMARK VINA RESULT:      -9.2      2.370     10.151
REMARK  Name = 
REMARK  8 active torsions:
REMARK  status: ('A' for Active; 'I' for Inactive)
REMARK    1  A    between atoms: C_1  and  C_2
REMARK    2  A    between atoms: C_6  and  C_8
REMARK    3  A    between atoms: C_12  and  C_13
REMARK    4  A    between atoms: N_15  and  C_16
REMARK    5  A    between atoms: C_20  and  C_21
REMARK    6  A    between atoms: C_21  and  C_22
REMARK    7  A    between atoms: C_21  and  C_23
REMARK    8  A    between atoms: N_27  and  C_28
REMARK                            x       y       z     vdW  Elec       q    Type
REMARK                         _______ _______ _______ _____ _____    ______ ____
ROOT
ATOM      1  C   UNL     1       1.693   8.589  18.881  0.00  0.00    +0.000 C 
ATOM      2  O   UNL     1       1.734   8.353  17.680  0.00  0.00    +0.000 OA
ATOM      3  N   UNL     1       2.026   7.730  19.918  0.00  0.00    +0.000 N 
ATOM      4  H   UNL     1       1.819   8.076  20.851  0.00  0.00    +0.000 HD
ENDROOT
BRANCH   1   9
ATOM      5  C   UNL     1       0.050  11.291  20.939  0.00  0.00    +0.000 A 
ATOM      6  C   UNL     1       0.500  12.395  20.202  0.00  0.00    +0.000 A 
ATOM      7  C   UNL     1       1.170  12.191  19.012  0.00  0.00    +0.000 A 
ATOM      8  N   UNL     1       1.522  10.981  18.552  0.00  0.00    +0.000 NA
ATOM      9  C   UNL     1       1.187   9.920  19.337  0.00  0.00    +0.000 A 
ATOM     10  C   UNL     1       0.445  10.021  20.512  0.00  0.00    +0.000 A 
BRANCH   5  16
ATOM     11  C   UNL     1      -6.135  13.440  22.525  0.00  0.00    +0.000 C 
ATOM     12  C   UNL     1      -4.738  12.892  22.402  0.00  0.00    +0.000 C 
ATOM     13  N   UNL     1      -4.140  12.473  23.448  0.00  0.00    +0.000 NA
ATOM     14  C   UNL     1      -2.796  11.919  23.420  0.00  0.00    +0.000 C 
ATOM     15  N   UNL     1      -2.098  11.903  22.146  0.00  0.00    +0.000 N 
ATOM     16  C   UNL     1      -0.784  11.378  22.186  0.00  0.00    +0.000 C 
ATOM     17  O   UNL     1      -0.283  10.930  23.221  0.00  0.00    +0.000 OA
ATOM     18  C   UNL     1      -2.711  12.483  20.980  0.00  0.00    +0.000 C 
ATOM     19  C   UNL     1      -4.157  12.884  21.032  0.00  0.00    +0.000 C 
ENDBRANCH   5  16
ENDBRANCH   1   9
BRANCH   3  20
ATOM     20  C   UNL     1       2.493   6.402  19.790  0.00  0.00    +0.000 A 
ATOM     21  C   UNL     1       1.882   5.335  20.446  0.00  0.00    +0.000 A 
ATOM     22  C   UNL     1       2.404   4.047  20.347  0.00  0.00    +0.000 A 
ATOM     23  C   UNL     1       3.522   3.804  19.560  0.00  0.00    +0.000 A 
ATOM     24  C   UNL     1       4.122   4.845  18.839  0.00  0.00    +0.000 A 
ATOM     25  C   UNL     1       3.600   6.150  18.967  0.00  0.00    +0.000 A 
BRANCH  24  26
ATOM     26  C   UNL     1       5.293   4.531  17.915  0.00  0.00    +0.000 C 
ATOM     27  C   UNL     1       4.796   3.930  16.596  0.00  0.00    +0.000 C 
BRANCH  26  28
ATOM     28  C   UNL     1       6.186   5.716  17.677  0.00  0.00    +0.000 A 
ATOM     29  N   UNL     1       6.152   6.532  16.639  0.00  0.00    +0.000 NA
ATOM     30  N   UNL     1       7.129   7.481  16.802  0.00  0.00    +0.000 NA
ATOM     31  C   UNL     1       7.741   7.231  17.936  0.00  0.00    +0.000 A 
ATOM     32  N   UNL     1       7.199   6.125  18.511  0.00  0.00    +0.000 N 
ATOM     33  C   UNL     1       7.636   5.517  19.738  0.00  0.00    +0.000 C 
ENDBRANCH  26  28
ENDBRANCH  24  26
ENDBRANCH   3  20
TORSDOF 5
ENDMDL
MODEL 7
REMARK VINA RESULT:      -9.2      1.515      1.891
REMARK  Name = 
REMARK  8 active torsions:
REMARK  status: ('A' for Active; 'I' for Inactive)
REMARK    1  A    between atoms: C_1  and  C_2
REMARK    2  A    between atoms: C_6  and  C_8
REMARK    3  A    between atoms: C_12  and  C_13
REMARK    4  A    between atoms: N_15  and  C_16
REMARK    5  A    between atoms: C_20  and  C_21
REMARK    6  A    between atoms: C_21  and  C_22
REMARK    7  A    between atoms: C_21  and  C_23
REMARK    8  A    between atoms: N_27  and  C_28
REMARK                            x       y       z     vdW  Elec       q    Type
REMARK                         _______ _______ _______ _____ _____    ______ ____
ROOT
ATOM      1  C   UNL     1       1.748   7.666  20.051  0.00  0.00    +0.000 C 
ATOM      2  O   UNL     1       1.239   7.919  21.136  0.00  0.00    +0.000 OA
ATOM      3  N   UNL     1       1.805   8.489  18.937  0.00  0.00    +0.000 N 
ATOM      4  H   UNL     1       2.173   8.054  18.096  0.00  0.00    +0.000 HD
ENDROOT
BRANCH   1   9
ATOM      5  C   UNL     1       4.210   4.908  19.295  0.00  0.00    +0.000 A 
ATOM      6  C   UNL     1       3.410   3.825  19.682  0.00  0.00    +0.000 A 
ATOM      7  C   UNL     1       2.087   4.039  20.013  0.00  0.00    +0.000 A 
ATOM      8  N   UNL     1       1.526   5.255  20.094  0.00  0.00    +0.000 NA
ATOM      9  C   UNL     1       2.345   6.311  19.835  0.00  0.00    +0.000 A 
ATOM     10  C   UNL     1       3.669   6.190  19.420  0.00  0.00    +0.000 A 
BRANCH   5  16
ATOM     11  C   UNL     1       7.293   4.624  13.312  0.00  0.00    +0.000 C 
ATOM     12  C   UNL     1       6.827   4.686  14.742  0.00  0.00    +0.000 C 
ATOM     13  N   UNL     1       7.687   4.603  15.680  0.00  0.00    +0.000 NA
ATOM     14  C   UNL     1       7.327   4.664  17.088  0.00  0.00    +0.000 C 
ATOM     15  N   UNL     1       5.917   4.766  17.422  0.00  0.00    +0.000 N 
ATOM     16  C   UNL     1       5.626   4.794  18.807  0.00  0.00    +0.000 C 
ATOM     17  O   UNL     1       6.510   4.773  19.668  0.00  0.00    +0.000 OA
ATOM     18  C   UNL     1       4.925   4.738  16.379  0.00  0.00    +0.000 C 
ATOM     19  C   UNL     1       5.361   4.844  14.946  0.00  0.00    +0.000 C 
ENDBRANCH   5  16
ENDBRANCH   1   9
BRANCH   3  20
ATOM     20  C   UNL     1       1.289   9.801  18.836  0.00  0.00    +0.000 A 
ATOM     21  C   UNL     1       2.092  10.890  18.506  0.00  0.00    +0.000 A 
ATOM     22  C   UNL     1       1.565  12.180  18.476  0.00  0.00    +0.000 A 
ATOM     23  C   UNL     1       0.218  12.390  18.740  0.00  0.00    +0.000 A 
ATOM     24  C   UNL     1      -0.630  11.308  19.015  0.00  0.00    +0.000 A 
ATOM     25  C   UNL     1      -0.079  10.010  19.068  0.00  0.00    +0.000 A 
BRANCH  24  26
ATOM     26  C   UNL     1      -2.119  11.562  19.213  0.00  0.00    +0.000 C 
ATOM     27  C   UNL     1      -2.354  12.928  19.867  0.00  0.00    +0.000 C 
BRANCH  26  28
ATOM     28  C   UNL     1      -2.912  11.416  17.944  0.00  0.00    +0.000 A 
ATOM     29  N   UNL     1      -2.426  11.222  16.732  0.00  0.00    +0.000 NA
ATOM     30  N   UNL     1      -3.478  11.142  15.853  0.00  0.00    +0.000 NA
ATOM     31  C   UNL     1      -4.584  11.286  16.542  0.00  0.00    +0.000 A 
ATOM     32  N   UNL     1      -4.281  11.480  17.854  0.00  0.00    +0.000 N 
ATOM     33  C   UNL     1      -5.229  11.721  18.908  0.00  0.00    +0.000 C 
ENDBRANCH  26  28
ENDBRANCH  24  26
ENDBRANCH   3  20
TORSDOF 5
ENDMDL
MODEL 8
REMARK VINA RESULT:      -9.2      3.096     10.108
REMARK  Name = 
REMARK  8 active torsions:
REMARK  status: ('A' for Active; 'I' for Inactive)
REMARK    1  A    between atoms: C_1  and  C_2
REMARK    2  A    between atoms: C_6  and  C_8
REMARK    3  A    between atoms: C_12  and  C_13
REMARK    4  A    between atoms: N_15  and  C_16
REMARK    5  A    between atoms: C_20  and  C_21
REMARK    6  A    between atoms: C_21  and  C_22
REMARK    7  A    between atoms: C_21  and  C_23
REMARK    8  A    between atoms: N_27  and  C_28
REMARK                            x       y       z     vdW  Elec       q    Type
REMARK                         _______ _______ _______ _____ _____    ______ ____
ROOT
ATOM      1  C   UNL     1       1.430   9.136  18.263  0.00  0.00    +0.000 C 
ATOM      2  O   UNL     1       0.652   8.825  17.370  0.00  0.00    +0.000 OA
ATOM      3  N   UNL     1       2.535   8.421  18.701  0.00  0.00    +0.000 N 
ATOM      4  H   UNL     1       2.991   8.795  19.529  0.00  0.00    +0.000 HD
ENDROOT
BRANCH   1   9
ATOM      5  C   UNL     1       0.226  11.549  20.902  0.00  0.00    +0.000 A 
ATOM      6  C   UNL     1       0.956  12.671  20.484  0.00  0.00    +0.000 A 
ATOM      7  C   UNL     1       1.662  12.620  19.299  0.00  0.00    +0.000 A 
ATOM      8  N   UNL     1       1.790  11.512  18.553  0.00  0.00    +0.000 NA
ATOM      9  C   UNL     1       1.178  10.394  19.031  0.00  0.00    +0.000 A 
ATOM     10  C   UNL     1       0.381  10.367  20.174  0.00  0.00    +0.000 A 
BRANCH   5  16
ATOM     11  C   UNL     1      -6.108  13.349  22.325  0.00  0.00    +0.000 C 
ATOM     12  C   UNL     1      -4.686  12.862  22.233  0.00  0.00    +0.000 C 
ATOM     13  N   UNL     1      -4.123  12.388  23.274  0.00  0.00    +0.000 NA
ATOM     14  C   UNL     1      -2.758  11.886  23.274  0.00  0.00    +0.000 C 
ATOM     15  N   UNL     1      -1.999  11.991  22.040  0.00  0.00    +0.000 N 
ATOM     16  C   UNL     1      -0.669  11.512  22.107  0.00  0.00    +0.000 C 
ATOM     17  O   UNL     1      -0.201  11.006  23.131  0.00  0.00    +0.000 OA
ATOM     18  C   UNL     1      -2.578  12.634  20.889  0.00  0.00    +0.000 C 
ATOM     19  C   UNL     1      -4.040  12.978  20.897  0.00  0.00    +0.000 C 
ENDBRANCH   5  16
ENDBRANCH   1   9
BRANCH   3  20
ATOM     20  C   UNL     1       2.990   7.184  18.192  0.00  0.00    +0.000 A 
ATOM     21  C   UNL     1       4.146   7.079  17.422  0.00  0.00    +0.000 A 
ATOM     22  C   UNL     1       4.533   5.854  16.883  0.00  0.00    +0.000 A 
ATOM     23  C   UNL     1       3.787   4.711  17.139  0.00  0.00    +0.000 A 
ATOM     24  C   UNL     1       2.653   4.773  17.960  0.00  0.00    +0.000 A 
ATOM     25  C   UNL     1       2.257   6.023  18.479  0.00  0.00    +0.000 A 
BRANCH  24  26
ATOM     26  C   UNL     1       1.906   3.486  18.294  0.00  0.00    +0.000 C 
ATOM     27  C   UNL     1       2.434   2.319  17.454  0.00  0.00    +0.000 C 
BRANCH  26  28
ATOM     28  C   UNL     1       1.927   3.161  19.762  0.00  0.00    +0.000 A 
ATOM     29  N   UNL     1       0.916   3.265  20.605  0.00  0.00    +0.000 NA
ATOM     30  N   UNL     1       1.347   2.872  21.848  0.00  0.00    +0.000 NA
ATOM     31  C   UNL     1       2.610   2.534  21.741  0.00  0.00    +0.000 A 
ATOM     32  N   UNL     1       3.024   2.716  20.459  0.00  0.00    +0.000 N 
ATOM     33  C   UNL     1       4.357   2.495  19.967  0.00  0.00    +0.000 C 
ENDBRANCH  26  28
ENDBRANCH  24  26
ENDBRANCH   3  20
TORSDOF 5
ENDMDL
MODEL 9
REMARK VINA RESULT:      -9.1      2.439     10.356
REMARK  Name = 
REMARK  8 active torsions:
REMARK  status: ('A' for Active; 'I' for Inactive)
REMARK    1  A    between atoms: C_1  and  C_2
REMARK    2  A    between atoms: C_6  and  C_8
REMARK    3  A    between atoms: C_12  and  C_13
REMARK    4  A    between atoms: N_15  and  C_16
REMARK    5  A    between atoms: C_20  and  C_21
REMARK    6  A    between atoms: C_21  and  C_22
REMARK    7  A    between atoms: C_21  and  C_23
REMARK    8  A    between atoms: N_27  and  C_28
REMARK                            x       y       z     vdW  Elec       q    Type
REMARK                         _______ _______ _______ _____ _____    ______ ____
ROOT
ATOM      1  C   UNL     1       1.688   8.436  19.132  0.00  0.00    +0.000 C 
ATOM      2  O   UNL     1       1.696   7.982  20.270  0.00  0.00    +0.000 OA
ATOM      3  N   UNL     1       2.116   7.805  17.973  0.00  0.00    +0.000 N 
ATOM      4  H   UNL     1       2.131   8.390  17.142  0.00  0.00    +0.000 HD
ENDROOT
BRANCH   1   9
ATOM      5  C   UNL     1      -0.467  11.532  19.082  0.00  0.00    +0.000 A 
ATOM      6  C   UNL     1       0.525  12.451  18.714  0.00  0.00    +0.000 A 
ATOM      7  C   UNL     1       1.778  11.994  18.358  0.00  0.00    +0.000 A 
ATOM      8  N   UNL     1       2.155  10.709  18.443  0.00  0.00    +0.000 NA
ATOM      9  C   UNL     1       1.221   9.841  18.919  0.00  0.00    +0.000 A 
ATOM     10  C   UNL     1      -0.090  10.195  19.230  0.00  0.00    +0.000 A 
BRANCH   5  16
ATOM     11  C   UNL     1      -4.150  12.683  24.605  0.00  0.00    +0.000 C 
ATOM     12  C   UNL     1      -3.527  12.483  23.249  0.00  0.00    +0.000 C 
ATOM     13  N   UNL     1      -4.258  12.586  22.208  0.00  0.00    +0.000 NA
ATOM     14  C   UNL     1      -3.738  12.420  20.860  0.00  0.00    +0.000 C 
ATOM     15  N   UNL     1      -2.337  12.065  20.714  0.00  0.00    +0.000 N 
ATOM     16  C   UNL     1      -1.896  11.890  19.381  0.00  0.00    +0.000 C 
ATOM     17  O   UNL     1      -2.638  12.065  18.411  0.00  0.00    +0.000 OA
ATOM     18  C   UNL     1      -1.528  11.826  21.881  0.00  0.00    +0.000 C 
ATOM     19  C   UNL     1      -2.071  12.176  23.237  0.00  0.00    +0.000 C 
ENDBRANCH   5  16
ENDBRANCH   1   9
BRANCH   3  20
ATOM     20  C   UNL     1       2.643   6.497  17.876  0.00  0.00    +0.000 A 
ATOM     21  C   UNL     1       1.842   5.364  18.010  0.00  0.00    +0.000 A 
ATOM     22  C   UNL     1       2.402   4.089  17.971  0.00  0.00    +0.000 A 
ATOM     23  C   UNL     1       3.766   3.931  17.760  0.00  0.00    +0.000 A 
ATOM     24  C   UNL     1       4.588   5.048  17.560  0.00  0.00    +0.000 A 
ATOM     25  C   UNL     1       4.013   6.335  17.627  0.00  0.00    +0.000 A 
BRANCH  24  26
ATOM     26  C   UNL     1       6.064   4.838  17.243  0.00  0.00    +0.000 C 
ATOM     27  C   UNL     1       6.241   4.298  15.820  0.00  0.00    +0.000 C 
BRANCH  26  28
ATOM     28  C   UNL     1       6.893   6.071  17.472  0.00  0.00    +0.000 A 
ATOM     29  N   UNL     1       7.062   7.072  16.627  0.00  0.00    +0.000 NA
ATOM     30  N   UNL     1       7.889   7.998  17.214  0.00  0.00    +0.000 NA
ATOM     31  C   UNL     1       8.207   7.548  18.405  0.00  0.00    +0.000 A 
ATOM     32  N   UNL     1       7.624   6.336  18.604  0.00  0.00    +0.000 N 
ATOM     33  C   UNL     1       7.777   5.512  19.773  0.00  0.00    +0.000 C 
ENDBRANCH  26  28
ENDBRANCH  24  26
ENDBRANCH   3  20
TORSDOF 5
ENDMDL
