MODEL 1
REMARK VINA RESULT:      -8.5      0.000      0.000
REMARK  Name = 
REMARK  7 active torsions:
REMARK  status: ('A' for Active; 'I' for Inactive)
REMARK    1  A    between atoms: C_2  and  C_3
REMARK    2  A    between atoms: C_2  and  C_10
REMARK    3  A    between atoms: C_3  and  C_4
REMARK    4  A    between atoms: N_8  and  C_9
REMARK    5  A    between atoms: C_14  and  N_15
REMARK    6  A    between atoms: C_23  and  C_24
REMARK    7  A    between atoms: C_24  and  C_25
REMARK                            x       y       z     vdW  Elec       q    Type
REMARK                         _______ _______ _______ _____ _____    ______ ____
ROOT
ATOM      1  C   UNL     1       2.355   7.014  19.257  0.00  0.00    +0.000 A 
ATOM      2  C   UNL     1       2.286   7.536  17.964  0.00  0.00    +0.000 A 
ATOM      3  C   UNL     1       1.910   8.864  17.771  0.00  0.00    +0.000 A 
ATOM      4  C   UNL     1       1.480   9.618  18.849  0.00  0.00    +0.000 A 
ATOM      5  C   UNL     1       1.252   8.994  20.088  0.00  0.00    +0.000 A 
ATOM      6  C   UNL     1       1.829   7.739  20.330  0.00  0.00    +0.000 A 
ENDROOT
BRANCH   5   7
ATOM      7  N   UNL     1       0.087   9.385  20.878  0.00  0.00    +0.000 N 
ATOM      8  C   UNL     1      -1.141   9.258  20.052  0.00  0.00    +0.000 C 
ATOM      9  C   UNL     1      -1.222  10.613  19.409  0.00  0.00    +0.000 A 
ATOM     10  C   UNL     1      -0.615  11.522  20.290  0.00  0.00    +0.000 A 
ATOM     11  C   UNL     1      -0.351  12.835  19.956  0.00  0.00    +0.000 A 
ATOM     12  C   UNL     1      -0.692  13.224  18.671  0.00  0.00    +0.000 A 
ATOM     13  F   UNL     1      -0.378  14.461  18.256  0.00  0.00    +0.000 F 
ATOM     14  C   UNL     1      -1.283  12.336  17.760  0.00  0.00    +0.000 A 
ATOM     15  C   UNL     1      -1.560  10.997  18.115  0.00  0.00    +0.000 A 
ATOM     16  C   UNL     1       0.093  10.730  21.335  0.00  0.00    +0.000 C 
ATOM     17  O   UNL     1       0.725  11.224  22.241  0.00  0.00    +0.000 OA
BRANCH  15  18
ATOM     18  C   UNL     1      -2.112  10.048  17.076  0.00  0.00    +0.000 C 
ATOM     19  C   UNL     1      -2.632  10.811  15.871  0.00  0.00    +0.000 C 
ATOM     20  F   UNL     1      -1.167   9.168  16.635  0.00  0.00    +0.000 F 
ATOM     21  F   UNL     1      -3.129   9.270  17.544  0.00  0.00    +0.000 F 
ENDBRANCH  15  18
ENDBRANCH   5   7
BRANCH   1  23
ATOM     22  C   UNL     1       2.545   4.939  20.505  0.00  0.00    +0.000 C 
ATOM     23  C   UNL     1       2.931   5.680  19.455  0.00  0.00    +0.000 C 
BRANCH  23  24
ATOM     24  C   UNL     1       3.929   5.220  18.409  0.00  0.00    +0.000 C 
BRANCH  24  25
ATOM     25  C   UNL     1       5.365   5.436  18.768  0.00  0.00    +0.000 A 
ATOM     26  N   UNL     1       5.973   4.942  19.830  0.00  0.00    +0.000 NA
ATOM     27  N   UNL     1       7.295   5.309  19.781  0.00  0.00    +0.000 NA
ATOM     28  C   UNL     1       7.468   6.025  18.697  0.00  0.00    +0.000 A 
ATOM     29  N   UNL     1       6.280   6.163  18.046  0.00  0.00    +0.000 N 
ATOM     30  C   UNL     1       6.069   6.947  16.860  0.00  0.00    +0.000 C 
ENDBRANCH  24  25
ENDBRANCH  23  24
ENDBRANCH   1  23
TORSDOF 5
ENDMDL
MODEL 2
REMARK VINA RESULT:      -8.4      3.912      8.252
REMARK  Name = 
REMARK  7 active torsions:
REMARK  status: ('A' for Active; 'I' for Inactive)
REMARK    1  A    between atoms: C_2  and  C_3
REMARK    2  A    between atoms: C_2  and  C_10
REMARK    3  A    between atoms: C_3  and  C_4
REMARK    4  A    between atoms: N_8  and  C_9
REMARK    5  A    between atoms: C_14  and  N_15
REMARK    6  A    between atoms: C_23  and  C_24
REMARK    7  A    between atoms: C_24  and  C_25
REMARK                            x       y       z     vdW  Elec       q    Type
REMARK                         _______ _______ _______ _____ _____    ______ ____
ROOT
ATOM      1  C   UNL     1       1.964   7.985  19.506  0.00  0.00    +0.000 A 
ATOM      2  C   UNL     1       2.469   8.547  18.333  0.00  0.00    +0.000 A 
ATOM      3  C   UNL     1       3.006   7.725  17.344  0.00  0.00    +0.000 A 
ATOM      4  C   UNL     1       3.155   6.369  17.587  0.00  0.00    +0.000 A 
ATOM      5  C   UNL     1       2.939   5.867  18.881  0.00  0.00    +0.000 A 
ATOM      6  C   UNL     1       2.203   6.638  19.793  0.00  0.00    +0.000 A 
ENDROOT
BRANCH   5   7
ATOM      7  N   UNL     1       3.840   4.845  19.407  0.00  0.00    +0.000 N 
ATOM      8  C   UNL     1       5.227   5.374  19.446  0.00  0.00    +0.000 C 
ATOM      9  C   UNL     1       5.736   5.006  18.081  0.00  0.00    +0.000 A 
ATOM     10  C   UNL     1       5.042   3.852  17.682  0.00  0.00    +0.000 A 
ATOM     11  C   UNL     1       5.122   3.325  16.410  0.00  0.00    +0.000 A 
ATOM     12  C   UNL     1       5.916   4.014  15.507  0.00  0.00    +0.000 A 
ATOM     13  F   UNL     1       5.963   3.604  14.230  0.00  0.00    +0.000 F 
ATOM     14  C   UNL     1       6.608   5.180  15.867  0.00  0.00    +0.000 A 
ATOM     15  C   UNL     1       6.527   5.705  17.176  0.00  0.00    +0.000 A 
ATOM     16  C   UNL     1       3.915   3.654  18.637  0.00  0.00    +0.000 C 
ATOM     17  O   UNL     1       3.120   2.744  18.561  0.00  0.00    +0.000 OA
BRANCH  15  18
ATOM     18  C   UNL     1       7.214   7.013  17.498  0.00  0.00    +0.000 C 
ATOM     19  C   UNL     1       8.106   6.867  18.718  0.00  0.00    +0.000 C 
ATOM     20  F   UNL     1       7.990   7.451  16.464  0.00  0.00    +0.000 F 
ATOM     21  F   UNL     1       6.342   8.033  17.742  0.00  0.00    +0.000 F 
ENDBRANCH  15  18
ENDBRANCH   5   7
BRANCH   1  23
ATOM     22  C   UNL     1       1.304   8.590  21.764  0.00  0.00    +0.000 C 
ATOM     23  C   UNL     1       1.235   8.841  20.447  0.00  0.00    +0.000 C 
BRANCH  23  24
ATOM     24  C   UNL     1       0.459   9.995  19.840  0.00  0.00    +0.000 C 
BRANCH  24  25
ATOM     25  C   UNL     1       0.857  11.351  20.332  0.00  0.00    +0.000 A 
ATOM     26  N   UNL     1       0.505  11.881  21.488  0.00  0.00    +0.000 NA
ATOM     27  N   UNL     1       1.114  13.107  21.604  0.00  0.00    +0.000 NA
ATOM     28  C   UNL     1       1.818  13.305  20.516  0.00  0.00    +0.000 A 
ATOM     29  N   UNL     1       1.661  12.247  19.672  0.00  0.00    +0.000 N 
ATOM     30  C   UNL     1       2.222  12.149  18.352  0.00  0.00    +0.000 C 
ENDBRANCH  24  25
ENDBRANCH  23  24
ENDBRANCH   1  23
TORSDOF 5
ENDMDL
MODEL 3
REMARK VINA RESULT:      -8.3      1.019      1.221
REMARK  Name = 
REMARK  7 active torsions:
REMARK  status: ('A' for Active; 'I' for Inactive)
REMARK    1  A    between atoms: C_2  and  C_3
REMARK    2  A    between atoms: C_2  and  C_10
REMARK    3  A    between atoms: C_3  and  C_4
REMARK    4  A    between atoms: N_8  and  C_9
REMARK    5  A    between atoms: C_14  and  N_15
REMARK    6  A    between atoms: C_23  and  C_24
REMARK    7  A    between atoms: C_24  and  C_25
REMARK                            x       y       z     vdW  Elec       q    Type
REMARK                         _______ _______ _______ _____ _____    ______ ____
ROOT
ATOM      1  C   UNL     1       2.554   6.086  19.024  0.00  0.00    +0.000 A 
ATOM      2  C   UNL     1       2.375   6.796  17.836  0.00  0.00    +0.000 A 
ATOM      3  C   UNL     1       2.081   8.158  17.878  0.00  0.00    +0.000 A 
ATOM      4  C   UNL     1       1.839   8.769  19.097  0.00  0.00    +0.000 A 
ATOM      5  C   UNL     1       1.709   7.984  20.255  0.00  0.00    +0.000 A 
ATOM      6  C   UNL     1       2.213   6.675  20.246  0.00  0.00    +0.000 A 
ENDROOT
BRANCH   5   7
ATOM      7  N   UNL     1       0.677   8.322  21.232  0.00  0.00    +0.000 N 
ATOM      8  C   UNL     1      -0.603   8.594  20.530  0.00  0.00    +0.000 C 
ATOM      9  C   UNL     1      -0.496  10.067  20.253  0.00  0.00    +0.000 A 
ATOM     10  C   UNL     1       0.308  10.617  21.264  0.00  0.00    +0.000 A 
ATOM     11  C   UNL     1       0.767  11.918  21.240  0.00  0.00    +0.000 A 
ATOM     12  C   UNL     1       0.417  12.673  20.132  0.00  0.00    +0.000 A 
ATOM     13  F   UNL     1       0.908  13.917  20.005  0.00  0.00    +0.000 F 
ATOM     14  C   UNL     1      -0.369  12.150  19.096  0.00  0.00    +0.000 A 
ATOM     15  C   UNL     1      -0.843  10.820  19.136  0.00  0.00    +0.000 A 
ATOM     16  C   UNL     1       0.936   9.486  22.003  0.00  0.00    +0.000 C 
ATOM     17  O   UNL     1       1.696   9.630  22.934  0.00  0.00    +0.000 OA
BRANCH  15  18
ATOM     18  C   UNL     1      -1.610  10.265  17.957  0.00  0.00    +0.000 C 
ATOM     19  C   UNL     1      -2.168  11.386  17.100  0.00  0.00    +0.000 C 
ATOM     20  F   UNL     1      -0.824   9.483  17.160  0.00  0.00    +0.000 F 
ATOM     21  F   UNL     1      -2.651   9.464  18.320  0.00  0.00    +0.000 F 
ENDBRANCH  15  18
ENDBRANCH   5   7
BRANCH   1  23
ATOM     22  C   UNL     1       2.417   3.744  19.655  0.00  0.00    +0.000 C 
ATOM     23  C   UNL     1       3.047   4.707  18.961  0.00  0.00    +0.000 C 
BRANCH  23  24
ATOM     24  C   UNL     1       4.248   4.464  18.068  0.00  0.00    +0.000 C 
BRANCH  24  25
ATOM     25  C   UNL     1       5.540   5.011  18.585  0.00  0.00    +0.000 A 
ATOM     26  N   UNL     1       6.128   4.655  19.712  0.00  0.00    +0.000 NA
ATOM     27  N   UNL     1       7.320   5.329  19.811  0.00  0.00    +0.000 NA
ATOM     28  C   UNL     1       7.434   6.090  18.749  0.00  0.00    +0.000 A 
ATOM     29  N   UNL     1       6.327   5.952  17.968  0.00  0.00    +0.000 N 
ATOM     30  C   UNL     1       6.066   6.688  16.760  0.00  0.00    +0.000 C 
ENDBRANCH  24  25
ENDBRANCH  23  24
ENDBRANCH   1  23
TORSDOF 5
ENDMDL
MODEL 4
REMARK VINA RESULT:      -8.3      1.710      2.490
REMARK  Name = 
REMARK  7 active torsions:
REMARK  status: ('A' for Active; 'I' for Inactive)
REMARK    1  A    between atoms: C_2  and  C_3
REMARK    2  A    between atoms: C_2  and  C_10
REMARK    3  A    between atoms: C_3  and  C_4
REMARK    4  A    between atoms: N_8  and  C_9
REMARK    5  A    between atoms: C_14  and  N_15
REMARK    6  A    between atoms: C_23  and  C_24
REMARK    7  A    between atoms: C_24  and  C_25
REMARK                            x       y       z     vdW  Elec       q    Type
REMARK                         _______ _______ _______ _____ _____    ______ ____
ROOT
ATOM      1  C   UNL     1       2.459   7.297  18.749  0.00  0.00    +0.000 A 
ATOM      2  C   UNL     1       2.420   8.156  17.650  0.00  0.00    +0.000 A 
ATOM      3  C   UNL     1       2.040   9.486  17.821  0.00  0.00    +0.000 A 
ATOM      4  C   UNL     1       1.577   9.913  19.054  0.00  0.00    +0.000 A 
ATOM      5  C   UNL     1       1.320   8.971  20.065  0.00  0.00    +0.000 A 
ATOM      6  C   UNL     1       1.900   7.698  19.966  0.00  0.00    +0.000 A 
ENDROOT
BRANCH   5   7
ATOM      7  N   UNL     1       0.133   9.129  20.900  0.00  0.00    +0.000 N 
ATOM      8  C   UNL     1      -1.087   9.012  20.060  0.00  0.00    +0.000 C 
ATOM      9  C   UNL     1      -1.301  10.435  19.627  0.00  0.00    +0.000 A 
ATOM     10  C   UNL     1      -0.771  11.255  20.636  0.00  0.00    +0.000 A 
ATOM     11  C   UNL     1      -0.633  12.622  20.504  0.00  0.00    +0.000 A 
ATOM     12  C   UNL     1      -1.023  13.165  19.291  0.00  0.00    +0.000 A 
ATOM     13  F   UNL     1      -0.829  14.474  19.067  0.00  0.00    +0.000 F 
ATOM     14  C   UNL     1      -1.538  12.372  18.255  0.00  0.00    +0.000 A 
ATOM     15  C   UNL     1      -1.685  10.975  18.404  0.00  0.00    +0.000 A 
ATOM     16  C   UNL     1       0.018  10.385  21.554  0.00  0.00    +0.000 C 
ATOM     17  O   UNL     1       0.611  10.795  22.526  0.00  0.00    +0.000 OA
BRANCH  15  18
ATOM     18  C   UNL     1      -2.158  10.145  17.232  0.00  0.00    +0.000 C 
ATOM     19  C   UNL     1      -2.603  11.034  16.086  0.00  0.00    +0.000 C 
ATOM     20  F   UNL     1      -1.177   9.320  16.763  0.00  0.00    +0.000 F 
ATOM     21  F   UNL     1      -3.196   9.318  17.543  0.00  0.00    +0.000 F 
ENDBRANCH  15  18
ENDBRANCH   5   7
BRANCH   1  23
ATOM     22  C   UNL     1       4.351   5.832  18.332  0.00  0.00    +0.000 C 
ATOM     23  C   UNL     1       3.039   5.961  18.586  0.00  0.00    +0.000 C 
BRANCH  23  24
ATOM     24  C   UNL     1       2.085   4.792  18.750  0.00  0.00    +0.000 C 
BRANCH  24  25
ATOM     25  C   UNL     1       2.294   3.975  19.985  0.00  0.00    +0.000 A 
ATOM     26  N   UNL     1       1.755   4.217  21.165  0.00  0.00    +0.000 NA
ATOM     27  N   UNL     1       2.132   3.217  22.027  0.00  0.00    +0.000 NA
ATOM     28  C   UNL     1       2.899   2.388  21.360  0.00  0.00    +0.000 A 
ATOM     29  N   UNL     1       3.059   2.840  20.085  0.00  0.00    +0.000 N 
ATOM     30  C   UNL     1       3.896   2.230  19.088  0.00  0.00    +0.000 C 
ENDBRANCH  24  25
ENDBRANCH  23  24
ENDBRANCH   1  23
TORSDOF 5
ENDMDL
MODEL 5
REMARK VINA RESULT:      -8.3      3.424      8.276
REMARK  Name = 
REMARK  7 active torsions:
REMARK  status: ('A' for Active; 'I' for Inactive)
REMARK    1  A    between atoms: C_2  and  C_3
REMARK    2  A    between atoms: C_2  and  C_10
REMARK    3  A    between atoms: C_3  and  C_4
REMARK    4  A    between atoms: N_8  and  C_9
REMARK    5  A    between atoms: C_14  and  N_15
REMARK    6  A    between atoms: C_23  and  C_24
REMARK    7  A    between atoms: C_24  and  C_25
REMARK                            x       y       z     vdW  Elec       q    Type
REMARK                         _______ _______ _______ _____ _____    ______ ____
ROOT
ATOM      1  C   UNL     1       1.158   9.170  19.539  0.00  0.00    +0.000 A 
ATOM      2  C   UNL     1       1.755   9.610  18.358  0.00  0.00    +0.000 A 
ATOM      3  C   UNL     1       2.481   8.716  17.572  0.00  0.00    +0.000 A 
ATOM      4  C   UNL     1       2.715   7.432  18.033  0.00  0.00    +0.000 A 
ATOM      5  C   UNL     1       2.383   7.097  19.357  0.00  0.00    +0.000 A 
ATOM      6  C   UNL     1       1.475   7.909  20.053  0.00  0.00    +0.000 A 
ENDROOT
BRANCH   5   7
ATOM      7  N   UNL     1       3.296   6.258  20.129  0.00  0.00    +0.000 N 
ATOM      8  C   UNL     1       4.527   6.003  19.339  0.00  0.00    +0.000 C 
ATOM      9  C   UNL     1       4.155   4.761  18.581  0.00  0.00    +0.000 A 
ATOM     10  C   UNL     1       3.225   4.063  19.368  0.00  0.00    +0.000 A 
ATOM     11  C   UNL     1       2.529   2.960  18.916  0.00  0.00    +0.000 A 
ATOM     12  C   UNL     1       2.772   2.573  17.608  0.00  0.00    +0.000 A 
ATOM     13  F   UNL     1       2.061   1.564  17.080  0.00  0.00    +0.000 F 
ATOM     14  C   UNL     1       3.680   3.259  16.788  0.00  0.00    +0.000 A 
ATOM     15  C   UNL     1       4.395   4.381  17.264  0.00  0.00    +0.000 A 
ATOM     16  C   UNL     1       2.794   4.973  20.466  0.00  0.00    +0.000 C 
ATOM     17  O   UNL     1       1.986   4.669  21.315  0.00  0.00    +0.000 OA
BRANCH  15  18
ATOM     18  C   UNL     1       5.295   5.147  16.322  0.00  0.00    +0.000 C 
ATOM     19  C   UNL     1       5.564   4.345  15.062  0.00  0.00    +0.000 C 
ATOM     20  F   UNL     1       4.745   6.339  15.948  0.00  0.00    +0.000 F 
ATOM     21  F   UNL     1       6.499   5.471  16.872  0.00  0.00    +0.000 F 
ENDBRANCH  15  18
ENDBRANCH   5   7
BRANCH   1  23
ATOM     22  C   UNL     1      -0.186   9.741  21.481  0.00  0.00    +0.000 C 
ATOM     23  C   UNL     1       0.246  10.070  20.253  0.00  0.00    +0.000 C 
BRANCH  23  24
ATOM     24  C   UNL     1      -0.126  11.353  19.534  0.00  0.00    +0.000 C 
BRANCH  24  25
ATOM     25  C   UNL     1      -1.586  11.521  19.257  0.00  0.00    +0.000 A 
ATOM     26  N   UNL     1      -2.422  12.256  19.966  0.00  0.00    +0.000 NA
ATOM     27  N   UNL     1      -3.656  12.207  19.366  0.00  0.00    +0.000 NA
ATOM     28  C   UNL     1      -3.553  11.438  18.309  0.00  0.00    +0.000 A 
ATOM     29  N   UNL     1      -2.283  10.956  18.218  0.00  0.00    +0.000 N 
ATOM     30  C   UNL     1      -1.819  10.021  17.229  0.00  0.00    +0.000 C 
ENDBRANCH  24  25
ENDBRANCH  23  24
ENDBRANCH   1  23
TORSDOF 5
ENDMDL
MODEL 6
REMARK VINA RESULT:      -8.2      3.472      8.309
REMARK  Name = 
REMARK  7 active torsions:
REMARK  status: ('A' for Active; 'I' for Inactive)
REMARK    1  A    between atoms: C_2  and  C_3
REMARK    2  A    between atoms: C_2  and  C_10
REMARK    3  A    between atoms: C_3  and  C_4
REMARK    4  A    between atoms: N_8  and  C_9
REMARK    5  A    between atoms: C_14  and  N_15
REMARK    6  A    between atoms: C_23  and  C_24
REMARK    7  A    between atoms: C_24  and  C_25
REMARK                            x       y       z     vdW  Elec       q    Type
REMARK                         _______ _______ _______ _____ _____    ______ ____
ROOT
ATOM      1  C   UNL     1       1.171   9.151  19.522  0.00  0.00    +0.000 A 
ATOM      2  C   UNL     1       1.784   9.591  18.349  0.00  0.00    +0.000 A 
ATOM      3  C   UNL     1       2.509   8.695  17.566  0.00  0.00    +0.000 A 
ATOM      4  C   UNL     1       2.728   7.406  18.024  0.00  0.00    +0.000 A 
ATOM      5  C   UNL     1       2.381   7.069  19.344  0.00  0.00    +0.000 A 
ATOM      6  C   UNL     1       1.473   7.886  20.034  0.00  0.00    +0.000 A 
ENDROOT
BRANCH   5   7
ATOM      7  N   UNL     1       3.279   6.220  20.121  0.00  0.00    +0.000 N 
ATOM      8  C   UNL     1       4.509   5.944  19.336  0.00  0.00    +0.000 C 
ATOM      9  C   UNL     1       4.121   4.705  18.580  0.00  0.00    +0.000 A 
ATOM     10  C   UNL     1       3.179   4.023  19.366  0.00  0.00    +0.000 A 
ATOM     11  C   UNL     1       2.469   2.929  18.915  0.00  0.00    +0.000 A 
ATOM     12  C   UNL     1       2.710   2.535  17.609  0.00  0.00    +0.000 A 
ATOM     13  F   UNL     1       1.986   1.535  17.082  0.00  0.00    +0.000 F 
ATOM     14  C   UNL     1       3.631   3.205  16.790  0.00  0.00    +0.000 A 
ATOM     15  C   UNL     1       4.360   4.318  17.265  0.00  0.00    +0.000 A 
ATOM     16  C   UNL     1       2.757   4.943  20.460  0.00  0.00    +0.000 C 
ATOM     17  O   UNL     1       1.943   4.653  21.307  0.00  0.00    +0.000 OA
BRANCH  15  18
ATOM     18  C   UNL     1       5.274   5.068  16.323  0.00  0.00    +0.000 C 
ATOM     19  C   UNL     1       5.511   4.272  15.053  0.00  0.00    +0.000 C 
ATOM     20  F   UNL     1       4.755   6.279  15.966  0.00  0.00    +0.000 F 
ATOM     21  F   UNL     1       6.491   5.353  16.867  0.00  0.00    +0.000 F 
ENDBRANCH  15  18
ENDBRANCH   5   7
BRANCH   1  23
ATOM     22  C   UNL     1      -0.169   9.737  21.463  0.00  0.00    +0.000 C 
ATOM     23  C   UNL     1       0.260  10.056  20.230  0.00  0.00    +0.000 C 
BRANCH  23  24
ATOM     24  C   UNL     1      -0.116  11.333  19.503  0.00  0.00    +0.000 C 
BRANCH  24  25
ATOM     25  C   UNL     1      -1.436  11.294  18.801  0.00  0.00    +0.000 A 
ATOM     26  N   UNL     1      -1.696  10.626  17.692  0.00  0.00    +0.000 NA
ATOM     27  N   UNL     1      -3.026  10.787  17.393  0.00  0.00    +0.000 NA
ATOM     28  C   UNL     1      -3.551  11.554  18.317  0.00  0.00    +0.000 A 
ATOM     29  N   UNL     1      -2.586  11.927  19.203  0.00  0.00    +0.000 N 
ATOM     30  C   UNL     1      -2.775  12.829  20.306  0.00  0.00    +0.000 C 
ENDBRANCH  24  25
ENDBRANCH  23  24
ENDBRANCH   1  23
TORSDOF 5
ENDMDL
MODEL 7
REMARK VINA RESULT:      -8.1      3.634      8.192
REMARK  Name = 
REMARK  7 active torsions:
REMARK  status: ('A' for Active; 'I' for Inactive)
REMARK    1  A    between atoms: C_2  and  C_3
REMARK    2  A    between atoms: C_2  and  C_10
REMARK    3  A    between atoms: C_3  and  C_4
REMARK    4  A    between atoms: N_8  and  C_9
REMARK    5  A    between atoms: C_14  and  N_15
REMARK    6  A    between atoms: C_23  and  C_24
REMARK    7  A    between atoms: C_24  and  C_25
REMARK                            x       y       z     vdW  Elec       q    Type
REMARK                         _______ _______ _______ _____ _____    ______ ____
ROOT
ATOM      1  C   UNL     1       1.189   9.073  19.709  0.00  0.00    +0.000 A 
ATOM      2  C   UNL     1       1.726   9.500  18.494  0.00  0.00    +0.000 A 
ATOM      3  C   UNL     1       2.393   8.593  17.672  0.00  0.00    +0.000 A 
ATOM      4  C   UNL     1       2.633   7.307  18.124  0.00  0.00    +0.000 A 
ATOM      5  C   UNL     1       2.371   6.981  19.466  0.00  0.00    +0.000 A 
ATOM      6  C   UNL     1       1.516   7.809  20.209  0.00  0.00    +0.000 A 
ENDROOT
BRANCH   5   7
ATOM      7  N   UNL     1       3.313   6.131  20.189  0.00  0.00    +0.000 N 
ATOM      8  C   UNL     1       4.526   5.914  19.360  0.00  0.00    +0.000 C 
ATOM      9  C   UNL     1       4.148   4.690  18.576  0.00  0.00    +0.000 A 
ATOM     10  C   UNL     1       3.247   3.958  19.366  0.00  0.00    +0.000 A 
ATOM     11  C   UNL     1       2.552   2.861  18.900  0.00  0.00    +0.000 A 
ATOM     12  C   UNL     1       2.764   2.516  17.575  0.00  0.00    +0.000 A 
ATOM     13  F   UNL     1       2.050   1.514  17.037  0.00  0.00    +0.000 F 
ATOM     14  C   UNL     1       3.643   3.235  16.752  0.00  0.00    +0.000 A 
ATOM     15  C   UNL     1       4.357   4.351  17.242  0.00  0.00    +0.000 A 
ATOM     16  C   UNL     1       2.834   4.831  20.501  0.00  0.00    +0.000 C 
ATOM     17  O   UNL     1       2.053   4.493  21.362  0.00  0.00    +0.000 OA
BRANCH  15  18
ATOM     18  C   UNL     1       5.223   5.155  16.300  0.00  0.00    +0.000 C 
ATOM     19  C   UNL     1       5.438   4.409  14.996  0.00  0.00    +0.000 C 
ATOM     20  F   UNL     1       4.666   6.365  16.002  0.00  0.00    +0.000 F 
ATOM     21  F   UNL     1       6.451   5.450  16.816  0.00  0.00    +0.000 F 
ENDBRANCH  15  18
ENDBRANCH   5   7
BRANCH   1  23
ATOM     22  C   UNL     1      -0.200   9.588  21.634  0.00  0.00    +0.000 C 
ATOM     23  C   UNL     1       0.333   9.989  20.468  0.00  0.00    +0.000 C 
BRANCH  23  24
ATOM     24  C   UNL     1       0.133  11.369  19.871  0.00  0.00    +0.000 C 
BRANCH  24  25
ATOM     25  C   UNL     1       0.350  12.505  20.819  0.00  0.00    +0.000 A 
ATOM     26  N   UNL     1       1.522  13.008  21.158  0.00  0.00    +0.000 NA
ATOM     27  N   UNL     1       1.309  14.074  21.998  0.00  0.00    +0.000 NA
ATOM     28  C   UNL     1       0.014  14.196  22.162  0.00  0.00    +0.000 A 
ATOM     29  N   UNL     1      -0.629  13.214  21.471  0.00  0.00    +0.000 N 
ATOM     30  C   UNL     1      -2.049  12.987  21.478  0.00  0.00    +0.000 C 
ENDBRANCH  24  25
ENDBRANCH  23  24
ENDBRANCH   1  23
TORSDOF 5
ENDMDL
MODEL 8
REMARK VINA RESULT:      -8.1      3.889      8.375
REMARK  Name = 
REMARK  7 active torsions:
REMARK  status: ('A' for Active; 'I' for Inactive)
REMARK    1  A    between atoms: C_2  and  C_3
REMARK    2  A    between atoms: C_2  and  C_10
REMARK    3  A    between atoms: C_3  and  C_4
REMARK    4  A    between atoms: N_8  and  C_9
REMARK    5  A    between atoms: C_14  and  N_15
REMARK    6  A    between atoms: C_23  and  C_24
REMARK    7  A    between atoms: C_24  and  C_25
REMARK                            x       y       z     vdW  Elec       q    Type
REMARK                         _______ _______ _______ _____ _____    ______ ____
ROOT
ATOM      1  C   UNL     1       1.838   8.146  19.654  0.00  0.00    +0.000 A 
ATOM      2  C   UNL     1       2.417   8.792  18.561  0.00  0.00    +0.000 A 
ATOM      3  C   UNL     1       2.992   8.042  17.536  0.00  0.00    +0.000 A 
ATOM      4  C   UNL     1       3.104   6.669  17.672  0.00  0.00    +0.000 A 
ATOM      5  C   UNL     1       2.809   6.065  18.906  0.00  0.00    +0.000 A 
ATOM      6  C   UNL     1       2.038   6.774  19.839  0.00  0.00    +0.000 A 
ENDROOT
BRANCH   5   7
ATOM      7  N   UNL     1       3.661   4.983  19.391  0.00  0.00    +0.000 N 
ATOM      8  C   UNL     1       5.074   5.438  19.423  0.00  0.00    +0.000 C 
ATOM      9  C   UNL     1       5.545   5.082  18.042  0.00  0.00    +0.000 A 
ATOM     10  C   UNL     1       4.786   3.978  17.622  0.00  0.00    +0.000 A 
ATOM     11  C   UNL     1       4.821   3.483  16.334  0.00  0.00    +0.000 A 
ATOM     12  C   UNL     1       5.638   4.154  15.439  0.00  0.00    +0.000 A 
ATOM     13  F   UNL     1       5.647   3.778  14.150  0.00  0.00    +0.000 F 
ATOM     14  C   UNL     1       6.396   5.271  15.820  0.00  0.00    +0.000 A 
ATOM     15  C   UNL     1       6.360   5.764  17.144  0.00  0.00    +0.000 A 
ATOM     16  C   UNL     1       3.663   3.812  18.587  0.00  0.00    +0.000 C 
ATOM     17  O   UNL     1       2.820   2.947  18.498  0.00  0.00    +0.000 OA
BRANCH  15  18
ATOM     18  C   UNL     1       7.119   7.024  17.492  0.00  0.00    +0.000 C 
ATOM     19  C   UNL     1       8.003   6.804  18.706  0.00  0.00    +0.000 C 
ATOM     20  F   UNL     1       7.917   7.440  16.465  0.00  0.00    +0.000 F 
ATOM     21  F   UNL     1       6.306   8.086  17.759  0.00  0.00    +0.000 F 
ENDBRANCH  15  18
ENDBRANCH   5   7
BRANCH   1  23
ATOM     22  C   UNL     1       1.162   8.647  21.933  0.00  0.00    +0.000 C 
ATOM     23  C   UNL     1       1.075   8.936  20.625  0.00  0.00    +0.000 C 
BRANCH  23  24
ATOM     24  C   UNL     1       0.242  10.070  20.057  0.00  0.00    +0.000 C 
BRANCH  24  25
ATOM     25  C   UNL     1       0.496  11.409  20.674  0.00  0.00    +0.000 A 
ATOM     26  N   UNL     1       1.683  11.948  20.876  0.00  0.00    +0.000 NA
ATOM     27  N   UNL     1       1.505  13.203  21.402  0.00  0.00    +0.000 NA
ATOM     28  C   UNL     1       0.215  13.405  21.519  0.00  0.00    +0.000 A 
ATOM     29  N   UNL     1      -0.459  12.295  21.108  0.00  0.00    +0.000 N 
ATOM     30  C   UNL     1      -1.885  12.122  21.165  0.00  0.00    +0.000 C 
ENDBRANCH  24  25
ENDBRANCH  23  24
ENDBRANCH   1  23
TORSDOF 5
ENDMDL
MODEL 9
REMARK VINA RESULT:      -8.1      3.794      8.313
REMARK  Name = 
REMARK  7 active torsions:
REMARK  status: ('A' for Active; 'I' for Inactive)
REMARK    1  A    between atoms: C_2  and  C_3
REMARK    2  A    between atoms: C_2  and  C_10
REMARK    3  A    between atoms: C_3  and  C_4
REMARK    4  A    between atoms: N_8  and  C_9
REMARK    5  A    between atoms: C_14  and  N_15
REMARK    6  A    between atoms: C_23  and  C_24
REMARK    7  A    between atoms: C_24  and  C_25
REMARK                            x       y       z     vdW  Elec       q    Type
REMARK                         _______ _______ _______ _____ _____    ______ ____
ROOT
ATOM      1  C   UNL     1       2.251   6.071  19.847  0.00  0.00    +0.000 A 
ATOM      2  C   UNL     1       1.151   5.468  20.457  0.00  0.00    +0.000 A 
ATOM      3  C   UNL     1       1.252   4.163  20.938  0.00  0.00    +0.000 A 
ATOM      4  C   UNL     1       2.399   3.429  20.690  0.00  0.00    +0.000 A 
ATOM      5  C   UNL     1       3.369   3.931  19.806  0.00  0.00    +0.000 A 
ATOM      6  C   UNL     1       3.369   5.301  19.508  0.00  0.00    +0.000 A 
ENDROOT
BRANCH   5   7
ATOM      7  N   UNL     1       4.018   3.018  18.868  0.00  0.00    +0.000 N 
ATOM      8  C   UNL     1       5.486   3.244  18.887  0.00  0.00    +0.000 C 
ATOM      9  C   UNL     1       5.648   4.308  17.840  0.00  0.00    +0.000 A 
ATOM     10  C   UNL     1       4.604   4.137  16.916  0.00  0.00    +0.000 A 
ATOM     11  C   UNL     1       4.330   5.041  15.910  0.00  0.00    +0.000 A 
ATOM     12  C   UNL     1       5.132   6.170  15.862  0.00  0.00    +0.000 A 
ATOM     13  F   UNL     1       4.859   7.129  14.963  0.00  0.00    +0.000 F 
ATOM     14  C   UNL     1       6.172   6.381  16.779  0.00  0.00    +0.000 A 
ATOM     15  C   UNL     1       6.450   5.445  17.799  0.00  0.00    +0.000 A 
ATOM     16  C   UNL     1       3.633   3.175  17.510  0.00  0.00    +0.000 C 
ATOM     17  O   UNL     1       2.613   2.824  16.962  0.00  0.00    +0.000 OA
BRANCH  15  18
ATOM     18  C   UNL     1       7.518   5.753  18.824  0.00  0.00    +0.000 C 
ATOM     19  C   UNL     1       8.132   7.117  18.569  0.00  0.00    +0.000 C 
ATOM     20  F   UNL     1       7.021   5.750  20.095  0.00  0.00    +0.000 F 
ATOM     21  F   UNL     1       8.530   4.839  18.838  0.00  0.00    +0.000 F 
ENDBRANCH  15  18
ENDBRANCH   5   7
BRANCH   1  23
ATOM     22  C   UNL     1       2.491   7.909  18.276  0.00  0.00    +0.000 C 
ATOM     23  C   UNL     1       2.188   7.498  19.519  0.00  0.00    +0.000 C 
BRANCH  23  24
ATOM     24  C   UNL     1       1.746   8.424  20.637  0.00  0.00    +0.000 C 
BRANCH  24  25
ATOM     25  C   UNL     1       0.759   9.472  20.235  0.00  0.00    +0.000 A 
ATOM     26  N   UNL     1       0.671  10.026  19.040  0.00  0.00    +0.000 NA
ATOM     27  N   UNL     1      -0.393  10.895  19.043  0.00  0.00    +0.000 NA
ATOM     28  C   UNL     1      -0.928  10.862  20.239  0.00  0.00    +0.000 A 
ATOM     29  N   UNL     1      -0.220  10.011  21.033  0.00  0.00    +0.000 N 
ATOM     30  C   UNL     1      -0.469   9.778  22.430  0.00  0.00    +0.000 C 
ENDBRANCH  24  25
ENDBRANCH  23  24
ENDBRANCH   1  23
TORSDOF 5
ENDMDL
