MODEL 1
REMARK VINA RESULT:      -7.6      0.000      0.000
REMARK  Name = 
REMARK  4 active torsions:
REMARK  status: ('A' for Active; 'I' for Inactive)
REMARK    1  A    between atoms: C_1  and  C_2
REMARK    2  A    between atoms: C_4  and  C_5
REMARK    3  A    between atoms: C_11  and  C_12
REMARK    4  A    between atoms: N_15  and  C_16
REMARK                            x       y       z     vdW  Elec       q    Type
REMARK                         _______ _______ _______ _____ _____    ______ ____
ROOT
ATOM      1  C   UNL     1       4.197   6.236  17.833  0.00  0.00    +0.000 C 
ATOM      2  O   UNL     1       3.776   6.642  16.752  0.00  0.00    +0.000 OA
ATOM      3  N   UNL     1       5.529   5.858  17.997  0.00  0.00    +0.000 N 
ATOM      4  C   UNL     1       6.217   5.410  19.198  0.00  0.00    +0.000 C 
ATOM      5  C   UNL     1       7.569   6.086  19.130  0.00  0.00    +0.000 C 
ATOM      6  C   UNL     1       7.881   6.121  17.642  0.00  0.00    +0.000 C 
ATOM      7  C   UNL     1       6.506   6.151  16.944  0.00  0.00    +0.000 C 
ENDROOT
BRANCH   1  11
ATOM      8  C   UNL     1       1.038   8.647  20.848  0.00  0.00    +0.000 C 
ATOM      9  C   UNL     1       1.726   7.389  20.413  0.00  0.00    +0.000 A 
ATOM     10  C   UNL     1       2.712   7.419  19.445  0.00  0.00    +0.000 A 
ATOM     11  C   UNL     1       3.260   6.214  19.002  0.00  0.00    +0.000 A 
ATOM     12  C   UNL     1       2.919   4.999  19.666  0.00  0.00    +0.000 A 
ATOM     13  C   UNL     1       3.497   3.718  19.425  0.00  0.00    +0.000 A 
ATOM     14  C   UNL     1       3.105   2.592  20.149  0.00  0.00    +0.000 A 
ATOM     15  C   UNL     1       2.104   2.718  21.094  0.00  0.00    +0.000 A 
ATOM     16  F   UNL     1       1.706   1.642  21.786  0.00  0.00    +0.000 F 
ATOM     17  C   UNL     1       1.515   3.949  21.339  0.00  0.00    +0.000 A 
ATOM     18  C   UNL     1       1.919   5.089  20.660  0.00  0.00    +0.000 A 
ATOM     19  N   UNL     1       1.321   6.242  20.995  0.00  0.00    +0.000 NA
ENDBRANCH   1  11
BRANCH   7  20
ATOM     20  C   UNL     1       6.426   5.138  15.846  0.00  0.00    +0.000 A 
ATOM     21  C   UNL     1       5.821   3.859  15.909  0.00  0.00    +0.000 A 
ATOM     22  N   UNL     1       5.828   3.225  14.730  0.00  0.00    +0.000 NA
ATOM     23  N   UNL     1       6.471   4.080  13.918  0.00  0.00    +0.000 N 
ATOM     24  C   UNL     1       6.639   3.768  12.520  0.00  0.00    +0.000 C 
ATOM     25  C   UNL     1       6.860   5.229  14.541  0.00  0.00    +0.000 A 
ENDBRANCH   7  20
TORSDOF 2
ENDMDL
MODEL 2
REMARK VINA RESULT:      -7.6      2.965      6.676
REMARK  Name = 
REMARK  4 active torsions:
REMARK  status: ('A' for Active; 'I' for Inactive)
REMARK    1  A    between atoms: C_1  and  C_2
REMARK    2  A    between atoms: C_4  and  C_5
REMARK    3  A    between atoms: C_11  and  C_12
REMARK    4  A    between atoms: N_15  and  C_16
REMARK                            x       y       z     vdW  Elec       q    Type
REMARK                         _______ _______ _______ _____ _____    ______ ____
ROOT
ATOM      1  C   UNL     1       2.416   8.223  18.088  0.00  0.00    +0.000 C 
ATOM      2  O   UNL     1       2.054   8.910  17.136  0.00  0.00    +0.000 OA
ATOM      3  N   UNL     1       1.886   8.413  19.364  0.00  0.00    +0.000 N 
ATOM      4  C   UNL     1       2.145   7.673  20.589  0.00  0.00    +0.000 C 
ATOM      5  C   UNL     1       0.788   7.549  21.247  0.00  0.00    +0.000 C 
ATOM      6  C   UNL     1       0.092   8.851  20.885  0.00  0.00    +0.000 C 
ATOM      7  C   UNL     1       0.724   9.288  19.548  0.00  0.00    +0.000 C 
ENDROOT
BRANCH   1  11
ATOM      8  C   UNL     1       7.131   6.757  17.379  0.00  0.00    +0.000 C 
ATOM      9  C   UNL     1       5.675   6.443  17.535  0.00  0.00    +0.000 A 
ATOM     10  C   UNL     1       4.734   7.453  17.602  0.00  0.00    +0.000 A 
ATOM     11  C   UNL     1       3.400   7.120  17.841  0.00  0.00    +0.000 A 
ATOM     12  C   UNL     1       3.006   5.750  17.846  0.00  0.00    +0.000 A 
ATOM     13  C   UNL     1       1.671   5.258  17.936  0.00  0.00    +0.000 A 
ATOM     14  C   UNL     1       1.392   3.892  17.911  0.00  0.00    +0.000 A 
ATOM     15  C   UNL     1       2.442   2.996  17.836  0.00  0.00    +0.000 A 
ATOM     16  F   UNL     1       2.191   1.679  17.826  0.00  0.00    +0.000 F 
ATOM     17  C   UNL     1       3.751   3.445  17.762  0.00  0.00    +0.000 A 
ATOM     18  C   UNL     1       4.048   4.799  17.744  0.00  0.00    +0.000 A 
ATOM     19  N   UNL     1       5.340   5.139  17.627  0.00  0.00    +0.000 NA
ENDBRANCH   1  11
BRANCH   7  20
ATOM     20  C   UNL     1       1.136  10.725  19.579  0.00  0.00    +0.000 A 
ATOM     21  C   UNL     1       1.157  11.581  20.707  0.00  0.00    +0.000 A 
ATOM     22  N   UNL     1       1.669  12.787  20.432  0.00  0.00    +0.000 NA
ATOM     23  N   UNL     1       1.943  12.719  19.119  0.00  0.00    +0.000 N 
ATOM     24  C   UNL     1       2.566  13.833  18.448  0.00  0.00    +0.000 C 
ATOM     25  C   UNL     1       1.630  11.514  18.562  0.00  0.00    +0.000 A 
ENDBRANCH   7  20
TORSDOF 2
ENDMDL
MODEL 3
REMARK VINA RESULT:      -7.5      2.828      6.456
REMARK  Name = 
REMARK  4 active torsions:
REMARK  status: ('A' for Active; 'I' for Inactive)
REMARK    1  A    between atoms: C_1  and  C_2
REMARK    2  A    between atoms: C_4  and  C_5
REMARK    3  A    between atoms: C_11  and  C_12
REMARK    4  A    between atoms: N_15  and  C_16
REMARK                            x       y       z     vdW  Elec       q    Type
REMARK                         _______ _______ _______ _____ _____    ______ ____
ROOT
ATOM      1  C   UNL     1       4.881   5.428  19.100  0.00  0.00    +0.000 C 
ATOM      2  O   UNL     1       5.302   4.597  19.901  0.00  0.00    +0.000 OA
ATOM      3  N   UNL     1       3.592   5.953  19.208  0.00  0.00    +0.000 N 
ATOM      4  C   UNL     1       2.943   6.972  18.399  0.00  0.00    +0.000 C 
ATOM      5  C   UNL     1       2.177   7.812  19.397  0.00  0.00    +0.000 C 
ATOM      6  C   UNL     1       1.734   6.807  20.448  0.00  0.00    +0.000 C 
ATOM      7  C   UNL     1       2.796   5.689  20.409  0.00  0.00    +0.000 C 
ENDROOT
BRANCH   1  11
ATOM      8  C   UNL     1       8.399   8.640  17.620  0.00  0.00    +0.000 C 
ATOM      9  C   UNL     1       7.516   7.458  17.360  0.00  0.00    +0.000 A 
ATOM     10  C   UNL     1       6.543   7.085  18.269  0.00  0.00    +0.000 A 
ATOM     11  C   UNL     1       5.806   5.924  18.031  0.00  0.00    +0.000 A 
ATOM     12  C   UNL     1       5.949   5.241  16.788  0.00  0.00    +0.000 A 
ATOM     13  C   UNL     1       5.171   4.132  16.343  0.00  0.00    +0.000 A 
ATOM     14  C   UNL     1       5.380   3.548  15.093  0.00  0.00    +0.000 A 
ATOM     15  C   UNL     1       6.392   4.034  14.288  0.00  0.00    +0.000 A 
ATOM     16  F   UNL     1       6.614   3.473  13.091  0.00  0.00    +0.000 F 
ATOM     17  C   UNL     1       7.173   5.102  14.701  0.00  0.00    +0.000 A 
ATOM     18  C   UNL     1       6.955   5.724  15.921  0.00  0.00    +0.000 A 
ATOM     19  N   UNL     1       7.733   6.776  16.216  0.00  0.00    +0.000 NA
ENDBRANCH   1  11
BRANCH   7  20
ATOM     20  C   UNL     1       2.165   4.335  20.345  0.00  0.00    +0.000 A 
ATOM     21  C   UNL     1       1.795   3.514  21.438  0.00  0.00    +0.000 A 
ATOM     22  N   UNL     1       1.162   2.398  21.056  0.00  0.00    +0.000 NA
ATOM     23  N   UNL     1       1.159   2.482  19.716  0.00  0.00    +0.000 N 
ATOM     24  C   UNL     1       0.509   1.465  18.925  0.00  0.00    +0.000 C 
ATOM     25  C   UNL     1       1.757   3.613  19.243  0.00  0.00    +0.000 A 
ENDBRANCH   7  20
TORSDOF 2
ENDMDL
MODEL 4
REMARK VINA RESULT:      -7.5      1.881      3.289
REMARK  Name = 
REMARK  4 active torsions:
REMARK  status: ('A' for Active; 'I' for Inactive)
REMARK    1  A    between atoms: C_1  and  C_2
REMARK    2  A    between atoms: C_4  and  C_5
REMARK    3  A    between atoms: C_11  and  C_12
REMARK    4  A    between atoms: N_15  and  C_16
REMARK                            x       y       z     vdW  Elec       q    Type
REMARK                         _______ _______ _______ _____ _____    ______ ____
ROOT
ATOM      1  C   UNL     1       4.142   6.148  17.829  0.00  0.00    +0.000 C 
ATOM      2  O   UNL     1       3.796   6.633  16.754  0.00  0.00    +0.000 OA
ATOM      3  N   UNL     1       5.454   5.724  18.047  0.00  0.00    +0.000 N 
ATOM      4  C   UNL     1       6.058   5.183  19.254  0.00  0.00    +0.000 C 
ATOM      5  C   UNL     1       7.427   5.825  19.308  0.00  0.00    +0.000 C 
ATOM      6  C   UNL     1       7.827   5.945  17.846  0.00  0.00    +0.000 C 
ATOM      7  C   UNL     1       6.498   6.055  17.073  0.00  0.00    +0.000 C 
ENDROOT
BRANCH   1  11
ATOM      8  C   UNL     1       2.041   3.592  21.562  0.00  0.00    +0.000 C 
ATOM      9  C   UNL     1       2.170   4.840  20.743  0.00  0.00    +0.000 A 
ATOM     10  C   UNL     1       2.972   4.870  19.618  0.00  0.00    +0.000 A 
ATOM     11  C   UNL     1       3.137   6.078  18.938  0.00  0.00    +0.000 A 
ATOM     12  C   UNL     1       2.354   7.209  19.311  0.00  0.00    +0.000 A 
ATOM     13  C   UNL     1       2.305   8.461  18.631  0.00  0.00    +0.000 A 
ATOM     14  C   UNL     1       1.484   9.500  19.070  0.00  0.00    +0.000 A 
ATOM     15  C   UNL     1       0.731   9.320  20.214  0.00  0.00    +0.000 A 
ATOM     16  F   UNL     1      -0.051  10.315  20.657  0.00  0.00    +0.000 F 
ATOM     17  C   UNL     1       0.769   8.118  20.904  0.00  0.00    +0.000 A 
ATOM     18  C   UNL     1       1.547   7.058  20.462  0.00  0.00    +0.000 A 
ATOM     19  N   UNL     1       1.486   5.921  21.170  0.00  0.00    +0.000 NA
ENDBRANCH   1  11
BRANCH   7  20
ATOM     20  C   UNL     1       6.460   5.116  15.910  0.00  0.00    +0.000 A 
ATOM     21  C   UNL     1       5.871   3.829  15.873  0.00  0.00    +0.000 A 
ATOM     22  N   UNL     1       5.917   3.273  14.656  0.00  0.00    +0.000 NA
ATOM     23  N   UNL     1       6.569   4.187  13.918  0.00  0.00    +0.000 N 
ATOM     24  C   UNL     1       6.777   3.969  12.508  0.00  0.00    +0.000 C 
ATOM     25  C   UNL     1       6.926   5.298  14.625  0.00  0.00    +0.000 A 
ENDBRANCH   7  20
TORSDOF 2
ENDMDL
MODEL 5
REMARK VINA RESULT:      -7.5      3.404      6.991
REMARK  Name = 
REMARK  4 active torsions:
REMARK  status: ('A' for Active; 'I' for Inactive)
REMARK    1  A    between atoms: C_1  and  C_2
REMARK    2  A    between atoms: C_4  and  C_5
REMARK    3  A    between atoms: C_11  and  C_12
REMARK    4  A    between atoms: N_15  and  C_16
REMARK                            x       y       z     vdW  Elec       q    Type
REMARK                         _______ _______ _______ _____ _____    ______ ____
ROOT
ATOM      1  C   UNL     1       1.988   8.015  18.839  0.00  0.00    +0.000 C 
ATOM      2  O   UNL     1       1.968   8.428  17.682  0.00  0.00    +0.000 OA
ATOM      3  N   UNL     1       1.385   8.727  19.876  0.00  0.00    +0.000 N 
ATOM      4  C   UNL     1       1.259   8.377  21.282  0.00  0.00    +0.000 C 
ATOM      5  C   UNL     1      -0.144   8.806  21.652  0.00  0.00    +0.000 C 
ATOM      6  C   UNL     1      -0.371  10.054  20.813  0.00  0.00    +0.000 C 
ATOM      7  C   UNL     1       0.522   9.872  19.569  0.00  0.00    +0.000 C 
ENDROOT
BRANCH   1  11
ATOM      8  C   UNL     1       2.016   3.709  21.357  0.00  0.00    +0.000 C 
ATOM      9  C   UNL     1       2.592   4.615  20.312  0.00  0.00    +0.000 A 
ATOM     10  C   UNL     1       2.124   5.906  20.157  0.00  0.00    +0.000 A 
ATOM     11  C   UNL     1       2.622   6.685  19.112  0.00  0.00    +0.000 A 
ATOM     12  C   UNL     1       3.713   6.202  18.332  0.00  0.00    +0.000 A 
ATOM     13  C   UNL     1       4.420   6.930  17.330  0.00  0.00    +0.000 A 
ATOM     14  C   UNL     1       5.492   6.368  16.638  0.00  0.00    +0.000 A 
ATOM     15  C   UNL     1       5.850   5.060  16.905  0.00  0.00    +0.000 A 
ATOM     16  F   UNL     1       6.869   4.501  16.237  0.00  0.00    +0.000 F 
ATOM     17  C   UNL     1       5.172   4.324  17.865  0.00  0.00    +0.000 A 
ATOM     18  C   UNL     1       4.130   4.876  18.593  0.00  0.00    +0.000 A 
ATOM     19  N   UNL     1       3.563   4.102  19.529  0.00  0.00    +0.000 NA
ENDBRANCH   1  11
BRANCH   7  20
ATOM     20  C   UNL     1       1.336  11.095  19.294  0.00  0.00    +0.000 A 
ATOM     21  C   UNL     1       2.023  11.410  18.096  0.00  0.00    +0.000 A 
ATOM     22  N   UNL     1       2.582  12.626  18.124  0.00  0.00    +0.000 NA
ATOM     23  N   UNL     1       2.289  13.078  19.355  0.00  0.00    +0.000 N 
ATOM     24  C   UNL     1       2.688  14.404  19.757  0.00  0.00    +0.000 C 
ATOM     25  C   UNL     1       1.559  12.195  20.095  0.00  0.00    +0.000 A 
ENDBRANCH   7  20
TORSDOF 2
ENDMDL
MODEL 6
REMARK VINA RESULT:      -7.4      1.106      1.112
REMARK  Name = 
REMARK  4 active torsions:
REMARK  status: ('A' for Active; 'I' for Inactive)
REMARK    1  A    between atoms: C_1  and  C_2
REMARK    2  A    between atoms: C_4  and  C_5
REMARK    3  A    between atoms: C_11  and  C_12
REMARK    4  A    between atoms: N_15  and  C_16
REMARK                            x       y       z     vdW  Elec       q    Type
REMARK                         _______ _______ _______ _____ _____    ______ ____
ROOT
ATOM      1  C   UNL     1       4.285   6.163  17.664  0.00  0.00    +0.000 C 
ATOM      2  O   UNL     1       4.003   6.762  16.628  0.00  0.00    +0.000 OA
ATOM      3  N   UNL     1       5.587   5.739  17.926  0.00  0.00    +0.000 N 
ATOM      4  C   UNL     1       6.119   5.073  19.105  0.00  0.00    +0.000 C 
ATOM      5  C   UNL     1       7.465   5.727  19.331  0.00  0.00    +0.000 C 
ATOM      6  C   UNL     1       7.963   6.019  17.924  0.00  0.00    +0.000 C 
ATOM      7  C   UNL     1       6.689   6.196  17.074  0.00  0.00    +0.000 C 
ENDROOT
BRANCH   1  11
ATOM      8  C   UNL     1       1.311   8.015  21.216  0.00  0.00    +0.000 C 
ATOM      9  C   UNL     1       1.771   6.874  20.360  0.00  0.00    +0.000 A 
ATOM     10  C   UNL     1       2.869   7.007  19.531  0.00  0.00    +0.000 A 
ATOM     11  C   UNL     1       3.206   5.951  18.682  0.00  0.00    +0.000 A 
ATOM     12  C   UNL     1       2.523   4.706  18.801  0.00  0.00    +0.000 A 
ATOM     13  C   UNL     1       2.844   3.500  18.110  0.00  0.00    +0.000 A 
ATOM     14  C   UNL     1       2.121   2.326  18.317  0.00  0.00    +0.000 A 
ATOM     15  C   UNL     1       1.045   2.345  19.183  0.00  0.00    +0.000 A 
ATOM     16  F   UNL     1       0.331   1.228  19.380  0.00  0.00    +0.000 F 
ATOM     17  C   UNL     1       0.702   3.506  19.859  0.00  0.00    +0.000 A 
ATOM     18  C   UNL     1       1.432   4.674  19.700  0.00  0.00    +0.000 A 
ATOM     19  N   UNL     1       1.052   5.735  20.426  0.00  0.00    +0.000 NA
ENDBRANCH   1  11
BRANCH   7  20
ATOM     20  C   UNL     1       6.755   5.395  15.813  0.00  0.00    +0.000 A 
ATOM     21  C   UNL     1       6.175   4.125  15.578  0.00  0.00    +0.000 A 
ATOM     22  N   UNL     1       6.328   3.711  14.314  0.00  0.00    +0.000 NA
ATOM     23  N   UNL     1       7.041   4.697  13.746  0.00  0.00    +0.000 N 
ATOM     24  C   UNL     1       7.372   4.639  12.343  0.00  0.00    +0.000 C 
ATOM     25  C   UNL     1       7.331   5.718  14.603  0.00  0.00    +0.000 A 
ENDBRANCH   7  20
TORSDOF 2
ENDMDL
MODEL 7
REMARK VINA RESULT:      -7.2      3.049      6.824
REMARK  Name = 
REMARK  4 active torsions:
REMARK  status: ('A' for Active; 'I' for Inactive)
REMARK    1  A    between atoms: C_1  and  C_2
REMARK    2  A    between atoms: C_4  and  C_5
REMARK    3  A    between atoms: C_11  and  C_12
REMARK    4  A    between atoms: N_15  and  C_16
REMARK                            x       y       z     vdW  Elec       q    Type
REMARK                         _______ _______ _______ _____ _____    ______ ____
ROOT
ATOM      1  C   UNL     1       1.593   8.320  18.505  0.00  0.00    +0.000 C 
ATOM      2  O   UNL     1       0.990   8.594  17.470  0.00  0.00    +0.000 OA
ATOM      3  N   UNL     1       1.287   8.949  19.712  0.00  0.00    +0.000 N 
ATOM      4  C   UNL     1       1.846   8.722  21.035  0.00  0.00    +0.000 C 
ATOM      5  C   UNL     1       0.654   8.800  21.964  0.00  0.00    +0.000 C 
ATOM      6  C   UNL     1      -0.236   9.852  21.320  0.00  0.00    +0.000 C 
ATOM      7  C   UNL     1       0.089   9.787  19.814  0.00  0.00    +0.000 C 
ENDROOT
BRANCH   1  11
ATOM      8  C   UNL     1       6.082   6.736  17.011  0.00  0.00    +0.000 C 
ATOM      9  C   UNL     1       4.802   6.519  17.759  0.00  0.00    +0.000 A 
ATOM     10  C   UNL     1       3.769   7.433  17.677  0.00  0.00    +0.000 A 
ATOM     11  C   UNL     1       2.631   7.240  18.463  0.00  0.00    +0.000 A 
ATOM     12  C   UNL     1       2.483   6.030  19.202  0.00  0.00    +0.000 A 
ATOM     13  C   UNL     1       1.328   5.627  19.934  0.00  0.00    +0.000 A 
ATOM     14  C   UNL     1       1.280   4.407  20.608  0.00  0.00    +0.000 A 
ATOM     15  C   UNL     1       2.395   3.591  20.598  0.00  0.00    +0.000 A 
ATOM     16  F   UNL     1       2.368   2.423  21.254  0.00  0.00    +0.000 F 
ATOM     17  C   UNL     1       3.537   3.964  19.906  0.00  0.00    +0.000 A 
ATOM     18  C   UNL     1       3.592   5.153  19.195  0.00  0.00    +0.000 A 
ATOM     19  N   UNL     1       4.724   5.410  18.522  0.00  0.00    +0.000 NA
ENDBRANCH   1  11
BRANCH   7  20
ATOM     20  C   UNL     1       0.340  11.148  19.247  0.00  0.00    +0.000 A 
ATOM     21  C   UNL     1      -0.602  11.992  18.611  0.00  0.00    +0.000 A 
ATOM     22  N   UNL     1      -0.095  13.191  18.298  0.00  0.00    +0.000 NA
ATOM     23  N   UNL     1       1.185  13.104  18.699  0.00  0.00    +0.000 N 
ATOM     24  C   UNL     1       2.065  14.239  18.573  0.00  0.00    +0.000 C 
ATOM     25  C   UNL     1       1.495  11.899  19.259  0.00  0.00    +0.000 A 
ENDBRANCH   7  20
TORSDOF 2
ENDMDL
MODEL 8
REMARK VINA RESULT:      -7.0      8.069     10.157
REMARK  Name = 
REMARK  4 active torsions:
REMARK  status: ('A' for Active; 'I' for Inactive)
REMARK    1  A    between atoms: C_1  and  C_2
REMARK    2  A    between atoms: C_4  and  C_5
REMARK    3  A    between atoms: C_11  and  C_12
REMARK    4  A    between atoms: N_15  and  C_16
REMARK                            x       y       z     vdW  Elec       q    Type
REMARK                         _______ _______ _______ _____ _____    ______ ____
ROOT
ATOM      1  C   UNL     1      -1.449  12.357  19.109  0.00  0.00    +0.000 C 
ATOM      2  O   UNL     1      -1.399  13.553  19.385  0.00  0.00    +0.000 OA
ATOM      3  N   UNL     1      -0.525  11.451  19.629  0.00  0.00    +0.000 N 
ATOM      4  C   UNL     1      -0.456  10.008  19.464  0.00  0.00    +0.000 C 
ATOM      5  C   UNL     1      -0.074   9.491  20.833  0.00  0.00    +0.000 C 
ATOM      6  C   UNL     1       0.844  10.571  21.383  0.00  0.00    +0.000 C 
ATOM      7  C   UNL     1       0.390  11.874  20.693  0.00  0.00    +0.000 C 
ENDROOT
BRANCH   1  11
ATOM      8  C   UNL     1      -2.998  10.290  14.841  0.00  0.00    +0.000 C 
ATOM      9  C   UNL     1      -3.283  10.847  16.201  0.00  0.00    +0.000 A 
ATOM     10  C   UNL     1      -2.286  11.448  16.946  0.00  0.00    +0.000 A 
ATOM     11  C   UNL     1      -2.573  11.870  18.245  0.00  0.00    +0.000 A 
ATOM     12  C   UNL     1      -3.917  11.827  18.718  0.00  0.00    +0.000 A 
ATOM     13  C   UNL     1      -4.389  12.348  19.959  0.00  0.00    +0.000 A 
ATOM     14  C   UNL     1      -5.735  12.273  20.318  0.00  0.00    +0.000 A 
ATOM     15  C   UNL     1      -6.621  11.643  19.465  0.00  0.00    +0.000 A 
ATOM     16  F   UNL     1      -7.915  11.550  19.803  0.00  0.00    +0.000 F 
ATOM     17  C   UNL     1      -6.188  11.116  18.258  0.00  0.00    +0.000 A 
ATOM     18  C   UNL     1      -4.862  11.216  17.864  0.00  0.00    +0.000 A 
ATOM     19  N   UNL     1      -4.544  10.714  16.661  0.00  0.00    +0.000 NA
ENDBRANCH   1  11
BRANCH   7  20
ATOM     20  C   UNL     1       1.551  12.630  20.130  0.00  0.00    +0.000 A 
ATOM     21  C   UNL     1       2.050  12.563  18.806  0.00  0.00    +0.000 A 
ATOM     22  N   UNL     1       3.041  13.435  18.582  0.00  0.00    +0.000 NA
ATOM     23  N   UNL     1       3.205  14.036  19.772  0.00  0.00    +0.000 N 
ATOM     24  C   UNL     1       4.171  15.096  19.924  0.00  0.00    +0.000 C 
ATOM     25  C   UNL     1       2.349  13.580  20.731  0.00  0.00    +0.000 A 
ENDBRANCH   7  20
TORSDOF 2
ENDMDL
MODEL 9
REMARK VINA RESULT:      -6.9      7.420     10.528
REMARK  Name = 
REMARK  4 active torsions:
REMARK  status: ('A' for Active; 'I' for Inactive)
REMARK    1  A    between atoms: C_1  and  C_2
REMARK    2  A    between atoms: C_4  and  C_5
REMARK    3  A    between atoms: C_11  and  C_12
REMARK    4  A    between atoms: N_15  and  C_16
REMARK                            x       y       z     vdW  Elec       q    Type
REMARK                         _______ _______ _______ _____ _____    ______ ____
ROOT
ATOM      1  C   UNL     1      -0.846  12.762  21.931  0.00  0.00    +0.000 C 
ATOM      2  O   UNL     1      -0.260  13.424  21.078  0.00  0.00    +0.000 OA
ATOM      3  N   UNL     1      -0.604  11.396  22.082  0.00  0.00    +0.000 N 
ATOM      4  C   UNL     1      -1.153  10.467  23.058  0.00  0.00    +0.000 C 
ATOM      5  C   UNL     1       0.021   9.594  23.445  0.00  0.00    +0.000 C 
ATOM      6  C   UNL     1       0.823   9.478  22.158  0.00  0.00    +0.000 C 
ATOM      7  C   UNL     1       0.517  10.771  21.375  0.00  0.00    +0.000 C 
ENDROOT
BRANCH   1  11
ATOM      8  C   UNL     1      -1.565  15.756  25.855  0.00  0.00    +0.000 C 
ATOM      9  C   UNL     1      -2.101  14.930  24.726  0.00  0.00    +0.000 A 
ATOM     10  C   UNL     1      -1.261  14.146  23.959  0.00  0.00    +0.000 A 
ATOM     11  C   UNL     1      -1.787  13.466  22.860  0.00  0.00    +0.000 A 
ATOM     12  C   UNL     1      -3.196  13.456  22.647  0.00  0.00    +0.000 A 
ATOM     13  C   UNL     1      -3.893  12.699  21.660  0.00  0.00    +0.000 A 
ATOM     14  C   UNL     1      -5.283  12.745  21.550  0.00  0.00    +0.000 A 
ATOM     15  C   UNL     1      -5.994  13.577  22.394  0.00  0.00    +0.000 A 
ATOM     16  F   UNL     1      -7.329  13.644  22.290  0.00  0.00    +0.000 F 
ATOM     17  C   UNL     1      -5.342  14.335  23.354  0.00  0.00    +0.000 A 
ATOM     18  C   UNL     1      -3.965  14.272  23.508  0.00  0.00    +0.000 A 
ATOM     19  N   UNL     1      -3.427  15.009  24.491  0.00  0.00    +0.000 NA
ENDBRANCH   1  11
BRANCH   7  20
ATOM     20  C   UNL     1       0.156  10.479  19.954  0.00  0.00    +0.000 A 
ATOM     21  C   UNL     1       1.016   9.992  18.939  0.00  0.00    +0.000 A 
ATOM     22  N   UNL     1       0.372   9.739  17.793  0.00  0.00    +0.000 NA
ATOM     23  N   UNL     1      -0.894  10.101  18.058  0.00  0.00    +0.000 N 
ATOM     24  C   UNL     1      -1.923   9.929  17.062  0.00  0.00    +0.000 C 
ATOM     25  C   UNL     1      -1.070  10.562  19.330  0.00  0.00    +0.000 A 
ENDBRANCH   7  20
TORSDOF 2
ENDMDL
