MODEL 1
REMARK VINA RESULT:      -8.7      0.000      0.000
REMARK  Name = 
REMARK  5 active torsions:
REMARK  status: ('A' for Active; 'I' for Inactive)
REMARK    1  A    between atoms: C_1  and  C_2
REMARK    2  A    between atoms: N_4  and  C_5
REMARK    3  A    between atoms: N_8  and  C_9
REMARK    4  A    between atoms: C_13  and  C_14
REMARK    5  A    between atoms: N_20  and  C_21
REMARK                            x       y       z     vdW  Elec       q    Type
REMARK                         _______ _______ _______ _____ _____    ______ ____
ROOT
ATOM      1  C   UNL     1       1.374   7.858  20.217  0.00  0.00    +0.000 A 
ATOM      2  C   UNL     1       2.103   8.048  19.039  0.00  0.00    +0.000 A 
ATOM      3  C   UNL     1       2.828   6.991  18.511  0.00  0.00    +0.000 A 
ATOM      4  C   UNL     1       2.818   5.714  19.050  0.00  0.00    +0.000 A 
ATOM      5  C   UNL     1       2.066   5.453  20.182  0.00  0.00    +0.000 A 
ATOM      6  C   UNL     1       1.366   6.540  20.754  0.00  0.00    +0.000 A 
ATOM      7  C   UNL     1       3.694   4.821  18.236  0.00  0.00    +0.000 C 
ATOM      8  N   UNL     1       4.242   5.714  17.225  0.00  0.00    +0.000 N 
ATOM      9  C   UNL     1       3.730   7.007  17.353  0.00  0.00    +0.000 C 
ATOM     10  O   UNL     1       3.928   8.017  16.707  0.00  0.00    +0.000 OA
ENDROOT
BRANCH   1  18
ATOM     11  C   UNL     1      -0.068  10.139  18.722  0.00  0.00    +0.000 C 
ATOM     12  C   UNL     1      -0.047   9.959  20.222  0.00  0.00    +0.000 C 
ATOM     13  C   UNL     1      -0.692  10.894  20.949  0.00  0.00    +0.000 C 
ATOM     14  N   UNL     1      -0.740  10.948  22.322  0.00  0.00    +0.000 N 
ATOM     15  C   UNL     1      -1.415  12.004  23.062  0.00  0.00    +0.000 C 
ATOM     16  C   UNL     1      -0.042   9.951  23.128  0.00  0.00    +0.000 C 
ATOM     17  C   UNL     1       0.742   8.877  22.344  0.00  0.00    +0.000 C 
ATOM     18  N   UNL     1       0.675   8.923  20.855  0.00  0.00    +0.000 N 
ENDBRANCH   1  18
BRANCH   8  19
ATOM     19  C   UNL     1       5.211   5.282  16.281  0.00  0.00    +0.000 A 
ATOM     20  C   UNL     1       6.586   5.448  16.510  0.00  0.00    +0.000 A 
ATOM     21  C   UNL     1       7.538   4.997  15.588  0.00  0.00    +0.000 A 
ATOM     22  C   UNL     1       7.128   4.381  14.414  0.00  0.00    +0.000 A 
ATOM     23  C   UNL     1       5.773   4.219  14.174  0.00  0.00    +0.000 A 
ATOM     24  F   UNL     1       5.367   3.631  13.041  0.00  0.00    +0.000 F 
ATOM     25  C   UNL     1       4.817   4.656  15.092  0.00  0.00    +0.000 A 
ENDBRANCH   8  19
BRANCH   5  26
ATOM     26  C   UNL     1       1.978   4.094  20.823  0.00  0.00    +0.000 C 
ATOM     27  F   UNL     1       2.746   3.151  20.212  0.00  0.00    +0.000 F 
ATOM     28  F   UNL     1       2.368   4.106  22.126  0.00  0.00    +0.000 F 
ATOM     29  F   UNL     1       0.709   3.602  20.815  0.00  0.00    +0.000 F 
ENDBRANCH   5  26
TORSDOF 3
ENDMDL
MODEL 2
REMARK VINA RESULT:      -8.7      3.523      5.101
REMARK  Name = 
REMARK  5 active torsions:
REMARK  status: ('A' for Active; 'I' for Inactive)
REMARK    1  A    between atoms: C_1  and  C_2
REMARK    2  A    between atoms: N_4  and  C_5
REMARK    3  A    between atoms: N_8  and  C_9
REMARK    4  A    between atoms: C_13  and  C_14
REMARK    5  A    between atoms: N_20  and  C_21
REMARK                            x       y       z     vdW  Elec       q    Type
REMARK                         _______ _______ _______ _____ _____    ______ ____
ROOT
ATOM      1  C   UNL     1       0.984  11.815  19.574  0.00  0.00    +0.000 A 
ATOM      2  C   UNL     1       1.471  10.877  18.659  0.00  0.00    +0.000 A 
ATOM      3  C   UNL     1       1.605   9.553  19.049  0.00  0.00    +0.000 A 
ATOM      4  C   UNL     1       1.211   9.080  20.291  0.00  0.00    +0.000 A 
ATOM      5  C   UNL     1       0.667   9.953  21.217  0.00  0.00    +0.000 A 
ATOM      6  C   UNL     1       0.576  11.313  20.842  0.00  0.00    +0.000 A 
ATOM      7  C   UNL     1       1.485   7.615  20.377  0.00  0.00    +0.000 C 
ATOM      8  N   UNL     1       2.116   7.312  19.101  0.00  0.00    +0.000 N 
ATOM      9  C   UNL     1       2.183   8.442  18.283  0.00  0.00    +0.000 C 
ATOM     10  O   UNL     1       2.619   8.596  17.159  0.00  0.00    +0.000 OA
ENDROOT
BRANCH   1  18
ATOM     11  C   UNL     1      -1.625  13.460  19.634  0.00  0.00    +0.000 C 
ATOM     12  C   UNL     1      -0.253  14.015  19.329  0.00  0.00    +0.000 C 
ATOM     13  C   UNL     1      -0.189  15.330  19.035  0.00  0.00    +0.000 C 
ATOM     14  N   UNL     1       0.947  16.013  18.670  0.00  0.00    +0.000 N 
ATOM     15  C   UNL     1       0.957  17.426  18.321  0.00  0.00    +0.000 C 
ATOM     16  C   UNL     1       2.225  15.318  18.553  0.00  0.00    +0.000 C 
ATOM     17  C   UNL     1       2.200  13.803  18.845  0.00  0.00    +0.000 C 
ATOM     18  N   UNL     1       0.900  13.202  19.264  0.00  0.00    +0.000 N 
ENDBRANCH   1  18
BRANCH   8  19
ATOM     19  C   UNL     1       2.626   6.022  18.797  0.00  0.00    +0.000 A 
ATOM     20  C   UNL     1       1.870   5.085  18.076  0.00  0.00    +0.000 A 
ATOM     21  C   UNL     1       2.388   3.823  17.757  0.00  0.00    +0.000 A 
ATOM     22  C   UNL     1       3.668   3.476  18.163  0.00  0.00    +0.000 A 
ATOM     23  C   UNL     1       4.420   4.392  18.882  0.00  0.00    +0.000 A 
ATOM     24  F   UNL     1       5.655   4.063  19.285  0.00  0.00    +0.000 F 
ATOM     25  C   UNL     1       3.917   5.654  19.196  0.00  0.00    +0.000 A 
ENDBRANCH   8  19
BRANCH   5  26
ATOM     26  C   UNL     1       0.193   9.525  22.579  0.00  0.00    +0.000 C 
ATOM     27  F   UNL     1      -0.389  10.526  23.295  0.00  0.00    +0.000 F 
ATOM     28  F   UNL     1      -0.726   8.523  22.522  0.00  0.00    +0.000 F 
ATOM     29  F   UNL     1       1.210   9.057  23.355  0.00  0.00    +0.000 F 
ENDBRANCH   5  26
TORSDOF 3
ENDMDL
MODEL 3
REMARK VINA RESULT:      -8.6      3.471      4.888
REMARK  Name = 
REMARK  5 active torsions:
REMARK  status: ('A' for Active; 'I' for Inactive)
REMARK    1  A    between atoms: C_1  and  C_2
REMARK    2  A    between atoms: N_4  and  C_5
REMARK    3  A    between atoms: N_8  and  C_9
REMARK    4  A    between atoms: C_13  and  C_14
REMARK    5  A    between atoms: N_20  and  C_21
REMARK                            x       y       z     vdW  Elec       q    Type
REMARK                         _______ _______ _______ _____ _____    ______ ____
ROOT
ATOM      1  C   UNL     1       0.926  11.737  19.602  0.00  0.00    +0.000 A 
ATOM      2  C   UNL     1       1.484  10.815  18.710  0.00  0.00    +0.000 A 
ATOM      3  C   UNL     1       1.646   9.497  19.109  0.00  0.00    +0.000 A 
ATOM      4  C   UNL     1       1.216   9.013  20.334  0.00  0.00    +0.000 A 
ATOM      5  C   UNL     1       0.602   9.866  21.234  0.00  0.00    +0.000 A 
ATOM      6  C   UNL     1       0.481  11.222  20.853  0.00  0.00    +0.000 A 
ATOM      7  C   UNL     1       1.536   7.558  20.436  0.00  0.00    +0.000 C 
ATOM      8  N   UNL     1       2.231   7.275  19.188  0.00  0.00    +0.000 N 
ATOM      9  C   UNL     1       2.294   8.406  18.372  0.00  0.00    +0.000 C 
ATOM     10  O   UNL     1       2.773   8.574  17.267  0.00  0.00    +0.000 OA
ENDROOT
BRANCH   1  18
ATOM     11  C   UNL     1      -1.728  13.310  19.623  0.00  0.00    +0.000 C 
ATOM     12  C   UNL     1      -0.368  13.901  19.332  0.00  0.00    +0.000 C 
ATOM     13  C   UNL     1      -0.336  15.216  19.034  0.00  0.00    +0.000 C 
ATOM     14  N   UNL     1       0.785  15.929  18.680  0.00  0.00    +0.000 N 
ATOM     15  C   UNL     1       0.761  17.340  18.325  0.00  0.00    +0.000 C 
ATOM     16  C   UNL     1       2.083  15.269  18.582  0.00  0.00    +0.000 C 
ATOM     17  C   UNL     1       2.096  13.755  18.880  0.00  0.00    +0.000 C 
ATOM     18  N   UNL     1       0.808  13.120  19.285  0.00  0.00    +0.000 N 
ENDBRANCH   1  18
BRANCH   8  19
ATOM     19  C   UNL     1       2.797   6.003  18.910  0.00  0.00    +0.000 A 
ATOM     20  C   UNL     1       4.028   5.610  19.459  0.00  0.00    +0.000 A 
ATOM     21  C   UNL     1       4.568   4.344  19.202  0.00  0.00    +0.000 A 
ATOM     22  C   UNL     1       3.891   3.454  18.381  0.00  0.00    +0.000 A 
ATOM     23  C   UNL     1       2.678   3.836  17.827  0.00  0.00    +0.000 A 
ATOM     24  F   UNL     1       2.019   2.986  17.028  0.00  0.00    +0.000 F 
ATOM     25  C   UNL     1       2.127   5.091  18.086  0.00  0.00    +0.000 A 
ENDBRANCH   8  19
BRANCH   5  26
ATOM     26  C   UNL     1       0.086   9.424  22.576  0.00  0.00    +0.000 C 
ATOM     27  F   UNL     1      -0.786   8.381  22.509  0.00  0.00    +0.000 F 
ATOM     28  F   UNL     1       1.082   9.026  23.413  0.00  0.00    +0.000 F 
ATOM     29  F   UNL     1      -0.575  10.420  23.227  0.00  0.00    +0.000 F 
ENDBRANCH   5  26
TORSDOF 3
ENDMDL
MODEL 4
REMARK VINA RESULT:      -8.6      3.549      5.185
REMARK  Name = 
REMARK  5 active torsions:
REMARK  status: ('A' for Active; 'I' for Inactive)
REMARK    1  A    between atoms: C_1  and  C_2
REMARK    2  A    between atoms: N_4  and  C_5
REMARK    3  A    between atoms: N_8  and  C_9
REMARK    4  A    between atoms: C_13  and  C_14
REMARK    5  A    between atoms: N_20  and  C_21
REMARK                            x       y       z     vdW  Elec       q    Type
REMARK                         _______ _______ _______ _____ _____    ______ ____
ROOT
ATOM      1  C   UNL     1       0.751  11.966  19.761  0.00  0.00    +0.000 A 
ATOM      2  C   UNL     1       1.269  11.063  18.827  0.00  0.00    +0.000 A 
ATOM      3  C   UNL     1       1.434   9.734  19.187  0.00  0.00    +0.000 A 
ATOM      4  C   UNL     1       1.043   9.222  20.414  0.00  0.00    +0.000 A 
ATOM      5  C   UNL     1       0.469  10.057  21.356  0.00  0.00    +0.000 A 
ATOM      6  C   UNL     1       0.347  11.423  21.013  0.00  0.00    +0.000 A 
ATOM      7  C   UNL     1       1.353   7.762  20.468  0.00  0.00    +0.000 C 
ATOM      8  N   UNL     1       2.002   7.506  19.190  0.00  0.00    +0.000 N 
ATOM      9  C   UNL     1       2.046   8.657  18.400  0.00  0.00    +0.000 C 
ATOM     10  O   UNL     1       2.487   8.849  17.284  0.00  0.00    +0.000 OA
ENDROOT
BRANCH   1  18
ATOM     11  C   UNL     1       3.022  13.711  18.614  0.00  0.00    +0.000 C 
ATOM     12  C   UNL     1       1.620  14.191  18.908  0.00  0.00    +0.000 C 
ATOM     13  C   UNL     1       1.368  15.494  18.669  0.00  0.00    +0.000 C 
ATOM     14  N   UNL     1       0.182  16.140  18.925  0.00  0.00    +0.000 N 
ATOM     15  C   UNL     1      -0.027  17.561  18.689  0.00  0.00    +0.000 C 
ATOM     16  C   UNL     1      -0.940  15.422  19.523  0.00  0.00    +0.000 C 
ATOM     17  C   UNL     1      -0.692  13.934  19.849  0.00  0.00    +0.000 C 
ATOM     18  N   UNL     1       0.635  13.358  19.483  0.00  0.00    +0.000 N 
ENDBRANCH   1  18
BRANCH   8  19
ATOM     19  C   UNL     1       2.547   6.237  18.860  0.00  0.00    +0.000 A 
ATOM     20  C   UNL     1       1.864   5.339  18.025  0.00  0.00    +0.000 A 
ATOM     21  C   UNL     1       2.417   4.100  17.682  0.00  0.00    +0.000 A 
ATOM     22  C   UNL     1       3.661   3.734  18.177  0.00  0.00    +0.000 A 
ATOM     23  C   UNL     1       4.340   4.612  19.008  0.00  0.00    +0.000 A 
ATOM     24  F   UNL     1       5.539   4.265  19.496  0.00  0.00    +0.000 F 
ATOM     25  C   UNL     1       3.802   5.852  19.347  0.00  0.00    +0.000 A 
ENDBRANCH   8  19
BRANCH   5  26
ATOM     26  C   UNL     1      -0.004   9.585  22.704  0.00  0.00    +0.000 C 
ATOM     27  F   UNL     1      -0.671  10.537  23.414  0.00  0.00    +0.000 F 
ATOM     28  F   UNL     1      -0.850   8.523  22.618  0.00  0.00    +0.000 F 
ATOM     29  F   UNL     1       1.025   9.182  23.499  0.00  0.00    +0.000 F 
ENDBRANCH   5  26
TORSDOF 3
ENDMDL
MODEL 5
REMARK VINA RESULT:      -8.4      3.509      5.028
REMARK  Name = 
REMARK  5 active torsions:
REMARK  status: ('A' for Active; 'I' for Inactive)
REMARK    1  A    between atoms: C_1  and  C_2
REMARK    2  A    between atoms: N_4  and  C_5
REMARK    3  A    between atoms: N_8  and  C_9
REMARK    4  A    between atoms: C_13  and  C_14
REMARK    5  A    between atoms: N_20  and  C_21
REMARK                            x       y       z     vdW  Elec       q    Type
REMARK                         _______ _______ _______ _____ _____    ______ ____
ROOT
ATOM      1  C   UNL     1       0.745  11.888  19.776  0.00  0.00    +0.000 A 
ATOM      2  C   UNL     1       1.292  10.978  18.866  0.00  0.00    +0.000 A 
ATOM      3  C   UNL     1       1.469   9.658  19.249  0.00  0.00    +0.000 A 
ATOM      4  C   UNL     1       1.064   9.159  20.477  0.00  0.00    +0.000 A 
ATOM      5  C   UNL     1       0.462  10.000  21.396  0.00  0.00    +0.000 A 
ATOM      6  C   UNL     1       0.326  11.359  21.030  0.00  0.00    +0.000 A 
ATOM      7  C   UNL     1       1.395   7.705  20.558  0.00  0.00    +0.000 C 
ATOM      8  N   UNL     1       2.069   7.439  19.296  0.00  0.00    +0.000 N 
ATOM      9  C   UNL     1       2.111   8.578  18.489  0.00  0.00    +0.000 C 
ATOM     10  O   UNL     1       2.568   8.759  17.378  0.00  0.00    +0.000 OA
ENDROOT
BRANCH   1  18
ATOM     11  C   UNL     1       2.992  13.635  18.588  0.00  0.00    +0.000 C 
ATOM     12  C   UNL     1       1.587  14.106  18.880  0.00  0.00    +0.000 C 
ATOM     13  C   UNL     1       1.321  15.402  18.620  0.00  0.00    +0.000 C 
ATOM     14  N   UNL     1       0.130  16.041  18.871  0.00  0.00    +0.000 N 
ATOM     15  C   UNL     1      -0.094  17.455  18.611  0.00  0.00    +0.000 C 
ATOM     16  C   UNL     1      -0.982  15.322  19.487  0.00  0.00    +0.000 C 
ATOM     17  C   UNL     1      -0.718  13.843  19.838  0.00  0.00    +0.000 C 
ATOM     18  N   UNL     1       0.613  13.274  19.475  0.00  0.00    +0.000 N 
ENDBRANCH   1  18
BRANCH   8  19
ATOM     19  C   UNL     1       2.638   6.173  18.995  0.00  0.00    +0.000 A 
ATOM     20  C   UNL     1       3.994   5.901  19.233  0.00  0.00    +0.000 A 
ATOM     21  C   UNL     1       4.543   4.643  18.958  0.00  0.00    +0.000 A 
ATOM     22  C   UNL     1       3.745   3.638  18.430  0.00  0.00    +0.000 A 
ATOM     23  C   UNL     1       2.406   3.899  18.184  0.00  0.00    +0.000 A 
ATOM     24  F   UNL     1       1.629   2.937  17.669  0.00  0.00    +0.000 F 
ATOM     25  C   UNL     1       1.848   5.146  18.464  0.00  0.00    +0.000 A 
ENDBRANCH   8  19
BRANCH   5  26
ATOM     26  C   UNL     1      -0.028   9.542  22.742  0.00  0.00    +0.000 C 
ATOM     27  F   UNL     1       0.972   9.195  23.599  0.00  0.00    +0.000 F 
ATOM     28  F   UNL     1      -0.756  10.495  23.385  0.00  0.00    +0.000 F 
ATOM     29  F   UNL     1      -0.836   8.449  22.652  0.00  0.00    +0.000 F 
ENDBRANCH   5  26
TORSDOF 3
ENDMDL
MODEL 6
REMARK VINA RESULT:      -8.4      3.551      5.085
REMARK  Name = 
REMARK  5 active torsions:
REMARK  status: ('A' for Active; 'I' for Inactive)
REMARK    1  A    between atoms: C_1  and  C_2
REMARK    2  A    between atoms: N_4  and  C_5
REMARK    3  A    between atoms: N_8  and  C_9
REMARK    4  A    between atoms: C_13  and  C_14
REMARK    5  A    between atoms: N_20  and  C_21
REMARK                            x       y       z     vdW  Elec       q    Type
REMARK                         _______ _______ _______ _____ _____    ______ ____
ROOT
ATOM      1  C   UNL     1       0.829  11.853  19.712  0.00  0.00    +0.000 A 
ATOM      2  C   UNL     1       1.340  10.887  18.840  0.00  0.00    +0.000 A 
ATOM      3  C   UNL     1       1.474   9.579  19.279  0.00  0.00    +0.000 A 
ATOM      4  C   UNL     1       1.057   9.147  20.529  0.00  0.00    +0.000 A 
ATOM      5  C   UNL     1       0.488  10.048  21.412  0.00  0.00    +0.000 A 
ATOM      6  C   UNL     1       0.398  11.393  20.989  0.00  0.00    +0.000 A 
ATOM      7  C   UNL     1       1.338   7.688  20.672  0.00  0.00    +0.000 C 
ATOM      8  N   UNL     1       1.997   7.345  19.420  0.00  0.00    +0.000 N 
ATOM      9  C   UNL     1       2.074   8.446  18.565  0.00  0.00    +0.000 C 
ATOM     10  O   UNL     1       2.533   8.564  17.446  0.00  0.00    +0.000 OA
ENDROOT
BRANCH   1  18
ATOM     11  C   UNL     1      -1.768  13.516  19.784  0.00  0.00    +0.000 C 
ATOM     12  C   UNL     1      -0.403  14.051  19.419  0.00  0.00    +0.000 C 
ATOM     13  C   UNL     1      -0.340  15.353  19.074  0.00  0.00    +0.000 C 
ATOM     14  N   UNL     1       0.788  16.015  18.651  0.00  0.00    +0.000 N 
ATOM     15  C   UNL     1       0.796  17.413  18.248  0.00  0.00    +0.000 C 
ATOM     16  C   UNL     1       2.059  15.308  18.524  0.00  0.00    +0.000 C 
ATOM     17  C   UNL     1       2.034  13.805  18.874  0.00  0.00    +0.000 C 
ATOM     18  N   UNL     1       0.744  13.229  19.352  0.00  0.00    +0.000 N 
ENDBRANCH   1  18
BRANCH   8  19
ATOM     19  C   UNL     1       2.521   6.048  19.172  0.00  0.00    +0.000 A 
ATOM     20  C   UNL     1       2.464   5.035  20.142  0.00  0.00    +0.000 A 
ATOM     21  C   UNL     1       2.959   3.751  19.882  0.00  0.00    +0.000 A 
ATOM     22  C   UNL     1       3.527   3.462  18.650  0.00  0.00    +0.000 A 
ATOM     23  C   UNL     1       3.594   4.458  17.688  0.00  0.00    +0.000 A 
ATOM     24  F   UNL     1       4.146   4.191  16.497  0.00  0.00    +0.000 F 
ATOM     25  C   UNL     1       3.095   5.737  17.933  0.00  0.00    +0.000 A 
ENDBRANCH   8  19
BRANCH   5  26
ATOM     26  C   UNL     1      -0.011   9.665  22.779  0.00  0.00    +0.000 C 
ATOM     27  F   UNL     1       0.978   9.293  23.638  0.00  0.00    +0.000 F 
ATOM     28  F   UNL     1      -0.678  10.679  23.394  0.00  0.00    +0.000 F 
ATOM     29  F   UNL     1      -0.879   8.617  22.735  0.00  0.00    +0.000 F 
ENDBRANCH   5  26
TORSDOF 3
ENDMDL
MODEL 7
REMARK VINA RESULT:      -8.3      3.436      5.254
REMARK  Name = 
REMARK  5 active torsions:
REMARK  status: ('A' for Active; 'I' for Inactive)
REMARK    1  A    between atoms: C_1  and  C_2
REMARK    2  A    between atoms: N_4  and  C_5
REMARK    3  A    between atoms: N_8  and  C_9
REMARK    4  A    between atoms: C_13  and  C_14
REMARK    5  A    between atoms: N_20  and  C_21
REMARK                            x       y       z     vdW  Elec       q    Type
REMARK                         _______ _______ _______ _____ _____    ______ ____
ROOT
ATOM      1  C   UNL     1       0.266  12.233  19.991  0.00  0.00    +0.000 A 
ATOM      2  C   UNL     1       0.842  11.437  18.996  0.00  0.00    +0.000 A 
ATOM      3  C   UNL     1       1.149  10.115  19.277  0.00  0.00    +0.000 A 
ATOM      4  C   UNL     1       0.849   9.501  20.483  0.00  0.00    +0.000 A 
ATOM      5  C   UNL     1       0.223  10.224  21.484  0.00  0.00    +0.000 A 
ATOM      6  C   UNL     1      -0.044  11.587  21.221  0.00  0.00    +0.000 A 
ATOM      7  C   UNL     1       1.304   8.080  20.447  0.00  0.00    +0.000 C 
ATOM      8  N   UNL     1       1.936   7.959  19.141  0.00  0.00    +0.000 N 
ATOM      9  C   UNL     1       1.842   9.148  18.416  0.00  0.00    +0.000 C 
ATOM     10  O   UNL     1       2.227   9.443  17.301  0.00  0.00    +0.000 OA
ENDROOT
BRANCH   1  18
ATOM     11  C   UNL     1      -2.385  13.626  20.730  0.00  0.00    +0.000 C 
ATOM     12  C   UNL     1      -1.167  14.318  20.164  0.00  0.00    +0.000 C 
ATOM     13  C   UNL     1      -1.277  15.644  19.946  0.00  0.00    +0.000 C 
ATOM     14  N   UNL     1      -0.312  16.445  19.382  0.00  0.00    +0.000 N 
ATOM     15  C   UNL     1      -0.494  17.866  19.128  0.00  0.00    +0.000 C 
ATOM     16  C   UNL     1       0.959  15.876  18.942  0.00  0.00    +0.000 C 
ATOM     17  C   UNL     1       1.122  14.354  19.137  0.00  0.00    +0.000 C 
ATOM     18  N   UNL     1       0.003  13.619  19.795  0.00  0.00    +0.000 N 
ENDBRANCH   1  18
BRANCH   8  19
ATOM     19  C   UNL     1       2.594   6.771  18.727  0.00  0.00    +0.000 A 
ATOM     20  C   UNL     1       3.665   6.801  17.820  0.00  0.00    +0.000 A 
ATOM     21  C   UNL     1       4.327   5.629  17.436  0.00  0.00    +0.000 A 
ATOM     22  C   UNL     1       3.920   4.404  17.945  0.00  0.00    +0.000 A 
ATOM     23  C   UNL     1       2.859   4.362  18.836  0.00  0.00    +0.000 A 
ATOM     24  F   UNL     1       2.455   3.183  19.328  0.00  0.00    +0.000 F 
ATOM     25  C   UNL     1       2.200   5.525  19.233  0.00  0.00    +0.000 A 
ENDBRANCH   8  19
BRANCH   5  26
ATOM     26  C   UNL     1      -0.159   9.635  22.815  0.00  0.00    +0.000 C 
ATOM     27  F   UNL     1      -0.903  10.473  23.589  0.00  0.00    +0.000 F 
ATOM     28  F   UNL     1      -0.889   8.494  22.690  0.00  0.00    +0.000 F 
ATOM     29  F   UNL     1       0.929   9.305  23.564  0.00  0.00    +0.000 F 
ENDBRANCH   5  26
TORSDOF 3
ENDMDL
MODEL 8
REMARK VINA RESULT:      -8.2      3.597      5.358
REMARK  Name = 
REMARK  5 active torsions:
REMARK  status: ('A' for Active; 'I' for Inactive)
REMARK    1  A    between atoms: C_1  and  C_2
REMARK    2  A    between atoms: N_4  and  C_5
REMARK    3  A    between atoms: N_8  and  C_9
REMARK    4  A    between atoms: C_13  and  C_14
REMARK    5  A    between atoms: N_20  and  C_21
REMARK                            x       y       z     vdW  Elec       q    Type
REMARK                         _______ _______ _______ _____ _____    ______ ____
ROOT
ATOM      1  C   UNL     1       0.928  12.026  19.896  0.00  0.00    +0.000 A 
ATOM      2  C   UNL     1       1.425  11.097  18.976  0.00  0.00    +0.000 A 
ATOM      3  C   UNL     1       1.487   9.758  19.330  0.00  0.00    +0.000 A 
ATOM      4  C   UNL     1       1.012   9.264  20.535  0.00  0.00    +0.000 A 
ATOM      5  C   UNL     1       0.455  10.130  21.460  0.00  0.00    +0.000 A 
ATOM      6  C   UNL     1       0.436  11.503  21.125  0.00  0.00    +0.000 A 
ATOM      7  C   UNL     1       1.225   7.787  20.589  0.00  0.00    +0.000 C 
ATOM      8  N   UNL     1       1.909   7.498  19.336  0.00  0.00    +0.000 N 
ATOM      9  C   UNL     1       2.061   8.648  18.560  0.00  0.00    +0.000 C 
ATOM     10  O   UNL     1       2.560   8.818  17.464  0.00  0.00    +0.000 OA
ENDROOT
BRANCH   1  18
ATOM     11  C   UNL     1       3.180  13.978  20.691  0.00  0.00    +0.000 C 
ATOM     12  C   UNL     1       1.938  14.352  19.916  0.00  0.00    +0.000 C 
ATOM     13  C   UNL     1       1.809  15.651  19.578  0.00  0.00    +0.000 C 
ATOM     14  N   UNL     1       0.731  16.206  18.930  0.00  0.00    +0.000 N 
ATOM     15  C   UNL     1       0.620  17.625  18.625  0.00  0.00    +0.000 C 
ATOM     16  C   UNL     1      -0.416  15.383  18.561  0.00  0.00    +0.000 C 
ATOM     17  C   UNL     1      -0.334  13.893  18.956  0.00  0.00    +0.000 C 
ATOM     18  N   UNL     1       0.913  13.424  19.626  0.00  0.00    +0.000 N 
ENDBRANCH   1  18
BRANCH   8  19
ATOM     19  C   UNL     1       2.383   6.198  19.018  0.00  0.00    +0.000 A 
ATOM     20  C   UNL     1       3.253   5.977  17.938  0.00  0.00    +0.000 A 
ATOM     21  C   UNL     1       3.738   4.697  17.644  0.00  0.00    +0.000 A 
ATOM     22  C   UNL     1       3.353   3.614  18.421  0.00  0.00    +0.000 A 
ATOM     23  C   UNL     1       2.488   3.820  19.485  0.00  0.00    +0.000 A 
ATOM     24  F   UNL     1       2.105   2.780  20.237  0.00  0.00    +0.000 F 
ATOM     25  C   UNL     1       2.007   5.093  19.792  0.00  0.00    +0.000 A 
ENDBRANCH   8  19
BRANCH   5  26
ATOM     26  C   UNL     1      -0.104   9.681  22.783  0.00  0.00    +0.000 C 
ATOM     27  F   UNL     1      -0.944   8.613  22.688  0.00  0.00    +0.000 F 
ATOM     28  F   UNL     1       0.867   9.315  23.663  0.00  0.00    +0.000 F 
ATOM     29  F   UNL     1      -0.819  10.662  23.399  0.00  0.00    +0.000 F 
ENDBRANCH   5  26
TORSDOF 3
ENDMDL
MODEL 9
REMARK VINA RESULT:      -8.2      3.497      5.046
REMARK  Name = 
REMARK  5 active torsions:
REMARK  status: ('A' for Active; 'I' for Inactive)
REMARK    1  A    between atoms: C_1  and  C_2
REMARK    2  A    between atoms: N_4  and  C_5
REMARK    3  A    between atoms: N_8  and  C_9
REMARK    4  A    between atoms: C_13  and  C_14
REMARK    5  A    between atoms: N_20  and  C_21
REMARK                            x       y       z     vdW  Elec       q    Type
REMARK                         _______ _______ _______ _____ _____    ______ ____
ROOT
ATOM      1  C   UNL     1       0.330  12.257  19.993  0.00  0.00    +0.000 A 
ATOM      2  C   UNL     1       0.883  11.501  18.955  0.00  0.00    +0.000 A 
ATOM      3  C   UNL     1       1.195  10.169  19.177  0.00  0.00    +0.000 A 
ATOM      4  C   UNL     1       0.921   9.508  20.365  0.00  0.00    +0.000 A 
ATOM      5  C   UNL     1       0.319  10.191  21.407  0.00  0.00    +0.000 A 
ATOM      6  C   UNL     1       0.046  11.563  21.203  0.00  0.00    +0.000 A 
ATOM      7  C   UNL     1       1.374   8.089  20.263  0.00  0.00    +0.000 C 
ATOM      8  N   UNL     1       1.977   8.019  18.939  0.00  0.00    +0.000 N 
ATOM      9  C   UNL     1       1.867   9.236  18.264  0.00  0.00    +0.000 C 
ATOM     10  O   UNL     1       2.228   9.574  17.153  0.00  0.00    +0.000 OA
ENDROOT
BRANCH   1  18
ATOM     11  C   UNL     1      -2.405  13.571  20.550  0.00  0.00    +0.000 C 
ATOM     12  C   UNL     1      -1.149  14.311  20.151  0.00  0.00    +0.000 C 
ATOM     13  C   UNL     1      -1.259  15.647  20.005  0.00  0.00    +0.000 C 
ATOM     14  N   UNL     1      -0.257  16.492  19.589  0.00  0.00    +0.000 N 
ATOM     15  C   UNL     1      -0.439  17.924  19.405  0.00  0.00    +0.000 C 
ATOM     16  C   UNL     1       1.059  15.966  19.242  0.00  0.00    +0.000 C 
ATOM     17  C   UNL     1       1.229  14.437  19.359  0.00  0.00    +0.000 C 
ATOM     18  N   UNL     1       0.064  13.649  19.856  0.00  0.00    +0.000 N 
ENDBRANCH   1  18
BRANCH   8  19
ATOM     19  C   UNL     1       2.624   6.848  18.465  0.00  0.00    +0.000 A 
ATOM     20  C   UNL     1       2.088   5.570  18.688  0.00  0.00    +0.000 A 
ATOM     21  C   UNL     1       2.718   4.421  18.195  0.00  0.00    +0.000 A 
ATOM     22  C   UNL     1       3.901   4.531  17.478  0.00  0.00    +0.000 A 
ATOM     23  C   UNL     1       4.442   5.788  17.259  0.00  0.00    +0.000 A 
ATOM     24  F   UNL     1       5.588   5.904  16.573  0.00  0.00    +0.000 F 
ATOM     25  C   UNL     1       3.818   6.939  17.737  0.00  0.00    +0.000 A 
ENDBRANCH   8  19
BRANCH   5  26
ATOM     26  C   UNL     1      -0.034   9.551  22.722  0.00  0.00    +0.000 C 
ATOM     27  F   UNL     1       1.050   9.176  23.456  0.00  0.00    +0.000 F 
ATOM     28  F   UNL     1      -0.762  10.375  23.524  0.00  0.00    +0.000 F 
ATOM     29  F   UNL     1      -0.783   8.425  22.562  0.00  0.00    +0.000 F 
ENDBRANCH   5  26
TORSDOF 3
ENDMDL
