MODEL 1
REMARK VINA RESULT:      -8.5      0.000      0.000
REMARK  Name = 
REMARK  7 active torsions:
REMARK  status: ('A' for Active; 'I' for Inactive)
REMARK    1  A    between atoms: C_1  and  N_2
REMARK    2  A    between atoms: C_6  and  C_7
REMARK    3  A    between atoms: C_7  and  C_8
REMARK    4  A    between atoms: C_8  and  N_9
REMARK    5  A    between atoms: C_8  and  C_10
REMARK    6  A    between atoms: C_14  and  N_15
REMARK    7  A    between atoms: C_16  and  C_18
REMARK                            x       y       z     vdW  Elec       q    Type
REMARK                         _______ _______ _______ _____ _____    ______ ____
ROOT
ATOM      1  C   UNL     1       4.245   5.240  17.184  0.00  0.00    +0.000 A 
ATOM      2  C   UNL     1       4.984   4.211  16.574  0.00  0.00    +0.000 A 
ATOM      3  C   UNL     1       6.313   4.401  16.221  0.00  0.00    +0.000 A 
ATOM      4  C   UNL     1       6.921   5.627  16.458  0.00  0.00    +0.000 A 
ATOM      5  C   UNL     1       6.216   6.692  17.031  0.00  0.00    +0.000 A 
ATOM      6  C   UNL     1       4.891   6.474  17.440  0.00  0.00    +0.000 A 
ENDROOT
BRANCH   5   7
ATOM      7  N   UNL     1       6.805   7.974  17.185  0.00  0.00    +0.000 N 
ATOM      8  C   UNL     1       7.858   8.235  18.055  0.00  0.00    +0.000 C 
ATOM      9  O   UNL     1       8.419   7.399  18.758  0.00  0.00    +0.000 OA
ATOM     10  H   UNL     1       6.552   8.719  16.541  0.00  0.00    +0.000 HD
BRANCH   8  11
ATOM     11  C   UNL     1       8.387   9.629  18.112  0.00  0.00    +0.000 A 
ATOM     12  C   UNL     1       9.433   9.864  19.000  0.00  0.00    +0.000 A 
ATOM     13  C   UNL     1       9.925  11.153  19.139  0.00  0.00    +0.000 A 
ATOM     14  C   UNL     1       9.364  12.177  18.380  0.00  0.00    +0.000 A 
ATOM     15  C   UNL     1       8.328  11.839  17.499  0.00  0.00    +0.000 A 
ATOM     16  N   UNL     1       7.822  10.586  17.337  0.00  0.00    +0.000 NA
ATOM     17  C   UNL     1       9.825  13.601  18.531  0.00  0.00    +0.000 C 
ATOM     18  C   UNL     1      10.998  13.835  19.505  0.00  0.00    +0.000 C 
ATOM     19  C   UNL     1      11.495  12.639  20.255  0.00  0.00    +0.000 C 
ATOM     20  C   UNL     1      11.005  11.406  20.090  0.00  0.00    +0.000 C 
ENDBRANCH   8  11
ENDBRANCH   5   7
BRANCH   1  21
ATOM     21  C   UNL     1       2.800   5.008  17.634  0.00  0.00    +0.000 C 
BRANCH  21  22
ATOM     22  N   UNL     1       2.533   5.889  18.780  0.00  0.00    +0.000 NA
ATOM     23  H   UNL     1       1.772   5.494  19.333  0.00  0.00    +0.000 HD
ATOM     24  H   UNL     1       2.171   6.786  18.444  0.00  0.00    +0.000 HD
ENDBRANCH  21  22
BRANCH  21  25
ATOM     25  C   UNL     1       2.477   3.509  17.918  0.00  0.00    +0.000 C 
BRANCH  25  31
ATOM     26  C   UNL     1       4.467   2.259  20.083  0.00  0.00    +0.000 C 
ATOM     27  N   UNL     1       3.094   2.650  20.263  0.00  0.00    +0.000 N 
ATOM     28  C   UNL     1       2.414   2.575  21.442  0.00  0.00    +0.000 A 
ATOM     29  N   UNL     1       1.211   3.072  21.289  0.00  0.00    +0.000 NA
ATOM     30  N   UNL     1       1.088   3.459  19.980  0.00  0.00    +0.000 NA
ATOM     31  C   UNL     1       2.220   3.191  19.355  0.00  0.00    +0.000 A 
ENDBRANCH  25  31
ENDBRANCH  21  25
ENDBRANCH   1  21
TORSDOF 6
ENDMDL
MODEL 2
REMARK VINA RESULT:      -8.5      5.131      7.543
REMARK  Name = 
REMARK  7 active torsions:
REMARK  status: ('A' for Active; 'I' for Inactive)
REMARK    1  A    between atoms: C_1  and  N_2
REMARK    2  A    between atoms: C_6  and  C_7
REMARK    3  A    between atoms: C_7  and  C_8
REMARK    4  A    between atoms: C_8  and  N_9
REMARK    5  A    between atoms: C_8  and  C_10
REMARK    6  A    between atoms: C_14  and  N_15
REMARK    7  A    between atoms: C_16  and  C_18
REMARK                            x       y       z     vdW  Elec       q    Type
REMARK                         _______ _______ _______ _____ _____    ______ ____
ROOT
ATOM      1  C   UNL     1       2.908   3.151  19.127  0.00  0.00    +0.000 A 
ATOM      2  C   UNL     1       3.035   2.326  20.259  0.00  0.00    +0.000 A 
ATOM      3  C   UNL     1       2.580   2.745  21.502  0.00  0.00    +0.000 A 
ATOM      4  C   UNL     1       2.004   4.002  21.636  0.00  0.00    +0.000 A 
ATOM      5  C   UNL     1       1.888   4.872  20.547  0.00  0.00    +0.000 A 
ATOM      6  C   UNL     1       2.295   4.418  19.282  0.00  0.00    +0.000 A 
ENDROOT
BRANCH   5   7
ATOM      7  N   UNL     1       1.391   6.193  20.701  0.00  0.00    +0.000 N 
ATOM      8  C   UNL     1       1.882   7.284  19.994  0.00  0.00    +0.000 C 
ATOM      9  O   UNL     1       2.766   7.237  19.142  0.00  0.00    +0.000 OA
ATOM     10  H   UNL     1       0.547   6.346  21.246  0.00  0.00    +0.000 HD
BRANCH   8  11
ATOM     11  C   UNL     1       1.262   8.617  20.250  0.00  0.00    +0.000 A 
ATOM     12  C   UNL     1       0.594   8.773  21.462  0.00  0.00    +0.000 A 
ATOM     13  C   UNL     1      -0.053   9.970  21.727  0.00  0.00    +0.000 A 
ATOM     14  C   UNL     1      -0.009  10.988  20.778  0.00  0.00    +0.000 A 
ATOM     15  C   UNL     1       0.704  10.745  19.596  0.00  0.00    +0.000 A 
ATOM     16  N   UNL     1       1.351   9.582  19.304  0.00  0.00    +0.000 NA
ATOM     17  C   UNL     1      -0.737  12.287  20.994  0.00  0.00    +0.000 C 
ATOM     18  C   UNL     1      -1.454  12.446  22.350  0.00  0.00    +0.000 C 
ATOM     19  C   UNL     1      -1.418  11.265  23.269  0.00  0.00    +0.000 C 
ATOM     20  C   UNL     1      -0.777  10.127  22.986  0.00  0.00    +0.000 C 
ENDBRANCH   8  11
ENDBRANCH   5   7
BRANCH   1  21
ATOM     21  C   UNL     1       3.348   2.661  17.745  0.00  0.00    +0.000 C 
BRANCH  21  22
ATOM     22  N   UNL     1       4.200   1.478  17.932  0.00  0.00    +0.000 NA
ATOM     23  H   UNL     1       3.767   0.860  18.618  0.00  0.00    +0.000 HD
ATOM     24  H   UNL     1       5.087   1.760  18.361  0.00  0.00    +0.000 HD
ENDBRANCH  21  22
BRANCH  21  25
ATOM     25  C   UNL     1       4.017   3.774  16.882  0.00  0.00    +0.000 C 
BRANCH  25  31
ATOM     26  C   UNL     1       6.506   4.318  14.954  0.00  0.00    +0.000 C 
ATOM     27  N   UNL     1       6.486   4.300  16.393  0.00  0.00    +0.000 N 
ATOM     28  C   UNL     1       7.565   4.557  17.187  0.00  0.00    +0.000 A 
ATOM     29  N   UNL     1       7.201   4.532  18.446  0.00  0.00    +0.000 NA
ATOM     30  N   UNL     1       5.864   4.229  18.483  0.00  0.00    +0.000 NA
ATOM     31  C   UNL     1       5.435   4.074  17.244  0.00  0.00    +0.000 A 
ENDBRANCH  25  31
ENDBRANCH  21  25
ENDBRANCH   1  21
TORSDOF 6
ENDMDL
MODEL 3
REMARK VINA RESULT:      -8.3      5.102      8.017
REMARK  Name = 
REMARK  7 active torsions:
REMARK  status: ('A' for Active; 'I' for Inactive)
REMARK    1  A    between atoms: C_1  and  N_2
REMARK    2  A    between atoms: C_6  and  C_7
REMARK    3  A    between atoms: C_7  and  C_8
REMARK    4  A    between atoms: C_8  and  N_9
REMARK    5  A    between atoms: C_8  and  C_10
REMARK    6  A    between atoms: C_14  and  N_15
REMARK    7  A    between atoms: C_16  and  C_18
REMARK                            x       y       z     vdW  Elec       q    Type
REMARK                         _______ _______ _______ _____ _____    ______ ____
ROOT
ATOM      1  C   UNL     1       4.984   5.233  17.916  0.00  0.00    +0.000 A 
ATOM      2  C   UNL     1       4.853   4.002  18.582  0.00  0.00    +0.000 A 
ATOM      3  C   UNL     1       3.849   3.800  19.518  0.00  0.00    +0.000 A 
ATOM      4  C   UNL     1       2.967   4.831  19.815  0.00  0.00    +0.000 A 
ATOM      5  C   UNL     1       3.079   6.085  19.203  0.00  0.00    +0.000 A 
ATOM      6  C   UNL     1       4.059   6.262  18.214  0.00  0.00    +0.000 A 
ENDROOT
BRANCH   5   7
ATOM      7  N   UNL     1       2.241   7.170  19.576  0.00  0.00    +0.000 N 
ATOM      8  C   UNL     1       2.035   8.288  18.776  0.00  0.00    +0.000 C 
ATOM      9  O   UNL     1       2.513   8.458  17.658  0.00  0.00    +0.000 OA
ATOM     10  H   UNL     1       1.650   7.083  20.398  0.00  0.00    +0.000 HD
BRANCH   8  11
ATOM     11  C   UNL     1       1.123   9.353  19.288  0.00  0.00    +0.000 A 
ATOM     12  C   UNL     1       0.800   9.300  20.641  0.00  0.00    +0.000 A 
ATOM     13  C   UNL     1      -0.091  10.228  21.160  0.00  0.00    +0.000 A 
ATOM     14  C   UNL     1      -0.632  11.193  20.313  0.00  0.00    +0.000 A 
ATOM     15  C   UNL     1      -0.232  11.177  18.970  0.00  0.00    +0.000 A 
ATOM     16  N   UNL     1       0.640  10.282  18.429  0.00  0.00    +0.000 NA
ATOM     17  C   UNL     1      -1.642  12.189  20.813  0.00  0.00    +0.000 C 
ATOM     18  C   UNL     1      -1.970  12.126  22.319  0.00  0.00    +0.000 C 
ATOM     19  C   UNL     1      -1.315  11.033  23.102  0.00  0.00    +0.000 C 
ATOM     20  C   UNL     1      -0.452  10.159  22.573  0.00  0.00    +0.000 C 
ENDBRANCH   8  11
ENDBRANCH   5   7
BRANCH   1  21
ATOM     21  C   UNL     1       6.050   5.431  16.835  0.00  0.00    +0.000 C 
BRANCH  21  22
ATOM     22  N   UNL     1       5.991   6.830  16.389  0.00  0.00    +0.000 NA
ATOM     23  H   UNL     1       6.443   7.422  17.087  0.00  0.00    +0.000 HD
ATOM     24  H   UNL     1       5.016   7.144  16.377  0.00  0.00    +0.000 HD
ENDBRANCH  21  22
BRANCH  21  25
ATOM     25  C   UNL     1       5.941   4.405  15.666  0.00  0.00    +0.000 C 
BRANCH  25  31
ATOM     26  C   UNL     1       5.638   3.390  12.652  0.00  0.00    +0.000 C 
ATOM     27  N   UNL     1       6.642   4.267  13.195  0.00  0.00    +0.000 N 
ATOM     28  C   UNL     1       7.638   4.849  12.470  0.00  0.00    +0.000 A 
ATOM     29  N   UNL     1       8.339   5.643  13.242  0.00  0.00    +0.000 NA
ATOM     30  N   UNL     1       7.809   5.563  14.505  0.00  0.00    +0.000 NA
ATOM     31  C   UNL     1       6.793   4.720  14.480  0.00  0.00    +0.000 A 
ENDBRANCH  25  31
ENDBRANCH  21  25
ENDBRANCH   1  21
TORSDOF 6
ENDMDL
MODEL 4
REMARK VINA RESULT:      -8.2      5.427      7.823
REMARK  Name = 
REMARK  7 active torsions:
REMARK  status: ('A' for Active; 'I' for Inactive)
REMARK    1  A    between atoms: C_1  and  N_2
REMARK    2  A    between atoms: C_6  and  C_7
REMARK    3  A    between atoms: C_7  and  C_8
REMARK    4  A    between atoms: C_8  and  N_9
REMARK    5  A    between atoms: C_8  and  C_10
REMARK    6  A    between atoms: C_14  and  N_15
REMARK    7  A    between atoms: C_16  and  C_18
REMARK                            x       y       z     vdW  Elec       q    Type
REMARK                         _______ _______ _______ _____ _____    ______ ____
ROOT
ATOM      1  C   UNL     1       5.049   4.234  17.125  0.00  0.00    +0.000 A 
ATOM      2  C   UNL     1       4.265   3.067  17.116  0.00  0.00    +0.000 A 
ATOM      3  C   UNL     1       2.917   3.110  17.441  0.00  0.00    +0.000 A 
ATOM      4  C   UNL     1       2.332   4.319  17.795  0.00  0.00    +0.000 A 
ATOM      5  C   UNL     1       3.079   5.501  17.852  0.00  0.00    +0.000 A 
ATOM      6  C   UNL     1       4.427   5.461  17.464  0.00  0.00    +0.000 A 
ENDROOT
BRANCH   5   7
ATOM      7  N   UNL     1       2.507   6.719  18.308  0.00  0.00    +0.000 N 
ATOM      8  C   UNL     1       2.053   6.913  19.607  0.00  0.00    +0.000 C 
ATOM      9  O   UNL     1       2.121   6.086  20.512  0.00  0.00    +0.000 OA
ATOM     10  H   UNL     1       2.547   7.541  17.712  0.00  0.00    +0.000 HD
BRANCH   8  11
ATOM     11  C   UNL     1       1.480   8.247  19.954  0.00  0.00    +0.000 A 
ATOM     12  C   UNL     1       0.855   8.354  21.194  0.00  0.00    +0.000 A 
ATOM     13  C   UNL     1       0.252   9.552  21.545  0.00  0.00    +0.000 A 
ATOM     14  C   UNL     1       0.295  10.619  20.650  0.00  0.00    +0.000 A 
ATOM     15  C   UNL     1       0.964  10.421  19.435  0.00  0.00    +0.000 A 
ATOM     16  N   UNL     1       1.567   9.259  19.059  0.00  0.00    +0.000 NA
ATOM     17  C   UNL     1      -0.388  11.923  20.960  0.00  0.00    +0.000 C 
ATOM     18  C   UNL     1      -1.056  12.027  22.346  0.00  0.00    +0.000 C 
ATOM     19  C   UNL     1      -1.026  10.797  23.198  0.00  0.00    +0.000 C 
ATOM     20  C   UNL     1      -0.427   9.659  22.834  0.00  0.00    +0.000 C 
ENDBRANCH   8  11
ENDBRANCH   5   7
BRANCH   1  21
ATOM     21  C   UNL     1       6.520   4.196  16.702  0.00  0.00    +0.000 C 
BRANCH  21  22
ATOM     22  N   UNL     1       7.344   4.397  17.901  0.00  0.00    +0.000 NA
ATOM     23  H   UNL     1       7.355   5.391  18.135  0.00  0.00    +0.000 HD
ATOM     24  H   UNL     1       8.320   4.171  17.688  0.00  0.00    +0.000 HD
ENDBRANCH  21  22
BRANCH  21  25
ATOM     25  C   UNL     1       6.854   5.191  15.548  0.00  0.00    +0.000 C 
BRANCH  25  31
ATOM     26  C   UNL     1       8.565   5.795  12.918  0.00  0.00    +0.000 C 
ATOM     27  N   UNL     1       7.442   4.907  13.061  0.00  0.00    +0.000 N 
ATOM     28  C   UNL     1       6.936   4.130  12.061  0.00  0.00    +0.000 A 
ATOM     29  N   UNL     1       5.964   3.386  12.530  0.00  0.00    +0.000 NA
ATOM     30  N   UNL     1       5.810   3.697  13.857  0.00  0.00    +0.000 NA
ATOM     31  C   UNL     1       6.692   4.627  14.174  0.00  0.00    +0.000 A 
ENDBRANCH  25  31
ENDBRANCH  21  25
ENDBRANCH   1  21
TORSDOF 6
ENDMDL
MODEL 5
REMARK VINA RESULT:      -8.1      1.121      1.656
REMARK  Name = 
REMARK  7 active torsions:
REMARK  status: ('A' for Active; 'I' for Inactive)
REMARK    1  A    between atoms: C_1  and  N_2
REMARK    2  A    between atoms: C_6  and  C_7
REMARK    3  A    between atoms: C_7  and  C_8
REMARK    4  A    between atoms: C_8  and  N_9
REMARK    5  A    between atoms: C_8  and  C_10
REMARK    6  A    between atoms: C_14  and  N_15
REMARK    7  A    between atoms: C_16  and  C_18
REMARK                            x       y       z     vdW  Elec       q    Type
REMARK                         _______ _______ _______ _____ _____    ______ ____
ROOT
ATOM      1  C   UNL     1       5.579   4.784  18.119  0.00  0.00    +0.000 A 
ATOM      2  C   UNL     1       5.648   4.120  16.881  0.00  0.00    +0.000 A 
ATOM      3  C   UNL     1       6.273   4.708  15.790  0.00  0.00    +0.000 A 
ATOM      4  C   UNL     1       6.828   5.975  15.915  0.00  0.00    +0.000 A 
ATOM      5  C   UNL     1       6.754   6.689  17.117  0.00  0.00    +0.000 A 
ATOM      6  C   UNL     1       6.173   6.064  18.231  0.00  0.00    +0.000 A 
ENDROOT
BRANCH   5   7
ATOM      7  N   UNL     1       7.232   8.022  17.219  0.00  0.00    +0.000 N 
ATOM      8  C   UNL     1       8.168   8.430  18.162  0.00  0.00    +0.000 C 
ATOM      9  O   UNL     1       8.711   7.697  18.984  0.00  0.00    +0.000 OA
ATOM     10  H   UNL     1       6.996   8.693  16.493  0.00  0.00    +0.000 HD
BRANCH   8  11
ATOM     11  C   UNL     1       8.589   9.862  18.153  0.00  0.00    +0.000 A 
ATOM     12  C   UNL     1       9.686  10.194  18.944  0.00  0.00    +0.000 A 
ATOM     13  C   UNL     1      10.086  11.520  19.022  0.00  0.00    +0.000 A 
ATOM     14  C   UNL     1       9.383  12.482  18.300  0.00  0.00    +0.000 A 
ATOM     15  C   UNL     1       8.305  12.048  17.517  0.00  0.00    +0.000 A 
ATOM     16  N   UNL     1       7.887  10.756  17.417  0.00  0.00    +0.000 NA
ATOM     17  C   UNL     1       9.743  13.940  18.390  0.00  0.00    +0.000 C 
ATOM     18  C   UNL     1      10.973  14.284  19.255  0.00  0.00    +0.000 C 
ATOM     19  C   UNL     1      11.624  13.145  19.975  0.00  0.00    +0.000 C 
ATOM     20  C   UNL     1      11.219  11.876  19.871  0.00  0.00    +0.000 C 
ENDBRANCH   8  11
ENDBRANCH   5   7
BRANCH   1  21
ATOM     21  C   UNL     1       4.948   4.107  19.339  0.00  0.00    +0.000 C 
BRANCH  21  22
ATOM     22  N   UNL     1       4.958   2.655  19.109  0.00  0.00    +0.000 NA
ATOM     23  H   UNL     1       5.394   2.463  18.207  0.00  0.00    +0.000 HD
ATOM     24  H   UNL     1       3.996   2.318  19.008  0.00  0.00    +0.000 HD
ENDBRANCH  21  22
BRANCH  21  25
ATOM     25  C   UNL     1       3.537   4.667  19.692  0.00  0.00    +0.000 C 
BRANCH  25  31
ATOM     26  C   UNL     1       1.588   2.876  21.482  0.00  0.00    +0.000 C 
ATOM     27  N   UNL     1       1.578   3.039  20.052  0.00  0.00    +0.000 N 
ATOM     28  C   UNL     1       0.678   2.456  19.210  0.00  0.00    +0.000 A 
ATOM     29  N   UNL     1       0.897   2.859  17.983  0.00  0.00    +0.000 NA
ATOM     30  N   UNL     1       1.976   3.704  18.012  0.00  0.00    +0.000 NA
ATOM     31  C   UNL     1       2.398   3.801  19.260  0.00  0.00    +0.000 A 
ENDBRANCH  25  31
ENDBRANCH  21  25
ENDBRANCH   1  21
TORSDOF 6
ENDMDL
MODEL 6
REMARK VINA RESULT:      -7.8      4.952      7.738
REMARK  Name = 
REMARK  7 active torsions:
REMARK  status: ('A' for Active; 'I' for Inactive)
REMARK    1  A    between atoms: C_1  and  N_2
REMARK    2  A    between atoms: C_6  and  C_7
REMARK    3  A    between atoms: C_7  and  C_8
REMARK    4  A    between atoms: C_8  and  N_9
REMARK    5  A    between atoms: C_8  and  C_10
REMARK    6  A    between atoms: C_14  and  N_15
REMARK    7  A    between atoms: C_16  and  C_18
REMARK                            x       y       z     vdW  Elec       q    Type
REMARK                         _______ _______ _______ _____ _____    ______ ____
ROOT
ATOM      1  C   UNL     1       5.256   4.459  18.932  0.00  0.00    +0.000 A 
ATOM      2  C   UNL     1       4.584   3.424  18.260  0.00  0.00    +0.000 A 
ATOM      3  C   UNL     1       3.198   3.399  18.192  0.00  0.00    +0.000 A 
ATOM      4  C   UNL     1       2.460   4.402  18.807  0.00  0.00    +0.000 A 
ATOM      5  C   UNL     1       3.083   5.435  19.518  0.00  0.00    +0.000 A 
ATOM      6  C   UNL     1       4.486   5.486  19.531  0.00  0.00    +0.000 A 
ENDROOT
BRANCH   5   7
ATOM      7  N   UNL     1       2.331   6.406  20.230  0.00  0.00    +0.000 N 
ATOM      8  C   UNL     1       2.000   7.652  19.710  0.00  0.00    +0.000 C 
ATOM      9  O   UNL     1       2.283   8.046  18.581  0.00  0.00    +0.000 OA
ATOM     10  H   UNL     1       1.888   6.147  21.107  0.00  0.00    +0.000 HD
BRANCH   8  11
ATOM     11  C   UNL     1       1.197   8.574  20.565  0.00  0.00    +0.000 A 
ATOM     12  C   UNL     1       0.444   9.541  19.903  0.00  0.00    +0.000 A 
ATOM     13  C   UNL     1      -0.275  10.463  20.648  0.00  0.00    +0.000 A 
ATOM     14  C   UNL     1      -0.231  10.392  22.039  0.00  0.00    +0.000 A 
ATOM     15  C   UNL     1       0.540   9.372  22.613  0.00  0.00    +0.000 A 
ATOM     16  N   UNL     1       1.256   8.451  21.912  0.00  0.00    +0.000 NA
ATOM     17  C   UNL     1      -0.950  11.400  22.894  0.00  0.00    +0.000 C 
ATOM     18  C   UNL     1      -1.794  12.449  22.141  0.00  0.00    +0.000 C 
ATOM     19  C   UNL     1      -1.741  12.404  20.647  0.00  0.00    +0.000 C 
ATOM     20  C   UNL     1      -1.045  11.495  19.958  0.00  0.00    +0.000 C 
ENDBRANCH   8  11
ENDBRANCH   5   7
BRANCH   1  21
ATOM     21  C   UNL     1       6.786   4.521  18.949  0.00  0.00    +0.000 C 
BRANCH  21  22
ATOM     22  N   UNL     1       7.188   5.593  19.871  0.00  0.00    +0.000 NA
ATOM     23  H   UNL     1       6.375   6.171  20.084  0.00  0.00    +0.000 HD
ATOM     24  H   UNL     1       7.839   6.226  19.396  0.00  0.00    +0.000 HD
ENDBRANCH  21  22
BRANCH  21  25
ATOM     25  C   UNL     1       7.412   4.662  17.528  0.00  0.00    +0.000 C 
BRANCH  25  31
ATOM     26  C   UNL     1       6.084   3.696  14.787  0.00  0.00    +0.000 C 
ATOM     27  N   UNL     1       6.029   5.003  15.386  0.00  0.00    +0.000 N 
ATOM     28  C   UNL     1       5.346   6.065  14.871  0.00  0.00    +0.000 A 
ATOM     29  N   UNL     1       5.437   7.085  15.688  0.00  0.00    +0.000 NA
ATOM     30  N   UNL     1       6.214   6.697  16.748  0.00  0.00    +0.000 NA
ATOM     31  C   UNL     1       6.585   5.444  16.559  0.00  0.00    +0.000 A 
ENDBRANCH  25  31
ENDBRANCH  21  25
ENDBRANCH   1  21
TORSDOF 6
ENDMDL
MODEL 7
REMARK VINA RESULT:      -7.8      1.642      2.271
REMARK  Name = 
REMARK  7 active torsions:
REMARK  status: ('A' for Active; 'I' for Inactive)
REMARK    1  A    between atoms: C_1  and  N_2
REMARK    2  A    between atoms: C_6  and  C_7
REMARK    3  A    between atoms: C_7  and  C_8
REMARK    4  A    between atoms: C_8  and  N_9
REMARK    5  A    between atoms: C_8  and  C_10
REMARK    6  A    between atoms: C_14  and  N_15
REMARK    7  A    between atoms: C_16  and  C_18
REMARK                            x       y       z     vdW  Elec       q    Type
REMARK                         _______ _______ _______ _____ _____    ______ ____
ROOT
ATOM      1  C   UNL     1       5.789   4.817  18.638  0.00  0.00    +0.000 A 
ATOM      2  C   UNL     1       5.819   4.464  17.277  0.00  0.00    +0.000 A 
ATOM      3  C   UNL     1       6.664   5.116  16.389  0.00  0.00    +0.000 A 
ATOM      4  C   UNL     1       7.483   6.141  16.845  0.00  0.00    +0.000 A 
ATOM      5  C   UNL     1       7.463   6.551  18.183  0.00  0.00    +0.000 A 
ATOM      6  C   UNL     1       6.651   5.848  19.086  0.00  0.00    +0.000 A 
ENDROOT
BRANCH   5   7
ATOM      7  N   UNL     1       8.226   7.662  18.630  0.00  0.00    +0.000 N 
ATOM      8  C   UNL     1       8.158   8.922  18.047  0.00  0.00    +0.000 C 
ATOM      9  O   UNL     1       7.422   9.233  17.114  0.00  0.00    +0.000 OA
ATOM     10  H   UNL     1       8.748   7.590  19.499  0.00  0.00    +0.000 HD
BRANCH   8  11
ATOM     11  C   UNL     1       9.011  10.004  18.622  0.00  0.00    +0.000 A 
ATOM     12  C   UNL     1       9.654  10.842  17.714  0.00  0.00    +0.000 A 
ATOM     13  C   UNL     1      10.505  11.827  18.190  0.00  0.00    +0.000 A 
ATOM     14  C   UNL     1      10.689  11.957  19.565  0.00  0.00    +0.000 A 
ATOM     15  C   UNL     1       9.983  11.080  20.400  0.00  0.00    +0.000 A 
ATOM     16  N   UNL     1       9.140  10.103  19.966  0.00  0.00    +0.000 NA
ATOM     17  C   UNL     1      11.641  12.974  20.130  0.00  0.00    +0.000 C 
ATOM     18  C   UNL     1      12.327  13.904  19.109  0.00  0.00    +0.000 C 
ATOM     19  C   UNL     1      12.037  13.642  17.664  0.00  0.00    +0.000 C 
ATOM     20  C   UNL     1      11.202  12.689  17.239  0.00  0.00    +0.000 C 
ENDBRANCH   8  11
ENDBRANCH   5   7
BRANCH   1  21
ATOM     21  C   UNL     1       4.907   4.052  19.628  0.00  0.00    +0.000 C 
BRANCH  21  22
ATOM     22  N   UNL     1       4.839   2.652  19.189  0.00  0.00    +0.000 NA
ATOM     23  H   UNL     1       3.895   2.452  18.858  0.00  0.00    +0.000 HD
ATOM     24  H   UNL     1       4.966   2.034  19.997  0.00  0.00    +0.000 HD
ENDBRANCH  21  22
BRANCH  21  25
ATOM     25  C   UNL     1       3.506   4.704  19.834  0.00  0.00    +0.000 C 
BRANCH  25  31
ATOM     26  C   UNL     1       0.954   3.265  18.558  0.00  0.00    +0.000 C 
ATOM     27  N   UNL     1       1.409   3.216  19.922  0.00  0.00    +0.000 N 
ATOM     28  C   UNL     1       0.816   2.491  20.913  0.00  0.00    +0.000 A 
ATOM     29  N   UNL     1       1.512   2.603  22.017  0.00  0.00    +0.000 NA
ATOM     30  N   UNL     1       2.569   3.436  21.757  0.00  0.00    +0.000 NA
ATOM     31  C   UNL     1       2.499   3.819  20.495  0.00  0.00    +0.000 A 
ENDBRANCH  25  31
ENDBRANCH  21  25
ENDBRANCH   1  21
TORSDOF 6
ENDMDL
MODEL 8
REMARK VINA RESULT:      -7.7      2.860      4.980
REMARK  Name = 
REMARK  7 active torsions:
REMARK  status: ('A' for Active; 'I' for Inactive)
REMARK    1  A    between atoms: C_1  and  N_2
REMARK    2  A    between atoms: C_6  and  C_7
REMARK    3  A    between atoms: C_7  and  C_8
REMARK    4  A    between atoms: C_8  and  N_9
REMARK    5  A    between atoms: C_8  and  C_10
REMARK    6  A    between atoms: C_14  and  N_15
REMARK    7  A    between atoms: C_16  and  C_18
REMARK                            x       y       z     vdW  Elec       q    Type
REMARK                         _______ _______ _______ _____ _____    ______ ____
ROOT
ATOM      1  C   UNL     1       6.406   6.219  17.231  0.00  0.00    +0.000 A 
ATOM      2  C   UNL     1       6.911   5.430  18.279  0.00  0.00    +0.000 A 
ATOM      3  C   UNL     1       7.884   5.921  19.138  0.00  0.00    +0.000 A 
ATOM      4  C   UNL     1       8.381   7.205  18.953  0.00  0.00    +0.000 A 
ATOM      5  C   UNL     1       7.935   8.016  17.902  0.00  0.00    +0.000 A 
ATOM      6  C   UNL     1       6.908   7.534  17.076  0.00  0.00    +0.000 A 
ENDROOT
BRANCH   5   7
ATOM      7  N   UNL     1       8.510   9.290  17.652  0.00  0.00    +0.000 N 
ATOM      8  C   UNL     1       8.996  10.121  18.655  0.00  0.00    +0.000 C 
ATOM      9  O   UNL     1       9.020   9.848  19.852  0.00  0.00    +0.000 OA
ATOM     10  H   UNL     1       8.709   9.567  16.695  0.00  0.00    +0.000 HD
BRANCH   8  11
ATOM     11  C   UNL     1       9.582  11.432  18.250  0.00  0.00    +0.000 A 
ATOM     12  C   UNL     1       8.786  12.559  18.445  0.00  0.00    +0.000 A 
ATOM     13  C   UNL     1       9.255  13.797  18.033  0.00  0.00    +0.000 A 
ATOM     14  C   UNL     1      10.513  13.881  17.442  0.00  0.00    +0.000 A 
ATOM     15  C   UNL     1      11.248  12.696  17.306  0.00  0.00    +0.000 A 
ATOM     16  N   UNL     1      10.819  11.466  17.700  0.00  0.00    +0.000 NA
ATOM     17  C   UNL     1      11.047  15.191  16.930  0.00  0.00    +0.000 C 
ATOM     18  C   UNL     1      10.158  16.428  17.174  0.00  0.00    +0.000 C 
ATOM     19  C   UNL     1       8.830  16.182  17.817  0.00  0.00    +0.000 C 
ATOM     20  C   UNL     1       8.411  14.975  18.212  0.00  0.00    +0.000 C 
ENDBRANCH   8  11
ENDBRANCH   5   7
BRANCH   1  21
ATOM     21  C   UNL     1       5.285   5.700  16.327  0.00  0.00    +0.000 C 
BRANCH  21  22
ATOM     22  N   UNL     1       4.087   5.504  17.155  0.00  0.00    +0.000 NA
ATOM     23  H   UNL     1       3.982   4.510  17.359  0.00  0.00    +0.000 HD
ATOM     24  H   UNL     1       3.252   5.746  16.611  0.00  0.00    +0.000 HD
ENDBRANCH  21  22
BRANCH  21  25
ATOM     25  C   UNL     1       5.688   4.433  15.512  0.00  0.00    +0.000 C 
BRANCH  25  31
ATOM     26  C   UNL     1       5.558   3.351  12.508  0.00  0.00    +0.000 C 
ATOM     27  N   UNL     1       6.549   4.213  13.099  0.00  0.00    +0.000 N 
ATOM     28  C   UNL     1       7.609   4.749  12.430  0.00  0.00    +0.000 A 
ATOM     29  N   UNL     1       8.279   5.541  13.229  0.00  0.00    +0.000 NA
ATOM     30  N   UNL     1       7.664   5.508  14.454  0.00  0.00    +0.000 NA
ATOM     31  C   UNL     1       6.627   4.694  14.380  0.00  0.00    +0.000 A 
ENDBRANCH  25  31
ENDBRANCH  21  25
ENDBRANCH   1  21
TORSDOF 6
ENDMDL
MODEL 9
REMARK VINA RESULT:      -7.7      5.396      7.976
REMARK  Name = 
REMARK  7 active torsions:
REMARK  status: ('A' for Active; 'I' for Inactive)
REMARK    1  A    between atoms: C_1  and  N_2
REMARK    2  A    between atoms: C_6  and  C_7
REMARK    3  A    between atoms: C_7  and  C_8
REMARK    4  A    between atoms: C_8  and  N_9
REMARK    5  A    between atoms: C_8  and  C_10
REMARK    6  A    between atoms: C_14  and  N_15
REMARK    7  A    between atoms: C_16  and  C_18
REMARK                            x       y       z     vdW  Elec       q    Type
REMARK                         _______ _______ _______ _____ _____    ______ ____
ROOT
ATOM      1  C   UNL     1       4.704   4.389  18.672  0.00  0.00    +0.000 A 
ATOM      2  C   UNL     1       4.418   3.086  19.114  0.00  0.00    +0.000 A 
ATOM      3  C   UNL     1       3.384   2.847  20.009  0.00  0.00    +0.000 A 
ATOM      4  C   UNL     1       2.629   3.909  20.488  0.00  0.00    +0.000 A 
ATOM      5  C   UNL     1       2.898   5.228  20.104  0.00  0.00    +0.000 A 
ATOM      6  C   UNL     1       3.906   5.455  19.153  0.00  0.00    +0.000 A 
ENDROOT
BRANCH   5   7
ATOM      7  N   UNL     1       2.192   6.324  20.667  0.00  0.00    +0.000 N 
ATOM      8  C   UNL     1       1.922   7.498  19.974  0.00  0.00    +0.000 C 
ATOM      9  O   UNL     1       2.224   7.716  18.804  0.00  0.00    +0.000 OA
ATOM     10  H   UNL     1       1.737   6.212  21.569  0.00  0.00    +0.000 HD
BRANCH   8  11
ATOM     11  C   UNL     1       1.164   8.569  20.685  0.00  0.00    +0.000 A 
ATOM     12  C   UNL     1       0.518   9.511  19.888  0.00  0.00    +0.000 A 
ATOM     13  C   UNL     1      -0.153  10.562  20.494  0.00  0.00    +0.000 A 
ATOM     14  C   UNL     1      -0.168  10.644  21.884  0.00  0.00    +0.000 A 
ATOM     15  C   UNL     1       0.493   9.638  22.601  0.00  0.00    +0.000 A 
ATOM     16  N   UNL     1       1.160   8.592  22.039  0.00  0.00    +0.000 NA
ATOM     17  C   UNL     1      -0.836  11.792  22.590  0.00  0.00    +0.000 C 
ATOM     18  C   UNL     1      -1.562  12.813  21.689  0.00  0.00    +0.000 C 
ATOM     19  C   UNL     1      -1.454  12.598  20.212  0.00  0.00    +0.000 C 
ATOM     20  C   UNL     1      -0.808  11.567  19.660  0.00  0.00    +0.000 C 
ENDBRANCH   8  11
ENDBRANCH   5   7
BRANCH   1  21
ATOM     21  C   UNL     1       5.801   4.644  17.634  0.00  0.00    +0.000 C 
BRANCH  21  22
ATOM     22  N   UNL     1       6.624   5.765  18.107  0.00  0.00    +0.000 NA
ATOM     23  H   UNL     1       6.012   6.520  18.418  0.00  0.00    +0.000 HD
ATOM     24  H   UNL     1       7.145   6.163  17.319  0.00  0.00    +0.000 HD
ENDBRANCH  21  22
BRANCH  21  25
ATOM     25  C   UNL     1       5.246   4.849  16.191  0.00  0.00    +0.000 C 
BRANCH  25  31
ATOM     26  C   UNL     1       5.248   3.601  13.250  0.00  0.00    +0.000 C 
ATOM     27  N   UNL     1       6.270   4.398  13.875  0.00  0.00    +0.000 N 
ATOM     28  C   UNL     1       7.429   4.787  13.271  0.00  0.00    +0.000 A 
ATOM     29  N   UNL     1       8.110   5.560  14.081  0.00  0.00    +0.000 NA
ATOM     30  N   UNL     1       7.399   5.663  15.249  0.00  0.00    +0.000 NA
ATOM     31  C   UNL     1       6.295   4.948  15.131  0.00  0.00    +0.000 A 
ENDBRANCH  25  31
ENDBRANCH  21  25
ENDBRANCH   1  21
TORSDOF 6
ENDMDL
