MODEL 1
REMARK VINA RESULT:      -8.8      0.000      0.000
REMARK  Name = 
REMARK  6 active torsions:
REMARK  status: ('A' for Active; 'I' for Inactive)
REMARK    1  A    between atoms: C_1  and  C_2
REMARK    2  A    between atoms: C_5  and  C_6
REMARK    3  A    between atoms: C_9  and  N_10
REMARK    4  A    between atoms: C_11  and  C_13
REMARK    5  A    between atoms: C_13  and  O_14
REMARK    6  A    between atoms: O_14  and  C_15
REMARK                            x       y       z     vdW  Elec       q    Type
REMARK                         _______ _______ _______ _____ _____    ______ ____
ROOT
ATOM      1  N   UNL     1       4.640   5.419  17.785  0.00  0.00    +0.000 N 
ATOM      2  C   UNL     1       3.893   4.556  18.575  0.00  0.00    +0.000 C 
ATOM      3  O   UNL     1       4.216   3.418  18.904  0.00  0.00    +0.000 OA
ATOM      4  H   UNL     1       4.063   6.078  17.262  0.00  0.00    +0.000 HD
ENDROOT
BRANCH   1  10
ATOM      5  C   UNL     1       5.100   4.080  14.868  0.00  0.00    +0.000 C 
ATOM      6  C   UNL     1       6.027   4.506  15.941  0.00  0.00    +0.000 A 
ATOM      7  N   UNL     1       7.375   4.290  15.843  0.00  0.00    +0.000 N 
ATOM      8  N   UNL     1       8.071   4.631  16.937  0.00  0.00    +0.000 NA
ATOM      9  C   UNL     1       7.127   5.099  17.785  0.00  0.00    +0.000 A 
ATOM     10  C   UNL     1       5.835   5.058  17.188  0.00  0.00    +0.000 A 
ATOM     11  H   UNL     1       7.880   3.881  15.066  0.00  0.00    +0.000 HD
BRANCH   9  12
ATOM     12  C   UNL     1       7.480   5.620  19.110  0.00  0.00    +0.000 C 
ATOM     13  N   UNL     1       8.278   6.733  19.078  0.00  0.00    +0.000 N 
ATOM     14  O   UNL     1       7.091   5.123  20.161  0.00  0.00    +0.000 OA
ATOM     15  H   UNL     1       8.512   7.126  18.178  0.00  0.00    +0.000 HD
ATOM     16  H   UNL     1       8.503   7.212  19.934  0.00  0.00    +0.000 HD
ENDBRANCH   9  12
ENDBRANCH   1  10
BRANCH   2  17
ATOM     17  C   UNL     1       2.533   5.150  18.975  0.00  0.00    +0.000 C 
BRANCH  17  18
ATOM     18  O   UNL     1       2.765   6.304  19.775  0.00  0.00    +0.000 OA
BRANCH  18  19
ATOM     19  C   UNL     1       2.194   7.487  19.417  0.00  0.00    +0.000 A 
ATOM     20  C   UNL     1       2.304   8.127  18.181  0.00  0.00    +0.000 A 
ATOM     21  C   UNL     1       1.670   9.361  17.948  0.00  0.00    +0.000 A 
ATOM     22  C   UNL     1       0.933   9.902  19.002  0.00  0.00    +0.000 A 
ATOM     23  O   UNL     1       0.239  11.082  18.980  0.00  0.00    +0.000 OA
ATOM     24  C   UNL     1      -0.322  11.207  20.207  0.00  0.00    +0.000 A 
ATOM     25  C   UNL     1       0.003  10.149  21.026  0.00  0.00    +0.000 A 
ATOM     26  C   UNL     1       0.811   9.291  20.247  0.00  0.00    +0.000 A 
ATOM     27  C   UNL     1       1.453   8.065  20.458  0.00  0.00    +0.000 A 
ATOM     28  C   UNL     1      -0.485  10.042  22.425  0.00  0.00    +0.000 C 
ATOM     29  C   UNL     1      -1.012  11.404  22.920  0.00  0.00    +0.000 C 
ATOM     30  C   UNL     1      -1.900  12.102  21.866  0.00  0.00    +0.000 C 
ATOM     31  C   UNL     1      -1.140  12.391  20.553  0.00  0.00    +0.000 C 
ENDBRANCH  18  19
ENDBRANCH  17  18
ENDBRANCH   2  17
TORSDOF 5
ENDMDL
MODEL 2
REMARK VINA RESULT:      -8.3      1.234      1.274
REMARK  Name = 
REMARK  6 active torsions:
REMARK  status: ('A' for Active; 'I' for Inactive)
REMARK    1  A    between atoms: C_1  and  C_2
REMARK    2  A    between atoms: C_5  and  C_6
REMARK    3  A    between atoms: C_9  and  N_10
REMARK    4  A    between atoms: C_11  and  C_13
REMARK    5  A    between atoms: C_13  and  O_14
REMARK    6  A    between atoms: O_14  and  C_15
REMARK                            x       y       z     vdW  Elec       q    Type
REMARK                         _______ _______ _______ _____ _____    ______ ____
ROOT
ATOM      1  N   UNL     1       4.582   5.689  16.698  0.00  0.00    +0.000 N 
ATOM      2  C   UNL     1       4.347   4.944  17.847  0.00  0.00    +0.000 C 
ATOM      3  O   UNL     1       5.141   4.174  18.381  0.00  0.00    +0.000 OA
ATOM      4  H   UNL     1       3.730   5.886  16.172  0.00  0.00    +0.000 HD
ENDROOT
BRANCH   1  10
ATOM      5  C   UNL     1       5.072   3.988  13.981  0.00  0.00    +0.000 C 
ATOM      6  C   UNL     1       5.941   4.875  14.788  0.00  0.00    +0.000 A 
ATOM      7  N   UNL     1       7.261   5.053  14.475  0.00  0.00    +0.000 N 
ATOM      8  N   UNL     1       7.944   5.797  15.358  0.00  0.00    +0.000 NA
ATOM      9  C   UNL     1       7.016   6.125  16.286  0.00  0.00    +0.000 A 
ATOM     10  C   UNL     1       5.742   5.584  15.952  0.00  0.00    +0.000 A 
ATOM     11  H   UNL     1       7.768   4.664  13.689  0.00  0.00    +0.000 HD
BRANCH   9  12
ATOM     12  C   UNL     1       7.349   6.982  17.428  0.00  0.00    +0.000 C 
ATOM     13  N   UNL     1       7.557   6.300  18.598  0.00  0.00    +0.000 N 
ATOM     14  O   UNL     1       7.449   8.203  17.355  0.00  0.00    +0.000 OA
ATOM     15  H   UNL     1       7.519   5.291  18.574  0.00  0.00    +0.000 HD
ATOM     16  H   UNL     1       7.873   6.794  19.415  0.00  0.00    +0.000 HD
ENDBRANCH   9  12
ENDBRANCH   1  10
BRANCH   2  17
ATOM     17  C   UNL     1       2.920   5.127  18.386  0.00  0.00    +0.000 C 
BRANCH  17  18
ATOM     18  O   UNL     1       2.951   6.111  19.414  0.00  0.00    +0.000 OA
BRANCH  18  19
ATOM     19  C   UNL     1       2.361   7.318  19.197  0.00  0.00    +0.000 A 
ATOM     20  C   UNL     1       2.443   8.091  18.037  0.00  0.00    +0.000 A 
ATOM     21  C   UNL     1       1.791   9.334  17.950  0.00  0.00    +0.000 A 
ATOM     22  C   UNL     1       1.067   9.748  19.069  0.00  0.00    +0.000 A 
ATOM     23  O   UNL     1       0.360  10.914  19.187  0.00  0.00    +0.000 OA
ATOM     24  C   UNL     1      -0.180  10.898  20.430  0.00  0.00    +0.000 A 
ATOM     25  C   UNL     1       0.171   9.761  21.122  0.00  0.00    +0.000 A 
ATOM     26  C   UNL     1       0.974   9.004  20.242  0.00  0.00    +0.000 A 
ATOM     27  C   UNL     1       1.633   7.770  20.307  0.00  0.00    +0.000 A 
ATOM     28  C   UNL     1      -0.292   9.496  22.509  0.00  0.00    +0.000 C 
ATOM     29  C   UNL     1      -0.825  10.790  23.159  0.00  0.00    +0.000 C 
ATOM     30  C   UNL     1      -1.739  11.587  22.202  0.00  0.00    +0.000 C 
ATOM     31  C   UNL     1      -1.005  12.027  20.916  0.00  0.00    +0.000 C 
ENDBRANCH  18  19
ENDBRANCH  17  18
ENDBRANCH   2  17
TORSDOF 5
ENDMDL
MODEL 3
REMARK VINA RESULT:      -8.2      3.962      8.635
REMARK  Name = 
REMARK  6 active torsions:
REMARK  status: ('A' for Active; 'I' for Inactive)
REMARK    1  A    between atoms: C_1  and  C_2
REMARK    2  A    between atoms: C_5  and  C_6
REMARK    3  A    between atoms: C_9  and  N_10
REMARK    4  A    between atoms: C_11  and  C_13
REMARK    5  A    between atoms: C_13  and  O_14
REMARK    6  A    between atoms: O_14  and  C_15
REMARK                            x       y       z     vdW  Elec       q    Type
REMARK                         _______ _______ _______ _____ _____    ______ ____
ROOT
ATOM      1  N   UNL     1      -0.162   9.861  19.818  0.00  0.00    +0.000 N 
ATOM      2  C   UNL     1       0.827  10.261  18.930  0.00  0.00    +0.000 C 
ATOM      3  O   UNL     1       1.461  11.312  18.983  0.00  0.00    +0.000 OA
ATOM      4  H   UNL     1      -0.853   9.243  19.390  0.00  0.00    +0.000 HD
ENDROOT
BRANCH   1  10
ATOM      5  C   UNL     1       0.333   9.512  23.004  0.00  0.00    +0.000 C 
ATOM      6  C   UNL     1      -0.396  10.519  22.199  0.00  0.00    +0.000 A 
ATOM      7  N   UNL     1      -1.106  11.525  22.795  0.00  0.00    +0.000 N 
ATOM      8  N   UNL     1      -1.801  12.293  21.942  0.00  0.00    +0.000 NA
ATOM      9  C   UNL     1      -1.520  11.761  20.731  0.00  0.00    +0.000 A 
ATOM     10  C   UNL     1      -0.624  10.660  20.849  0.00  0.00    +0.000 A 
ATOM     11  H   UNL     1      -1.186  11.723  23.786  0.00  0.00    +0.000 HD
BRANCH   9  12
ATOM     12  C   UNL     1      -2.062  12.341  19.498  0.00  0.00    +0.000 C 
ATOM     13  N   UNL     1      -1.201  13.191  18.854  0.00  0.00    +0.000 N 
ATOM     14  O   UNL     1      -3.179  12.085  19.061  0.00  0.00    +0.000 OA
ATOM     15  H   UNL     1      -0.274  13.310  19.237  0.00  0.00    +0.000 HD
ATOM     16  H   UNL     1      -1.451  13.571  17.957  0.00  0.00    +0.000 HD
ENDBRANCH   9  12
ENDBRANCH   1  10
BRANCH   2  17
ATOM     17  C   UNL     1       1.033   9.258  17.785  0.00  0.00    +0.000 C 
BRANCH  17  18
ATOM     18  O   UNL     1       2.428   9.159  17.519  0.00  0.00    +0.000 OA
BRANCH  18  19
ATOM     19  C   UNL     1       3.063   7.972  17.724  0.00  0.00    +0.000 A 
ATOM     20  C   UNL     1       4.245   7.543  17.117  0.00  0.00    +0.000 A 
ATOM     21  C   UNL     1       4.789   6.279  17.410  0.00  0.00    +0.000 A 
ATOM     22  C   UNL     1       4.095   5.490  18.328  0.00  0.00    +0.000 A 
ATOM     23  O   UNL     1       4.456   4.240  18.754  0.00  0.00    +0.000 OA
ATOM     24  C   UNL     1       3.503   3.858  19.638  0.00  0.00    +0.000 A 
ATOM     25  C   UNL     1       2.529   4.820  19.784  0.00  0.00    +0.000 A 
ATOM     26  C   UNL     1       2.911   5.888  18.944  0.00  0.00    +0.000 A 
ATOM     27  C   UNL     1       2.387   7.149  18.635  0.00  0.00    +0.000 A 
ATOM     28  C   UNL     1       1.370   4.650  20.698  0.00  0.00    +0.000 C 
ATOM     29  C   UNL     1       1.206   3.168  21.096  0.00  0.00    +0.000 C 
ATOM     30  C   UNL     1       2.555   2.514  21.466  0.00  0.00    +0.000 C 
ATOM     31  C   UNL     1       3.561   2.531  20.293  0.00  0.00    +0.000 C 
ENDBRANCH  18  19
ENDBRANCH  17  18
ENDBRANCH   2  17
TORSDOF 5
ENDMDL
MODEL 4
REMARK VINA RESULT:      -8.1      6.163      8.389
REMARK  Name = 
REMARK  6 active torsions:
REMARK  status: ('A' for Active; 'I' for Inactive)
REMARK    1  A    between atoms: C_1  and  C_2
REMARK    2  A    between atoms: C_5  and  C_6
REMARK    3  A    between atoms: C_9  and  N_10
REMARK    4  A    between atoms: C_11  and  C_13
REMARK    5  A    between atoms: C_13  and  O_14
REMARK    6  A    between atoms: O_14  and  C_15
REMARK                            x       y       z     vdW  Elec       q    Type
REMARK                         _______ _______ _______ _____ _____    ______ ____
ROOT
ATOM      1  N   UNL     1       6.313   7.128  16.947  0.00  0.00    +0.000 N 
ATOM      2  C   UNL     1       7.403   7.321  17.785  0.00  0.00    +0.000 C 
ATOM      3  O   UNL     1       7.915   6.469  18.507  0.00  0.00    +0.000 OA
ATOM      4  H   UNL     1       5.770   7.980  16.800  0.00  0.00    +0.000 HD
ENDROOT
BRANCH   1  10
ATOM      5  C   UNL     1       3.940   6.110  18.910  0.00  0.00    +0.000 C 
ATOM      6  C   UNL     1       4.583   5.522  17.712  0.00  0.00    +0.000 A 
ATOM      7  N   UNL     1       4.250   4.271  17.270  0.00  0.00    +0.000 N 
ATOM      8  N   UNL     1       4.991   3.832  16.242  0.00  0.00    +0.000 NA
ATOM      9  C   UNL     1       5.842   4.855  16.000  0.00  0.00    +0.000 A 
ATOM     10  C   UNL     1       5.602   5.943  16.887  0.00  0.00    +0.000 A 
ATOM     11  H   UNL     1       3.547   3.647  17.650  0.00  0.00    +0.000 HD
BRANCH   9  12
ATOM     12  C   UNL     1       6.817   4.796  14.906  0.00  0.00    +0.000 C 
ATOM     13  N   UNL     1       6.569   3.810  13.988  0.00  0.00    +0.000 N 
ATOM     14  O   UNL     1       7.768   5.564  14.802  0.00  0.00    +0.000 OA
ATOM     15  H   UNL     1       5.734   3.252  14.102  0.00  0.00    +0.000 HD
ATOM     16  H   UNL     1       7.133   3.746  13.158  0.00  0.00    +0.000 HD
ENDBRANCH   9  12
ENDBRANCH   1  10
BRANCH   2  17
ATOM     17  C   UNL     1       7.902   8.774  17.780  0.00  0.00    +0.000 C 
BRANCH  17  18
ATOM     18  O   UNL     1       8.982   8.880  18.702  0.00  0.00    +0.000 OA
BRANCH  18  19
ATOM     19  C   UNL     1       9.257  10.087  19.268  0.00  0.00    +0.000 A 
ATOM     20  C   UNL     1       9.023  10.460  20.594  0.00  0.00    +0.000 A 
ATOM     21  C   UNL     1       9.345  11.751  21.048  0.00  0.00    +0.000 A 
ATOM     22  C   UNL     1       9.903  12.628  20.117  0.00  0.00    +0.000 A 
ATOM     23  O   UNL     1      10.291  13.919  20.355  0.00  0.00    +0.000 OA
ATOM     24  C   UNL     1      10.775  14.385  19.178  0.00  0.00    +0.000 A 
ATOM     25  C   UNL     1      10.698  13.436  18.184  0.00  0.00    +0.000 A 
ATOM     26  C   UNL     1      10.141  12.288  18.788  0.00  0.00    +0.000 A 
ATOM     27  C   UNL     1       9.811  10.998  18.357  0.00  0.00    +0.000 A 
ATOM     28  C   UNL     1      11.165  13.693  16.797  0.00  0.00    +0.000 C 
ATOM     29  C   UNL     1      11.334  15.207  16.553  0.00  0.00    +0.000 C 
ATOM     30  C   UNL     1      12.051  15.908  17.729  0.00  0.00    +0.000 C 
ATOM     31  C   UNL     1      11.274  15.774  19.057  0.00  0.00    +0.000 C 
ENDBRANCH  18  19
ENDBRANCH  17  18
ENDBRANCH   2  17
TORSDOF 5
ENDMDL
MODEL 5
REMARK VINA RESULT:      -8.1      2.637      4.289
REMARK  Name = 
REMARK  6 active torsions:
REMARK  status: ('A' for Active; 'I' for Inactive)
REMARK    1  A    between atoms: C_1  and  C_2
REMARK    2  A    between atoms: C_5  and  C_6
REMARK    3  A    between atoms: C_9  and  N_10
REMARK    4  A    between atoms: C_11  and  C_13
REMARK    5  A    between atoms: C_13  and  O_14
REMARK    6  A    between atoms: O_14  and  C_15
REMARK                            x       y       z     vdW  Elec       q    Type
REMARK                         _______ _______ _______ _____ _____    ______ ____
ROOT
ATOM      1  N   UNL     1       3.041   5.745  20.175  0.00  0.00    +0.000 N 
ATOM      2  C   UNL     1       2.436   6.469  19.157  0.00  0.00    +0.000 C 
ATOM      3  O   UNL     1       2.269   6.087  18.002  0.00  0.00    +0.000 OA
ATOM      4  H   UNL     1       3.487   6.340  20.874  0.00  0.00    +0.000 HD
ENDROOT
BRANCH   1  10
ATOM      5  C   UNL     1       5.859   5.051  18.727  0.00  0.00    +0.000 C 
ATOM      6  C   UNL     1       4.827   4.215  19.381  0.00  0.00    +0.000 A 
ATOM      7  N   UNL     1       4.921   2.850  19.394  0.00  0.00    +0.000 N 
ATOM      8  N   UNL     1       3.860   2.227  19.927  0.00  0.00    +0.000 NA
ATOM      9  C   UNL     1       3.040   3.240  20.286  0.00  0.00    +0.000 A 
ATOM     10  C   UNL     1       3.621   4.504  19.981  0.00  0.00    +0.000 A 
ATOM     11  H   UNL     1       5.670   2.278  19.021  0.00  0.00    +0.000 HD
BRANCH   9  12
ATOM     12  C   UNL     1       1.759   2.987  20.955  0.00  0.00    +0.000 C 
ATOM     13  N   UNL     1       0.661   3.240  20.175  0.00  0.00    +0.000 N 
ATOM     14  O   UNL     1       1.665   2.571  22.105  0.00  0.00    +0.000 OA
ATOM     15  H   UNL     1       0.812   3.522  19.217  0.00  0.00    +0.000 HD
ATOM     16  H   UNL     1      -0.257   3.015  20.517  0.00  0.00    +0.000 HD
ENDBRANCH   9  12
ENDBRANCH   1  10
BRANCH   2  17
ATOM     17  C   UNL     1       2.024   7.881  19.601  0.00  0.00    +0.000 C 
BRANCH  17  18
ATOM     18  O   UNL     1       1.424   7.790  20.888  0.00  0.00    +0.000 OA
BRANCH  18  19
ATOM     19  C   UNL     1       0.757   8.866  21.390  0.00  0.00    +0.000 A 
ATOM     20  C   UNL     1       0.051   8.923  22.594  0.00  0.00    +0.000 A 
ATOM     21  C   UNL     1      -0.607  10.101  22.989  0.00  0.00    +0.000 A 
ATOM     22  C   UNL     1      -0.517  11.195  22.128  0.00  0.00    +0.000 A 
ATOM     23  O   UNL     1      -1.075  12.429  22.328  0.00  0.00    +0.000 OA
ATOM     24  C   UNL     1      -0.732  13.172  21.249  0.00  0.00    +0.000 A 
ATOM     25  C   UNL     1       0.021  12.450  20.351  0.00  0.00    +0.000 A 
ATOM     26  C   UNL     1       0.173  11.166  20.919  0.00  0.00    +0.000 A 
ATOM     27  C   UNL     1       0.819   9.982  20.544  0.00  0.00    +0.000 A 
ATOM     28  C   UNL     1       0.529  13.033  19.082  0.00  0.00    +0.000 C 
ATOM     29  C   UNL     1      -0.223  14.338  18.746  0.00  0.00    +0.000 C 
ATOM     30  C   UNL     1      -0.383  15.251  19.981  0.00  0.00    +0.000 C 
ATOM     31  C   UNL     1      -1.186  14.575  21.115  0.00  0.00    +0.000 C 
ENDBRANCH  18  19
ENDBRANCH  17  18
ENDBRANCH   2  17
TORSDOF 5
ENDMDL
MODEL 6
REMARK VINA RESULT:      -8.1      2.575      3.925
REMARK  Name = 
REMARK  6 active torsions:
REMARK  status: ('A' for Active; 'I' for Inactive)
REMARK    1  A    between atoms: C_1  and  C_2
REMARK    2  A    between atoms: C_5  and  C_6
REMARK    3  A    between atoms: C_9  and  N_10
REMARK    4  A    between atoms: C_11  and  C_13
REMARK    5  A    between atoms: C_13  and  O_14
REMARK    6  A    between atoms: O_14  and  C_15
REMARK                            x       y       z     vdW  Elec       q    Type
REMARK                         _______ _______ _______ _____ _____    ______ ____
ROOT
ATOM      1  N   UNL     1       2.935   5.747  20.391  0.00  0.00    +0.000 N 
ATOM      2  C   UNL     1       2.359   6.588  19.449  0.00  0.00    +0.000 C 
ATOM      3  O   UNL     1       2.241   6.351  18.249  0.00  0.00    +0.000 OA
ATOM      4  H   UNL     1       3.347   6.254  21.175  0.00  0.00    +0.000 HD
ENDROOT
BRANCH   1  10
ATOM      5  C   UNL     1       5.723   5.261  18.807  0.00  0.00    +0.000 C 
ATOM      6  C   UNL     1       4.730   4.342  19.410  0.00  0.00    +0.000 A 
ATOM      7  N   UNL     1       4.855   2.985  19.293  0.00  0.00    +0.000 N 
ATOM      8  N   UNL     1       3.826   2.288  19.796  0.00  0.00    +0.000 NA
ATOM      9  C   UNL     1       2.994   3.243  20.270  0.00  0.00    +0.000 A 
ATOM     10  C   UNL     1       3.537   4.544  20.067  0.00  0.00    +0.000 A 
ATOM     11  H   UNL     1       5.606   2.469  18.849  0.00  0.00    +0.000 HD
BRANCH   9  12
ATOM     12  C   UNL     1       1.740   2.897  20.948  0.00  0.00    +0.000 C 
ATOM     13  N   UNL     1       0.621   3.065  20.175  0.00  0.00    +0.000 N 
ATOM     14  O   UNL     1       1.684   2.479  22.100  0.00  0.00    +0.000 OA
ATOM     15  H   UNL     1       0.745   3.355  19.216  0.00  0.00    +0.000 HD
ATOM     16  H   UNL     1      -0.276   2.774  20.524  0.00  0.00    +0.000 HD
ENDBRANCH   9  12
ENDBRANCH   1  10
BRANCH   2  17
ATOM     17  C   UNL     1       1.914   7.931  20.049  0.00  0.00    +0.000 C 
BRANCH  17  18
ATOM     18  O   UNL     1       1.744   8.862  18.986  0.00  0.00    +0.000 OA
BRANCH  18  19
ATOM     19  C   UNL     1       0.618   9.626  18.945  0.00  0.00    +0.000 A 
ATOM     20  C   UNL     1      -0.222   9.817  17.845  0.00  0.00    +0.000 A 
ATOM     21  C   UNL     1      -1.353  10.649  17.936  0.00  0.00    +0.000 A 
ATOM     22  C   UNL     1      -1.589  11.263  19.166  0.00  0.00    +0.000 A 
ATOM     23  O   UNL     1      -2.630  12.099  19.465  0.00  0.00    +0.000 OA
ATOM     24  C   UNL     1      -2.464  12.452  20.762  0.00  0.00    +0.000 A 
ATOM     25  C   UNL     1      -1.336  11.880  21.306  0.00  0.00    +0.000 A 
ATOM     26  C   UNL     1      -0.766  11.097  20.277  0.00  0.00    +0.000 A 
ATOM     27  C   UNL     1       0.355  10.267  20.164  0.00  0.00    +0.000 A 
ATOM     28  C   UNL     1      -0.926  12.105  22.716  0.00  0.00    +0.000 C 
ATOM     29  C   UNL     1      -1.659  13.329  23.304  0.00  0.00    +0.000 C 
ATOM     30  C   UNL     1      -3.163  13.330  22.951  0.00  0.00    +0.000 C 
ATOM     31  C   UNL     1      -3.410  13.378  21.426  0.00  0.00    +0.000 C 
ENDBRANCH  18  19
ENDBRANCH  17  18
ENDBRANCH   2  17
TORSDOF 5
ENDMDL
MODEL 7
REMARK VINA RESULT:      -8.0      5.960      7.466
REMARK  Name = 
REMARK  6 active torsions:
REMARK  status: ('A' for Active; 'I' for Inactive)
REMARK    1  A    between atoms: C_1  and  C_2
REMARK    2  A    between atoms: C_5  and  C_6
REMARK    3  A    between atoms: C_9  and  N_10
REMARK    4  A    between atoms: C_11  and  C_13
REMARK    5  A    between atoms: C_13  and  O_14
REMARK    6  A    between atoms: O_14  and  C_15
REMARK                            x       y       z     vdW  Elec       q    Type
REMARK                         _______ _______ _______ _____ _____    ______ ____
ROOT
ATOM      1  N   UNL     1       6.495   6.976  16.912  0.00  0.00    +0.000 N 
ATOM      2  C   UNL     1       7.528   7.261  17.794  0.00  0.00    +0.000 C 
ATOM      3  O   UNL     1       8.022   6.479  18.602  0.00  0.00    +0.000 OA
ATOM      4  H   UNL     1       5.937   7.797  16.675  0.00  0.00    +0.000 HD
ENDROOT
BRANCH   1  10
ATOM      5  C   UNL     1       4.384   5.822  19.087  0.00  0.00    +0.000 C 
ATOM      6  C   UNL     1       4.914   5.287  17.812  0.00  0.00    +0.000 A 
ATOM      7  N   UNL     1       4.581   4.035  17.373  0.00  0.00    +0.000 N 
ATOM      8  N   UNL     1       5.223   3.649  16.261  0.00  0.00    +0.000 NA
ATOM      9  C   UNL     1       6.006   4.709  15.958  0.00  0.00    +0.000 A 
ATOM     10  C   UNL     1       5.824   5.766  16.895  0.00  0.00    +0.000 A 
ATOM     11  H   UNL     1       3.945   3.376  17.808  0.00  0.00    +0.000 HD
BRANCH   9  12
ATOM     12  C   UNL     1       6.860   4.713  14.766  0.00  0.00    +0.000 C 
ATOM     13  N   UNL     1       6.516   3.775  13.829  0.00  0.00    +0.000 N 
ATOM     14  O   UNL     1       7.794   5.491  14.602  0.00  0.00    +0.000 OA
ATOM     15  H   UNL     1       5.699   3.207  14.001  0.00  0.00    +0.000 HD
ATOM     16  H   UNL     1       6.990   3.757  12.942  0.00  0.00    +0.000 HD
ENDBRANCH   9  12
ENDBRANCH   1  10
BRANCH   2  17
ATOM     17  C   UNL     1       7.983   8.726  17.716  0.00  0.00    +0.000 C 
BRANCH  17  18
ATOM     18  O   UNL     1       8.880   8.976  18.793  0.00  0.00    +0.000 OA
BRANCH  18  19
ATOM     19  C   UNL     1       9.328  10.243  19.006  0.00  0.00    +0.000 A 
ATOM     20  C   UNL     1      10.101  11.013  18.134  0.00  0.00    +0.000 A 
ATOM     21  C   UNL     1      10.510  12.312  18.486  0.00  0.00    +0.000 A 
ATOM     22  C   UNL     1      10.107  12.785  19.736  0.00  0.00    +0.000 A 
ATOM     23  O   UNL     1      10.390  14.015  20.263  0.00  0.00    +0.000 OA
ATOM     24  C   UNL     1       9.801  14.042  21.483  0.00  0.00    +0.000 A 
ATOM     25  C   UNL     1       9.157  12.858  21.764  0.00  0.00    +0.000 A 
ATOM     26  C   UNL     1       9.343  12.038  20.629  0.00  0.00    +0.000 A 
ATOM     27  C   UNL     1       8.949  10.747  20.259  0.00  0.00    +0.000 A 
ATOM     28  C   UNL     1       8.429  12.627  23.038  0.00  0.00    +0.000 C 
ATOM     29  C   UNL     1       8.840  13.673  24.095  0.00  0.00    +0.000 C 
ATOM     30  C   UNL     1       8.893  15.101  23.508  0.00  0.00    +0.000 C 
ATOM     31  C   UNL     1       9.918  15.229  22.359  0.00  0.00    +0.000 C 
ENDBRANCH  18  19
ENDBRANCH  17  18
ENDBRANCH   2  17
TORSDOF 5
ENDMDL
MODEL 8
REMARK VINA RESULT:      -8.0      2.832      4.446
REMARK  Name = 
REMARK  6 active torsions:
REMARK  status: ('A' for Active; 'I' for Inactive)
REMARK    1  A    between atoms: C_1  and  C_2
REMARK    2  A    between atoms: C_5  and  C_6
REMARK    3  A    between atoms: C_9  and  N_10
REMARK    4  A    between atoms: C_11  and  C_13
REMARK    5  A    between atoms: C_13  and  O_14
REMARK    6  A    between atoms: O_14  and  C_15
REMARK                            x       y       z     vdW  Elec       q    Type
REMARK                         _______ _______ _______ _____ _____    ______ ____
ROOT
ATOM      1  N   UNL     1       3.230   6.159  18.689  0.00  0.00    +0.000 N 
ATOM      2  C   UNL     1       3.551   7.070  17.691  0.00  0.00    +0.000 C 
ATOM      3  O   UNL     1       4.321   6.870  16.756  0.00  0.00    +0.000 OA
ATOM      4  H   UNL     1       2.975   6.609  19.569  0.00  0.00    +0.000 HD
ENDROOT
BRANCH   1  10
ATOM      5  C   UNL     1       6.335   5.459  19.311  0.00  0.00    +0.000 C 
ATOM      6  C   UNL     1       5.137   4.620  19.080  0.00  0.00    +0.000 A 
ATOM      7  N   UNL     1       5.224   3.255  19.026  0.00  0.00    +0.000 N 
ATOM      8  N   UNL     1       4.078   2.639  18.703  0.00  0.00    +0.000 NA
ATOM      9  C   UNL     1       3.200   3.656  18.548  0.00  0.00    +0.000 A 
ATOM     10  C   UNL     1       3.821   4.913  18.798  0.00  0.00    +0.000 A 
ATOM     11  H   UNL     1       6.049   2.683  19.167  0.00  0.00    +0.000 HD
BRANCH   9  12
ATOM     12  C   UNL     1       1.792   3.407  18.222  0.00  0.00    +0.000 C 
ATOM     13  N   UNL     1       1.223   2.389  18.939  0.00  0.00    +0.000 N 
ATOM     14  O   UNL     1       1.162   4.056  17.392  0.00  0.00    +0.000 OA
ATOM     15  H   UNL     1       1.782   1.937  19.649  0.00  0.00    +0.000 HD
ATOM     16  H   UNL     1       0.240   2.200  18.847  0.00  0.00    +0.000 HD
ENDBRANCH   9  12
ENDBRANCH   1  10
BRANCH   2  17
ATOM     17  C   UNL     1       2.877   8.434  17.898  0.00  0.00    +0.000 C 
BRANCH  17  18
ATOM     18  O   UNL     1       2.198   8.415  19.149  0.00  0.00    +0.000 OA
BRANCH  18  19
ATOM     19  C   UNL     1       1.142   9.251  19.346  0.00  0.00    +0.000 A 
ATOM     20  C   UNL     1       0.897  10.035  20.476  0.00  0.00    +0.000 A 
ATOM     21  C   UNL     1      -0.247  10.848  20.556  0.00  0.00    +0.000 A 
ATOM     22  C   UNL     1      -1.112  10.832  19.461  0.00  0.00    +0.000 A 
ATOM     23  O   UNL     1      -2.270  11.552  19.336  0.00  0.00    +0.000 OA
ATOM     24  C   UNL     1      -2.778  11.231  18.122  0.00  0.00    +0.000 A 
ATOM     25  C   UNL     1      -1.989  10.314  17.465  0.00  0.00    +0.000 A 
ATOM     26  C   UNL     1      -0.899  10.056  18.325  0.00  0.00    +0.000 A 
ATOM     27  C   UNL     1       0.245   9.252  18.268  0.00  0.00    +0.000 A 
ATOM     28  C   UNL     1      -2.322   9.797  16.113  0.00  0.00    +0.000 C 
ATOM     29  C   UNL     1      -3.796  10.091  15.767  0.00  0.00    +0.000 C 
ATOM     30  C   UNL     1      -4.203  11.534  16.140  0.00  0.00    +0.000 C 
ATOM     31  C   UNL     1      -4.054  11.816  17.652  0.00  0.00    +0.000 C 
ENDBRANCH  18  19
ENDBRANCH  17  18
ENDBRANCH   2  17
TORSDOF 5
ENDMDL
MODEL 9
REMARK VINA RESULT:      -8.0      2.620      3.795
REMARK  Name = 
REMARK  6 active torsions:
REMARK  status: ('A' for Active; 'I' for Inactive)
REMARK    1  A    between atoms: C_1  and  C_2
REMARK    2  A    between atoms: C_5  and  C_6
REMARK    3  A    between atoms: C_9  and  N_10
REMARK    4  A    between atoms: C_11  and  C_13
REMARK    5  A    between atoms: C_13  and  O_14
REMARK    6  A    between atoms: O_14  and  C_15
REMARK                            x       y       z     vdW  Elec       q    Type
REMARK                         _______ _______ _______ _____ _____    ______ ____
ROOT
ATOM      1  N   UNL     1       3.634   6.166  17.790  0.00  0.00    +0.000 N 
ATOM      2  C   UNL     1       2.809   6.989  18.546  0.00  0.00    +0.000 C 
ATOM      3  O   UNL     1       2.471   6.796  19.710  0.00  0.00    +0.000 OA
ATOM      4  H   UNL     1       3.438   6.220  16.790  0.00  0.00    +0.000 HD
ENDROOT
BRANCH   1  10
ATOM      5  C   UNL     1       2.012   3.387  18.197  0.00  0.00    +0.000 C 
ATOM      6  C   UNL     1       3.428   3.769  18.400  0.00  0.00    +0.000 A 
ATOM      7  N   UNL     1       4.334   2.888  18.923  0.00  0.00    +0.000 N 
ATOM      8  N   UNL     1       5.548   3.410  19.148  0.00  0.00    +0.000 NA
ATOM      9  C   UNL     1       5.425   4.694  18.743  0.00  0.00    +0.000 A 
ATOM     10  C   UNL     1       4.116   4.952  18.246  0.00  0.00    +0.000 A 
ATOM     11  H   UNL     1       4.177   1.920  19.182  0.00  0.00    +0.000 HD
BRANCH   9  12
ATOM     12  C   UNL     1       6.561   5.621  18.786  0.00  0.00    +0.000 C 
ATOM     13  N   UNL     1       7.464   5.353  19.781  0.00  0.00    +0.000 N 
ATOM     14  O   UNL     1       6.709   6.550  17.999  0.00  0.00    +0.000 OA
ATOM     15  H   UNL     1       7.312   4.537  20.355  0.00  0.00    +0.000 HD
ATOM     16  H   UNL     1       8.318   5.882  19.836  0.00  0.00    +0.000 HD
ENDBRANCH   9  12
ENDBRANCH   1  10
BRANCH   2  17
ATOM     17  C   UNL     1       2.282   8.191  17.746  0.00  0.00    +0.000 C 
BRANCH  17  18
ATOM     18  O   UNL     1       2.342   9.344  18.578  0.00  0.00    +0.000 OA
BRANCH  18  19
ATOM     19  C   UNL     1       1.184   9.942  18.973  0.00  0.00    +0.000 A 
ATOM     20  C   UNL     1       0.910  10.480  20.232  0.00  0.00    +0.000 A 
ATOM     21  C   UNL     1      -0.341  11.059  20.513  0.00  0.00    +0.000 A 
ATOM     22  C   UNL     1      -1.279  11.069  19.480  0.00  0.00    +0.000 A 
ATOM     23  O   UNL     1      -2.544  11.588  19.543  0.00  0.00    +0.000 OA
ATOM     24  C   UNL     1      -3.092  11.383  18.320  0.00  0.00    +0.000 A 
ATOM     25  C   UNL     1      -2.221  10.734  17.474  0.00  0.00    +0.000 A 
ATOM     26  C   UNL     1      -1.037  10.535  18.217  0.00  0.00    +0.000 A 
ATOM     27  C   UNL     1       0.214   9.960  17.961  0.00  0.00    +0.000 A 
ATOM     28  C   UNL     1      -2.576  10.391  16.073  0.00  0.00    +0.000 C 
ATOM     29  C   UNL     1      -4.102  10.477  15.864  0.00  0.00    +0.000 C 
ATOM     30  C   UNL     1      -4.705  11.748  16.501  0.00  0.00    +0.000 C 
ATOM     31  C   UNL     1      -4.480  11.806  18.028  0.00  0.00    +0.000 C 
ENDBRANCH  18  19
ENDBRANCH  17  18
ENDBRANCH   2  17
TORSDOF 5
ENDMDL
