MODEL 1
REMARK VINA RESULT:      -9.0      0.000      0.000
REMARK  Name = 
REMARK  2 active torsions:
REMARK  status: ('A' for Active; 'I' for Inactive)
REMARK    1  A    between atoms: C_2  and  C_3
REMARK    2  A    between atoms: C_7  and  N_8
REMARK                            x       y       z     vdW  Elec       q    Type
REMARK                         _______ _______ _______ _____ _____    ______ ____
ROOT
ATOM      1  O   UNL     1      -6.803  10.455  18.338  0.00  0.00    +0.000 OA
ATOM      2  C   UNL     1      -6.120  11.471  18.284  0.00  0.00    +0.000 C 
ATOM      3  N   UNL     1      -6.560  12.747  18.672  0.00  0.00    +0.000 N 
ATOM      4  C   UNL     1      -7.917  12.951  19.202  0.00  0.00    +0.000 C 
ATOM      5  C   UNL     1      -7.750  14.000  20.347  0.00  0.00    +0.000 C 
ATOM      6  C   UNL     1      -6.312  13.742  20.788  0.00  0.00    +0.000 C 
ATOM      7  C   UNL     1      -5.653  13.615  19.402  0.00  0.00    +0.000 C 
ATOM      8  C   UNL     1      -6.213  12.358  21.483  0.00  0.00    +0.000 C 
ATOM      9  O   UNL     1      -7.033  11.457  21.524  0.00  0.00    +0.000 OA
ATOM     10  N   UNL     1      -4.971  12.332  22.074  0.00  0.00    +0.000 N 
ATOM     11  C   UNL     1      -4.561  13.621  22.347  0.00  0.00    +0.000 A 
ATOM     12  C   UNL     1      -3.509  13.960  23.163  0.00  0.00    +0.000 A 
ATOM     13  C   UNL     1      -3.230  15.313  23.296  0.00  0.00    +0.000 A 
ATOM     14  C   UNL     1      -3.985  16.264  22.580  0.00  0.00    +0.000 A 
ATOM     15  C   UNL     1      -5.062  15.889  21.749  0.00  0.00    +0.000 A 
ATOM     16  C   UNL     1      -5.375  14.546  21.660  0.00  0.00    +0.000 A 
ATOM     17  H   UNL     1      -4.473  11.476  22.264  0.00  0.00    +0.000 HD
ENDROOT
BRANCH   2  18
ATOM     18  C   UNL     1      -4.721  11.370  17.755  0.00  0.00    +0.000 A 
ATOM     19  C   UNL     1      -4.509  11.197  16.385  0.00  0.00    +0.000 A 
ATOM     20  C   UNL     1      -3.219  10.985  15.904  0.00  0.00    +0.000 A 
ATOM     21  C   UNL     1      -2.137  11.016  16.779  0.00  0.00    +0.000 A 
ATOM     22  C   UNL     1      -2.307  11.318  18.119  0.00  0.00    +0.000 A 
ATOM     23  C   UNL     1      -3.620  11.416  18.626  0.00  0.00    +0.000 A 
BRANCH  22  24
ATOM     24  N   UNL     1      -1.173  11.407  19.004  0.00  0.00    +0.000 N 
ATOM     25  C   UNL     1      -0.245  10.428  19.135  0.00  0.00    +0.000 C 
ATOM     26  O   UNL     1       0.249   9.666  18.331  0.00  0.00    +0.000 OA
ATOM     27  C   UNL     1      -0.036  10.343  20.570  0.00  0.00    +0.000 A 
ATOM     28  C   UNL     1       0.115   9.168  21.275  0.00  0.00    +0.000 A 
ATOM     29  C   UNL     1      -0.367   9.165  22.585  0.00  0.00    +0.000 A 
ATOM     30  C   UNL     1      -0.882  10.340  23.180  0.00  0.00    +0.000 A 
ATOM     31  C   UNL     1      -0.954  11.537  22.464  0.00  0.00    +0.000 A 
ATOM     32  C   UNL     1      -0.565  11.484  21.144  0.00  0.00    +0.000 A 
ATOM     33  C   UNL     1      -1.172  12.258  20.074  0.00  0.00    +0.000 C 
ATOM     34  O   UNL     1      -1.634  13.390  20.218  0.00  0.00    +0.000 OA
ENDBRANCH  22  24
ENDBRANCH   2  18
TORSDOF 2
ENDMDL
MODEL 2
REMARK VINA RESULT:      -8.8      3.892      6.291
REMARK  Name = 
REMARK  2 active torsions:
REMARK  status: ('A' for Active; 'I' for Inactive)
REMARK    1  A    between atoms: C_2  and  C_3
REMARK    2  A    between atoms: C_7  and  N_8
REMARK                            x       y       z     vdW  Elec       q    Type
REMARK                         _______ _______ _______ _____ _____    ______ ____
ROOT
ATOM      1  O   UNL     1      -1.682  12.512  21.788  0.00  0.00    +0.000 OA
ATOM      2  C   UNL     1      -1.335  12.778  20.644  0.00  0.00    +0.000 C 
ATOM      3  N   UNL     1      -1.225  14.079  20.127  0.00  0.00    +0.000 N 
ATOM      4  C   UNL     1      -1.518  15.253  20.964  0.00  0.00    +0.000 C 
ATOM      5  C   UNL     1      -0.449  16.316  20.559  0.00  0.00    +0.000 C 
ATOM      6  C   UNL     1       0.702  15.427  20.094  0.00  0.00    +0.000 C 
ATOM      7  C   UNL     1      -0.102  14.406  19.267  0.00  0.00    +0.000 C 
ATOM      8  C   UNL     1       1.311  14.673  21.306  0.00  0.00    +0.000 C 
ATOM      9  O   UNL     1       0.880  14.567  22.441  0.00  0.00    +0.000 OA
ATOM     10  N   UNL     1       2.483  14.122  20.844  0.00  0.00    +0.000 N 
ATOM     11  C   UNL     1       2.961  14.869  19.786  0.00  0.00    +0.000 A 
ATOM     12  C   UNL     1       4.225  14.773  19.258  0.00  0.00    +0.000 A 
ATOM     13  C   UNL     1       4.515  15.591  18.174  0.00  0.00    +0.000 A 
ATOM     14  C   UNL     1       3.522  16.437  17.642  0.00  0.00    +0.000 A 
ATOM     15  C   UNL     1       2.230  16.518  18.205  0.00  0.00    +0.000 A 
ATOM     16  C   UNL     1       1.959  15.745  19.317  0.00  0.00    +0.000 A 
ATOM     17  H   UNL     1       2.899  13.298  21.249  0.00  0.00    +0.000 HD
ENDROOT
BRANCH   2  18
ATOM     18  C   UNL     1      -1.016  11.650  19.708  0.00  0.00    +0.000 A 
ATOM     19  C   UNL     1      -1.825  11.426  18.592  0.00  0.00    +0.000 A 
ATOM     20  C   UNL     1      -1.604  10.311  17.788  0.00  0.00    +0.000 A 
ATOM     21  C   UNL     1      -0.533   9.462  18.056  0.00  0.00    +0.000 A 
ATOM     22  C   UNL     1       0.361   9.737  19.075  0.00  0.00    +0.000 A 
ATOM     23  C   UNL     1       0.071  10.796  19.960  0.00  0.00    +0.000 A 
BRANCH  22  24
ATOM     24  N   UNL     1       1.500   8.883  19.306  0.00  0.00    +0.000 N 
ATOM     25  C   UNL     1       2.271   8.376  18.313  0.00  0.00    +0.000 C 
ATOM     26  O   UNL     1       2.641   8.840  17.256  0.00  0.00    +0.000 OA
ATOM     27  C   UNL     1       2.471   6.992  18.708  0.00  0.00    +0.000 A 
ATOM     28  C   UNL     1       2.447   5.917  17.846  0.00  0.00    +0.000 A 
ATOM     29  C   UNL     1       1.976   4.713  18.371  0.00  0.00    +0.000 A 
ATOM     30  C   UNL     1       1.646   4.588  19.741  0.00  0.00    +0.000 A 
ATOM     31  C   UNL     1       1.752   5.678  20.608  0.00  0.00    +0.000 A 
ATOM     32  C   UNL     1       2.122   6.876  20.041  0.00  0.00    +0.000 A 
ATOM     33  C   UNL     1       1.634   8.177  20.468  0.00  0.00    +0.000 C 
ATOM     34  O   UNL     1       1.348   8.458  21.632  0.00  0.00    +0.000 OA
ENDBRANCH  22  24
ENDBRANCH   2  18
TORSDOF 2
ENDMDL
MODEL 3
REMARK VINA RESULT:      -8.6      0.863      1.012
REMARK  Name = 
REMARK  2 active torsions:
REMARK  status: ('A' for Active; 'I' for Inactive)
REMARK    1  A    between atoms: C_2  and  C_3
REMARK    2  A    between atoms: C_7  and  N_8
REMARK                            x       y       z     vdW  Elec       q    Type
REMARK                         _______ _______ _______ _____ _____    ______ ____
ROOT
ATOM      1  O   UNL     1      -7.343  11.324  19.368  0.00  0.00    +0.000 OA
ATOM      2  C   UNL     1      -6.525  12.231  19.278  0.00  0.00    +0.000 C 
ATOM      3  N   UNL     1      -6.699  13.516  19.817  0.00  0.00    +0.000 N 
ATOM      4  C   UNL     1      -7.917  13.865  20.564  0.00  0.00    +0.000 C 
ATOM      5  C   UNL     1      -7.425  14.770  21.739  0.00  0.00    +0.000 C 
ATOM      6  C   UNL     1      -5.997  14.267  21.932  0.00  0.00    +0.000 C 
ATOM      7  C   UNL     1      -5.572  14.174  20.455  0.00  0.00    +0.000 C 
ATOM      8  C   UNL     1      -6.017  12.825  22.506  0.00  0.00    +0.000 C 
ATOM      9  O   UNL     1      -6.954  12.053  22.612  0.00  0.00    +0.000 OA
ATOM     10  N   UNL     1      -4.723  12.567  22.893  0.00  0.00    +0.000 N 
ATOM     11  C   UNL     1      -4.081  13.752  23.186  0.00  0.00    +0.000 A 
ATOM     12  C   UNL     1      -2.884  13.859  23.851  0.00  0.00    +0.000 A 
ATOM     13  C   UNL     1      -2.379  15.140  24.031  0.00  0.00    +0.000 A 
ATOM     14  C   UNL     1      -3.071  16.251  23.508  0.00  0.00    +0.000 A 
ATOM     15  C   UNL     1      -4.301  16.114  22.832  0.00  0.00    +0.000 A 
ATOM     16  C   UNL     1      -4.830  14.844  22.700  0.00  0.00    +0.000 A 
ATOM     17  H   UNL     1      -4.343  11.634  22.945  0.00  0.00    +0.000 HD
ENDROOT
BRANCH   2  18
ATOM     18  C   UNL     1      -5.249  11.978  18.532  0.00  0.00    +0.000 A 
ATOM     19  C   UNL     1      -5.281  11.796  17.147  0.00  0.00    +0.000 A 
ATOM     20  C   UNL     1      -4.118  11.444  16.468  0.00  0.00    +0.000 A 
ATOM     21  C   UNL     1      -2.912  11.343  17.157  0.00  0.00    +0.000 A 
ATOM     22  C   UNL     1      -2.830  11.649  18.504  0.00  0.00    +0.000 A 
ATOM     23  C   UNL     1      -4.024  11.890  19.215  0.00  0.00    +0.000 A 
BRANCH  22  24
ATOM     24  N   UNL     1      -1.566  11.599  19.195  0.00  0.00    +0.000 N 
ATOM     25  C   UNL     1      -0.689  10.572  19.082  0.00  0.00    +0.000 C 
ATOM     26  O   UNL     1      -0.376   9.873  18.143  0.00  0.00    +0.000 OA
ATOM     27  C   UNL     1      -0.259  10.336  20.450  0.00  0.00    +0.000 A 
ATOM     28  C   UNL     1      -0.068   9.092  21.011  0.00  0.00    +0.000 A 
ATOM     29  C   UNL     1      -0.334   8.981  22.377  0.00  0.00    +0.000 A 
ATOM     30  C   UNL     1      -0.677  10.113  23.152  0.00  0.00    +0.000 A 
ATOM     31  C   UNL     1      -0.790  11.377  22.569  0.00  0.00    +0.000 A 
ATOM     32  C   UNL     1      -0.621  11.438  21.204  0.00  0.00    +0.000 A 
ATOM     33  C   UNL     1      -1.343  12.339  20.323  0.00  0.00    +0.000 C 
ATOM     34  O   UNL     1      -1.709  13.471  20.642  0.00  0.00    +0.000 OA
ENDBRANCH  22  24
ENDBRANCH   2  18
TORSDOF 2
ENDMDL
MODEL 4
REMARK VINA RESULT:      -8.6      1.984      5.598
REMARK  Name = 
REMARK  2 active torsions:
REMARK  status: ('A' for Active; 'I' for Inactive)
REMARK    1  A    between atoms: C_2  and  C_3
REMARK    2  A    between atoms: C_7  and  N_8
REMARK                            x       y       z     vdW  Elec       q    Type
REMARK                         _______ _______ _______ _____ _____    ______ ____
ROOT
ATOM      1  O   UNL     1      -0.571  13.362  17.938  0.00  0.00    +0.000 OA
ATOM      2  C   UNL     1      -1.040  12.517  18.691  0.00  0.00    +0.000 C 
ATOM      3  N   UNL     1      -0.675  12.360  20.038  0.00  0.00    +0.000 N 
ATOM      4  C   UNL     1       0.323  13.244  20.660  0.00  0.00    +0.000 C 
ATOM      5  C   UNL     1      -0.211  13.504  22.105  0.00  0.00    +0.000 C 
ATOM      6  C   UNL     1      -1.716  13.340  21.906  0.00  0.00    +0.000 C 
ATOM      7  C   UNL     1      -1.706  12.079  21.022  0.00  0.00    +0.000 C 
ATOM      8  C   UNL     1      -2.267  14.510  21.048  0.00  0.00    +0.000 C 
ATOM      9  O   UNL     1      -1.656  15.347  20.407  0.00  0.00    +0.000 OA
ATOM     10  N   UNL     1      -3.636  14.426  21.150  0.00  0.00    +0.000 N 
ATOM     11  C   UNL     1      -3.976  13.807  22.335  0.00  0.00    +0.000 A 
ATOM     12  C   UNL     1      -5.233  13.792  22.887  0.00  0.00    +0.000 A 
ATOM     13  C   UNL     1      -5.388  13.093  24.076  0.00  0.00    +0.000 A 
ATOM     14  C   UNL     1      -4.292  12.409  24.641  0.00  0.00    +0.000 A 
ATOM     15  C   UNL     1      -3.010  12.442  24.054  0.00  0.00    +0.000 A 
ATOM     16  C   UNL     1      -2.844  13.183  22.900  0.00  0.00    +0.000 A 
ATOM     17  H   UNL     1      -4.261  14.780  20.442  0.00  0.00    +0.000 HD
ENDROOT
BRANCH   2  18
ATOM     18  C   UNL     1      -2.064  11.563  18.153  0.00  0.00    +0.000 A 
ATOM     19  C   UNL     1      -1.651  10.403  17.494  0.00  0.00    +0.000 A 
ATOM     20  C   UNL     1      -2.595   9.576  16.890  0.00  0.00    +0.000 A 
ATOM     21  C   UNL     1      -3.951   9.869  17.005  0.00  0.00    +0.000 A 
ATOM     22  C   UNL     1      -4.391  10.938  17.765  0.00  0.00    +0.000 A 
ATOM     23  C   UNL     1      -3.436  11.840  18.277  0.00  0.00    +0.000 A 
BRANCH  22  24
ATOM     24  N   UNL     1      -5.801  11.196  17.926  0.00  0.00    +0.000 N 
ATOM     25  C   UNL     1      -6.394  12.365  17.580  0.00  0.00    +0.000 C 
ATOM     26  O   UNL     1      -6.204  13.128  16.658  0.00  0.00    +0.000 OA
ATOM     27  C   UNL     1      -7.279  12.644  18.697  0.00  0.00    +0.000 A 
ATOM     28  C   UNL     1      -7.478  13.890  19.251  0.00  0.00    +0.000 A 
ATOM     29  C   UNL     1      -7.751  13.923  20.620  0.00  0.00    +0.000 A 
ATOM     30  C   UNL     1      -7.917  12.732  21.364  0.00  0.00    +0.000 A 
ATOM     31  C   UNL     1      -7.783  11.480  20.759  0.00  0.00    +0.000 A 
ATOM     32  C   UNL     1      -7.415  11.480  19.432  0.00  0.00    +0.000 A 
ATOM     33  C   UNL     1      -6.556  10.484  18.815  0.00  0.00    +0.000 C 
ATOM     34  O   UNL     1      -6.524   9.299  19.147  0.00  0.00    +0.000 OA
ENDBRANCH  22  24
ENDBRANCH   2  18
TORSDOF 2
ENDMDL
MODEL 5
REMARK VINA RESULT:      -8.5      4.185      7.276
REMARK  Name = 
REMARK  2 active torsions:
REMARK  status: ('A' for Active; 'I' for Inactive)
REMARK    1  A    between atoms: C_2  and  C_3
REMARK    2  A    between atoms: C_7  and  N_8
REMARK                            x       y       z     vdW  Elec       q    Type
REMARK                         _______ _______ _______ _____ _____    ______ ____
ROOT
ATOM      1  O   UNL     1       1.824  11.428  20.862  0.00  0.00    +0.000 OA
ATOM      2  C   UNL     1       1.048  10.575  20.449  0.00  0.00    +0.000 C 
ATOM      3  N   UNL     1      -0.329  10.551  20.723  0.00  0.00    +0.000 N 
ATOM      4  C   UNL     1      -0.955  11.599  21.544  0.00  0.00    +0.000 C 
ATOM      5  C   UNL     1      -2.336  11.872  20.867  0.00  0.00    +0.000 C 
ATOM      6  C   UNL     1      -2.044  11.493  19.417  0.00  0.00    +0.000 C 
ATOM      7  C   UNL     1      -1.255  10.193  19.662  0.00  0.00    +0.000 C 
ATOM      8  C   UNL     1      -1.068  12.523  18.788  0.00  0.00    +0.000 C 
ATOM      9  O   UNL     1      -0.413  13.394  19.334  0.00  0.00    +0.000 OA
ATOM     10  N   UNL     1      -1.078  12.261  17.438  0.00  0.00    +0.000 N 
ATOM     11  C   UNL     1      -2.277  11.675  17.089  0.00  0.00    +0.000 A 
ATOM     12  C   UNL     1      -2.739  11.524  15.804  0.00  0.00    +0.000 A 
ATOM     13  C   UNL     1      -3.960  10.885  15.648  0.00  0.00    +0.000 A 
ATOM     14  C   UNL     1      -4.649  10.391  16.775  0.00  0.00    +0.000 A 
ATOM     15  C   UNL     1      -4.153  10.562  18.085  0.00  0.00    +0.000 A 
ATOM     16  C   UNL     1      -2.964  11.247  18.244  0.00  0.00    +0.000 A 
ATOM     17  H   UNL     1      -0.304  12.483  16.831  0.00  0.00    +0.000 HD
ENDROOT
BRANCH   2  18
ATOM     18  C   UNL     1       1.588   9.459  19.604  0.00  0.00    +0.000 A 
ATOM     19  C   UNL     1       1.808   9.668  18.241  0.00  0.00    +0.000 A 
ATOM     20  C   UNL     1       2.196   8.603  17.431  0.00  0.00    +0.000 A 
ATOM     21  C   UNL     1       2.432   7.351  17.993  0.00  0.00    +0.000 A 
ATOM     22  C   UNL     1       2.350   7.153  19.360  0.00  0.00    +0.000 A 
ATOM     23  C   UNL     1       1.845   8.196  20.164  0.00  0.00    +0.000 A 
BRANCH  22  24
ATOM     24  N   UNL     1       2.654   5.867  19.937  0.00  0.00    +0.000 N 
ATOM     25  C   UNL     1       3.839   5.231  19.770  0.00  0.00    +0.000 C 
ATOM     26  O   UNL     1       4.978   5.642  19.705  0.00  0.00    +0.000 OA
ATOM     27  C   UNL     1       3.455   3.855  19.507  0.00  0.00    +0.000 A 
ATOM     28  C   UNL     1       4.050   3.038  18.570  0.00  0.00    +0.000 A 
ATOM     29  C   UNL     1       3.225   2.091  17.960  0.00  0.00    +0.000 A 
ATOM     30  C   UNL     1       1.881   1.919  18.365  0.00  0.00    +0.000 A 
ATOM     31  C   UNL     1       1.326   2.713  19.371  0.00  0.00    +0.000 A 
ATOM     32  C   UNL     1       2.133   3.704  19.883  0.00  0.00    +0.000 A 
ATOM     33  C   UNL     1       1.662   5.008  20.319  0.00  0.00    +0.000 C 
ATOM     34  O   UNL     1       0.560   5.208  20.830  0.00  0.00    +0.000 OA
ENDBRANCH  22  24
ENDBRANCH   2  18
TORSDOF 2
ENDMDL
MODEL 6
REMARK VINA RESULT:      -8.3      5.873     10.723
REMARK  Name = 
REMARK  2 active torsions:
REMARK  status: ('A' for Active; 'I' for Inactive)
REMARK    1  A    between atoms: C_2  and  C_3
REMARK    2  A    between atoms: C_7  and  N_8
REMARK                            x       y       z     vdW  Elec       q    Type
REMARK                         _______ _______ _______ _____ _____    ______ ____
ROOT
ATOM      1  O   UNL     1       1.129   4.876  20.114  0.00  0.00    +0.000 OA
ATOM      2  C   UNL     1       2.130   5.522  19.826  0.00  0.00    +0.000 C 
ATOM      3  N   UNL     1       3.447   5.066  19.994  0.00  0.00    +0.000 N 
ATOM      4  C   UNL     1       3.721   3.725  20.534  0.00  0.00    +0.000 C 
ATOM      5  C   UNL     1       4.942   3.200  19.714  0.00  0.00    +0.000 C 
ATOM      6  C   UNL     1       4.771   3.956  18.398  0.00  0.00    +0.000 C 
ATOM      7  C   UNL     1       4.430   5.347  18.962  0.00  0.00    +0.000 C 
ATOM      8  C   UNL     1       3.517   3.433  17.648  0.00  0.00    +0.000 C 
ATOM      9  O   UNL     1       2.627   2.705  18.052  0.00  0.00    +0.000 OA
ATOM     10  N   UNL     1       3.598   3.967  16.383  0.00  0.00    +0.000 N 
ATOM     11  C   UNL     1       4.917   4.222  16.071  0.00  0.00    +0.000 A 
ATOM     12  C   UNL     1       5.392   4.502  14.813  0.00  0.00    +0.000 A 
ATOM     13  C   UNL     1       6.752   4.758  14.699  0.00  0.00    +0.000 A 
ATOM     14  C   UNL     1       7.568   4.762  15.848  0.00  0.00    +0.000 A 
ATOM     15  C   UNL     1       7.055   4.469  17.129  0.00  0.00    +0.000 A 
ATOM     16  C   UNL     1       5.713   4.160  17.234  0.00  0.00    +0.000 A 
ATOM     17  H   UNL     1       2.788   4.128  15.803  0.00  0.00    +0.000 HD
ENDROOT
BRANCH   2  18
ATOM     18  C   UNL     1       1.958   6.904  19.270  0.00  0.00    +0.000 A 
ATOM     19  C   UNL     1       2.628   7.267  18.099  0.00  0.00    +0.000 A 
ATOM     20  C   UNL     1       2.566   8.582  17.645  0.00  0.00    +0.000 A 
ATOM     21  C   UNL     1       1.782   9.514  18.318  0.00  0.00    +0.000 A 
ATOM     22  C   UNL     1       1.004   9.147  19.402  0.00  0.00    +0.000 A 
ATOM     23  C   UNL     1       1.156   7.849  19.932  0.00  0.00    +0.000 A 
BRANCH  22  24
ATOM     24  N   UNL     1       0.149  10.107  20.055  0.00  0.00    +0.000 N 
ATOM     25  C   UNL     1      -0.898  10.715  19.446  0.00  0.00    +0.000 C 
ATOM     26  O   UNL     1      -1.707  10.318  18.636  0.00  0.00    +0.000 OA
ATOM     27  C   UNL     1      -0.778  12.102  19.862  0.00  0.00    +0.000 A 
ATOM     28  C   UNL     1      -0.990  13.190  19.043  0.00  0.00    +0.000 A 
ATOM     29  C   UNL     1      -0.225  14.326  19.312  0.00  0.00    +0.000 A 
ATOM     30  C   UNL     1       0.638  14.382  20.431  0.00  0.00    +0.000 A 
ATOM     31  C   UNL     1       0.777  13.288  21.288  0.00  0.00    +0.000 A 
ATOM     32  C   UNL     1       0.087  12.148  20.940  0.00  0.00    +0.000 A 
ATOM     33  C   UNL     1       0.568  10.795  21.160  0.00  0.00    +0.000 C 
ATOM     34  O   UNL     1       1.267  10.457  22.115  0.00  0.00    +0.000 OA
ENDBRANCH  22  24
ENDBRANCH   2  18
TORSDOF 2
ENDMDL
MODEL 7
REMARK VINA RESULT:      -8.2      2.210      6.047
REMARK  Name = 
REMARK  2 active torsions:
REMARK  status: ('A' for Active; 'I' for Inactive)
REMARK    1  A    between atoms: C_2  and  C_3
REMARK    2  A    between atoms: C_7  and  N_8
REMARK                            x       y       z     vdW  Elec       q    Type
REMARK                         _______ _______ _______ _____ _____    ______ ____
ROOT
ATOM      1  O   UNL     1      -0.330   9.989  19.288  0.00  0.00    +0.000 OA
ATOM      2  C   UNL     1      -1.237  10.808  19.378  0.00  0.00    +0.000 C 
ATOM      3  N   UNL     1      -1.398  11.703  20.448  0.00  0.00    +0.000 N 
ATOM      4  C   UNL     1      -0.444  11.726  21.566  0.00  0.00    +0.000 C 
ATOM      5  C   UNL     1      -0.277  13.236  21.926  0.00  0.00    +0.000 C 
ATOM      6  C   UNL     1      -0.575  13.902  20.585  0.00  0.00    +0.000 C 
ATOM      7  C   UNL     1      -1.803  13.071  20.170  0.00  0.00    +0.000 C 
ATOM      8  C   UNL     1       0.564  13.592  19.576  0.00  0.00    +0.000 C 
ATOM      9  O   UNL     1       1.472  12.785  19.667  0.00  0.00    +0.000 OA
ATOM     10  N   UNL     1       0.350  14.436  18.512  0.00  0.00    +0.000 N 
ATOM     11  C   UNL     1      -0.332  15.557  18.938  0.00  0.00    +0.000 A 
ATOM     12  C   UNL     1      -0.480  16.715  18.215  0.00  0.00    +0.000 A 
ATOM     13  C   UNL     1      -1.225  17.729  18.801  0.00  0.00    +0.000 A 
ATOM     14  C   UNL     1      -1.820  17.530  20.063  0.00  0.00    +0.000 A 
ATOM     15  C   UNL     1      -1.651  16.330  20.786  0.00  0.00    +0.000 A 
ATOM     16  C   UNL     1      -0.864  15.342  20.227  0.00  0.00    +0.000 A 
ATOM     17  H   UNL     1       0.665  14.228  17.576  0.00  0.00    +0.000 HD
ENDROOT
BRANCH   2  18
ATOM     18  C   UNL     1      -2.266  10.865  18.288  0.00  0.00    +0.000 A 
ATOM     19  C   UNL     1      -1.883  10.648  16.962  0.00  0.00    +0.000 A 
ATOM     20  C   UNL     1      -2.811  10.816  15.937  0.00  0.00    +0.000 A 
ATOM     21  C   UNL     1      -4.133  11.130  16.240  0.00  0.00    +0.000 A 
ATOM     22  C   UNL     1      -4.566  11.219  17.551  0.00  0.00    +0.000 A 
ATOM     23  C   UNL     1      -3.606  11.165  18.583  0.00  0.00    +0.000 A 
BRANCH  22  24
ATOM     24  N   UNL     1      -5.950  11.486  17.853  0.00  0.00    +0.000 N 
ATOM     25  C   UNL     1      -6.537  12.694  17.678  0.00  0.00    +0.000 C 
ATOM     26  O   UNL     1      -6.401  13.546  16.826  0.00  0.00    +0.000 OA
ATOM     27  C   UNL     1      -7.322  12.873  18.887  0.00  0.00    +0.000 A 
ATOM     28  C   UNL     1      -7.442  14.058  19.579  0.00  0.00    +0.000 A 
ATOM     29  C   UNL     1      -7.603  13.954  20.962  0.00  0.00    +0.000 A 
ATOM     30  C   UNL     1      -7.741  12.696  21.593  0.00  0.00    +0.000 A 
ATOM     31  C   UNL     1      -7.691  11.512  20.854  0.00  0.00    +0.000 A 
ATOM     32  C   UNL     1      -7.430  11.642  19.508  0.00  0.00    +0.000 A 
ATOM     33  C   UNL     1      -6.651  10.699  18.724  0.00  0.00    +0.000 C 
ATOM     34  O   UNL     1      -6.625   9.485  18.931  0.00  0.00    +0.000 OA
ENDBRANCH  22  24
ENDBRANCH   2  18
TORSDOF 2
ENDMDL
MODEL 8
REMARK VINA RESULT:      -8.2      3.170      5.429
REMARK  Name = 
REMARK  2 active torsions:
REMARK  status: ('A' for Active; 'I' for Inactive)
REMARK    1  A    between atoms: C_2  and  C_3
REMARK    2  A    between atoms: C_7  and  N_8
REMARK                            x       y       z     vdW  Elec       q    Type
REMARK                         _______ _______ _______ _____ _____    ______ ____
ROOT
ATOM      1  O   UNL     1       1.001  14.169  18.691  0.00  0.00    +0.000 OA
ATOM      2  C   UNL     1       0.646  13.355  19.535  0.00  0.00    +0.000 C 
ATOM      3  N   UNL     1       0.502  13.636  20.903  0.00  0.00    +0.000 N 
ATOM      4  C   UNL     1       0.765  14.984  21.430  0.00  0.00    +0.000 C 
ATOM      5  C   UNL     1      -0.332  15.216  22.516  0.00  0.00    +0.000 C 
ATOM      6  C   UNL     1      -1.460  14.323  22.004  0.00  0.00    +0.000 C 
ATOM      7  C   UNL     1      -0.631  13.082  21.624  0.00  0.00    +0.000 C 
ATOM      8  C   UNL     1      -2.048  14.914  20.694  0.00  0.00    +0.000 C 
ATOM      9  O   UNL     1      -1.612  15.809  19.991  0.00  0.00    +0.000 OA
ATOM     10  N   UNL     1      -3.206  14.209  20.462  0.00  0.00    +0.000 N 
ATOM     11  C   UNL     1      -3.704  13.729  21.656  0.00  0.00    +0.000 A 
ATOM     12  C   UNL     1      -4.966  13.219  21.838  0.00  0.00    +0.000 A 
ATOM     13  C   UNL     1      -5.279  12.759  23.109  0.00  0.00    +0.000 A 
ATOM     14  C   UNL     1      -4.309  12.792  24.131  0.00  0.00    +0.000 A 
ATOM     15  C   UNL     1      -3.019  13.324  23.918  0.00  0.00    +0.000 A 
ATOM     16  C   UNL     1      -2.726  13.832  22.667  0.00  0.00    +0.000 A 
ATOM     17  H   UNL     1      -3.599  14.090  19.541  0.00  0.00    +0.000 HD
ENDROOT
BRANCH   2  18
ATOM     18  C   UNL     1       0.355  11.949  19.100  0.00  0.00    +0.000 A 
ATOM     19  C   UNL     1      -0.833  11.665  18.423  0.00  0.00    +0.000 A 
ATOM     20  C   UNL     1      -1.162  10.346  18.123  0.00  0.00    +0.000 A 
ATOM     21  C   UNL     1      -0.274   9.320  18.434  0.00  0.00    +0.000 A 
ATOM     22  C   UNL     1       0.967   9.589  18.984  0.00  0.00    +0.000 A 
ATOM     23  C   UNL     1       1.251  10.908  19.395  0.00  0.00    +0.000 A 
BRANCH  22  24
ATOM     24  N   UNL     1       1.902   8.524  19.248  0.00  0.00    +0.000 N 
ATOM     25  C   UNL     1       2.570   7.854  18.277  0.00  0.00    +0.000 C 
ATOM     26  O   UNL     1       3.046   8.217  17.223  0.00  0.00    +0.000 OA
ATOM     27  C   UNL     1       2.476   6.465  18.692  0.00  0.00    +0.000 A 
ATOM     28  C   UNL     1       2.247   5.405  17.842  0.00  0.00    +0.000 A 
ATOM     29  C   UNL     1       1.530   4.330  18.371  0.00  0.00    +0.000 A 
ATOM     30  C   UNL     1       1.157   4.297  19.735  0.00  0.00    +0.000 A 
ATOM     31  C   UNL     1       1.469   5.355  20.592  0.00  0.00    +0.000 A 
ATOM     32  C   UNL     1       2.087   6.444  20.019  0.00  0.00    +0.000 A 
ATOM     33  C   UNL     1       1.868   7.823  20.421  0.00  0.00    +0.000 C 
ATOM     34  O   UNL     1       1.625   8.174  21.576  0.00  0.00    +0.000 OA
ENDBRANCH  22  24
ENDBRANCH   2  18
TORSDOF 2
ENDMDL
MODEL 9
REMARK VINA RESULT:      -8.0      5.714     10.505
REMARK  Name = 
REMARK  2 active torsions:
REMARK  status: ('A' for Active; 'I' for Inactive)
REMARK    1  A    between atoms: C_2  and  C_3
REMARK    2  A    between atoms: C_7  and  N_8
REMARK                            x       y       z     vdW  Elec       q    Type
REMARK                         _______ _______ _______ _____ _____    ______ ____
ROOT
ATOM      1  O   UNL     1       0.774   4.825  20.304  0.00  0.00    +0.000 OA
ATOM      2  C   UNL     1       1.804   5.459  20.109  0.00  0.00    +0.000 C 
ATOM      3  N   UNL     1       3.099   4.961  20.324  0.00  0.00    +0.000 N 
ATOM      4  C   UNL     1       3.311   3.586  20.804  0.00  0.00    +0.000 C 
ATOM      5  C   UNL     1       4.564   3.074  20.025  0.00  0.00    +0.000 C 
ATOM      6  C   UNL     1       4.486   3.904  18.745  0.00  0.00    +0.000 C 
ATOM      7  C   UNL     1       4.145   5.272  19.366  0.00  0.00    +0.000 C 
ATOM      8  C   UNL     1       3.264   3.456  17.898  0.00  0.00    +0.000 C 
ATOM      9  O   UNL     1       2.337   2.730  18.211  0.00  0.00    +0.000 OA
ATOM     10  N   UNL     1       3.429   4.055  16.672  0.00  0.00    +0.000 N 
ATOM     11  C   UNL     1       4.770   4.292  16.448  0.00  0.00    +0.000 A 
ATOM     12  C   UNL     1       5.322   4.627  15.236  0.00  0.00    +0.000 A 
ATOM     13  C   UNL     1       6.692   4.853  15.212  0.00  0.00    +0.000 A 
ATOM     14  C   UNL     1       7.442   4.773  16.402  0.00  0.00    +0.000 A 
ATOM     15  C   UNL     1       6.850   4.425  17.635  0.00  0.00    +0.000 A 
ATOM     16  C   UNL     1       5.497   4.146  17.648  0.00  0.00    +0.000 A 
ATOM     17  H   UNL     1       2.658   4.268  16.058  0.00  0.00    +0.000 HD
ENDROOT
BRANCH   2  18
ATOM     18  C   UNL     1       1.697   6.873  19.621  0.00  0.00    +0.000 A 
ATOM     19  C   UNL     1       1.804   7.145  18.255  0.00  0.00    +0.000 A 
ATOM     20  C   UNL     1       1.824   8.465  17.811  0.00  0.00    +0.000 A 
ATOM     21  C   UNL     1       1.666   9.508  18.720  0.00  0.00    +0.000 A 
ATOM     22  C   UNL     1       1.426   9.260  20.060  0.00  0.00    +0.000 A 
ATOM     23  C   UNL     1       1.523   7.933  20.528  0.00  0.00    +0.000 A 
BRANCH  22  24
ATOM     24  N   UNL     1       1.205  10.346  20.982  0.00  0.00    +0.000 N 
ATOM     25  C   UNL     1       0.682  10.183  22.221  0.00  0.00    +0.000 C 
ATOM     26  O   UNL     1       0.813   9.307  23.048  0.00  0.00    +0.000 OA
ATOM     27  C   UNL     1      -0.272  11.273  22.336  0.00  0.00    +0.000 A 
ATOM     28  C   UNL     1      -1.520  11.168  22.910  0.00  0.00    +0.000 A 
ATOM     29  C   UNL     1      -2.519  11.984  22.376  0.00  0.00    +0.000 A 
ATOM     30  C   UNL     1      -2.229  12.937  21.372  0.00  0.00    +0.000 A 
ATOM     31  C   UNL     1      -0.936  13.073  20.861  0.00  0.00    +0.000 A 
ATOM     32  C   UNL     1       0.005  12.187  21.336  0.00  0.00    +0.000 A 
ATOM     33  C   UNL     1       1.092  11.636  20.545  0.00  0.00    +0.000 C 
ATOM     34  O   UNL     1       1.666  12.245  19.642  0.00  0.00    +0.000 OA
ENDBRANCH  22  24
ENDBRANCH   2  18
TORSDOF 2
ENDMDL
