MODEL 1
REMARK VINA RESULT:      -9.0      0.000      0.000
REMARK  Name = 
REMARK  6 active torsions:
REMARK  status: ('A' for Active; 'I' for Inactive)
REMARK    1  A    between atoms: C_1  and  C_2
REMARK    2  A    between atoms: C_2  and  C_3
REMARK    3  A    between atoms: N_7  and  C_8
REMARK    4  A    between atoms: C_8  and  C_9
REMARK    5  A    between atoms: C_13  and  N_14
REMARK    6  A    between atoms: C_21  and  C_22
REMARK                            x       y       z     vdW  Elec       q    Type
REMARK                         _______ _______ _______ _____ _____    ______ ____
ROOT
ATOM      1  C   UNL     1       4.354   4.441  18.525  0.00  0.00    +0.000 A 
ATOM      2  C   UNL     1       3.447   3.394  18.343  0.00  0.00    +0.000 A 
ATOM      3  C   UNL     1       2.082   3.633  18.474  0.00  0.00    +0.000 A 
ATOM      4  C   UNL     1       1.611   4.916  18.775  0.00  0.00    +0.000 A 
ATOM      5  C   UNL     1       2.487   5.998  18.930  0.00  0.00    +0.000 A 
ATOM      6  C   UNL     1       3.861   5.728  18.793  0.00  0.00    +0.000 A 
ATOM      7  F   UNL     1       4.765   6.710  18.938  0.00  0.00    +0.000 F 
ENDROOT
BRANCH   5   8
ATOM      8  N   UNL     1       2.006   7.309  19.216  0.00  0.00    +0.000 N 
ATOM      9  C   UNL     1       1.387   7.653  20.492  0.00  0.00    +0.000 C 
ATOM     10  C   UNL     1       1.058   9.105  20.346  0.00  0.00    +0.000 A 
ATOM     11  C   UNL     1       1.453   9.540  19.084  0.00  0.00    +0.000 A 
ATOM     12  C   UNL     1       1.263  10.835  18.641  0.00  0.00    +0.000 A 
ATOM     13  C   UNL     1       0.645  11.729  19.513  0.00  0.00    +0.000 A 
ATOM     14  C   UNL     1       0.243  11.309  20.795  0.00  0.00    +0.000 A 
ATOM     15  C   UNL     1       0.447   9.985  21.236  0.00  0.00    +0.000 A 
ATOM     16  C   UNL     1       2.057   8.413  18.364  0.00  0.00    +0.000 C 
ATOM     17  O   UNL     1       2.478   8.530  17.227  0.00  0.00    +0.000 OA
BRANCH  15  18
ATOM     18  C   UNL     1       0.003   9.578  22.618  0.00  0.00    +0.000 C 
ATOM     19  F   UNL     1      -0.868   8.532  22.626  0.00  0.00    +0.000 F 
ATOM     20  F   UNL     1       1.046   9.199  23.405  0.00  0.00    +0.000 F 
ATOM     21  F   UNL     1      -0.622  10.589  23.280  0.00  0.00    +0.000 F 
ENDBRANCH  15  18
ENDBRANCH   5   8
BRANCH   1  22
ATOM     22  C   UNL     1       5.840   4.207  18.468  0.00  0.00    +0.000 C 
BRANCH  22  27
ATOM     23  C   UNL     1       7.244   5.703  16.985  0.00  0.00    +0.000 A 
ATOM     24  N   UNL     1       7.483   5.780  15.690  0.00  0.00    +0.000 NA
ATOM     25  N   UNL     1       6.803   4.766  15.062  0.00  0.00    +0.000 NA
ATOM     26  C   UNL     1       6.162   4.089  15.984  0.00  0.00    +0.000 A 
ATOM     27  N   UNL     1       6.428   4.620  17.210  0.00  0.00    +0.000 N 
BRANCH  23  29
ATOM     28  C   UNL     1       7.747   8.084  17.597  0.00  0.00    +0.000 C 
ATOM     29  C   UNL     1       7.726   6.632  18.045  0.00  0.00    +0.000 C 
ENDBRANCH  23  29
ENDBRANCH  22  27
ENDBRANCH   1  22
TORSDOF 5
ENDMDL
MODEL 2
REMARK VINA RESULT:      -8.6      3.176      8.356
REMARK  Name = 
REMARK  6 active torsions:
REMARK  status: ('A' for Active; 'I' for Inactive)
REMARK    1  A    between atoms: C_1  and  C_2
REMARK    2  A    between atoms: C_2  and  C_3
REMARK    3  A    between atoms: N_7  and  C_8
REMARK    4  A    between atoms: C_8  and  C_9
REMARK    5  A    between atoms: C_13  and  N_14
REMARK    6  A    between atoms: C_21  and  C_22
REMARK                            x       y       z     vdW  Elec       q    Type
REMARK                         _______ _______ _______ _____ _____    ______ ____
ROOT
ATOM      1  C   UNL     1       0.604  10.329  19.710  0.00  0.00    +0.000 A 
ATOM      2  C   UNL     1       0.484  10.343  21.102  0.00  0.00    +0.000 A 
ATOM      3  C   UNL     1       0.944   9.261  21.846  0.00  0.00    +0.000 A 
ATOM      4  C   UNL     1       1.536   8.163  21.212  0.00  0.00    +0.000 A 
ATOM      5  C   UNL     1       1.706   8.127  19.821  0.00  0.00    +0.000 A 
ATOM      6  C   UNL     1       1.231   9.234  19.094  0.00  0.00    +0.000 A 
ATOM      7  F   UNL     1       1.348   9.270  17.757  0.00  0.00    +0.000 F 
ENDROOT
BRANCH   5   8
ATOM      8  N   UNL     1       2.328   7.018  19.177  0.00  0.00    +0.000 N 
ATOM      9  C   UNL     1       3.337   7.185  18.137  0.00  0.00    +0.000 C 
ATOM     10  C   UNL     1       3.706   5.782  17.772  0.00  0.00    +0.000 A 
ATOM     11  C   UNL     1       2.955   4.896  18.540  0.00  0.00    +0.000 A 
ATOM     12  C   UNL     1       3.054   3.524  18.419  0.00  0.00    +0.000 A 
ATOM     13  C   UNL     1       3.952   3.025  17.477  0.00  0.00    +0.000 A 
ATOM     14  C   UNL     1       4.722   3.903  16.694  0.00  0.00    +0.000 A 
ATOM     15  C   UNL     1       4.615   5.303  16.831  0.00  0.00    +0.000 A 
ATOM     16  C   UNL     1       2.084   5.668  19.435  0.00  0.00    +0.000 C 
ATOM     17  O   UNL     1       1.317   5.125  20.209  0.00  0.00    +0.000 OA
BRANCH  15  18
ATOM     18  C   UNL     1       5.462   6.208  15.974  0.00  0.00    +0.000 C 
ATOM     19  F   UNL     1       6.302   7.006  16.687  0.00  0.00    +0.000 F 
ATOM     20  F   UNL     1       6.252   5.513  15.111  0.00  0.00    +0.000 F 
ATOM     21  F   UNL     1       4.713   7.046  15.208  0.00  0.00    +0.000 F 
ENDBRANCH  15  18
ENDBRANCH   5   8
BRANCH   1  22
ATOM     22  C   UNL     1       0.050  11.445  18.866  0.00  0.00    +0.000 C 
BRANCH  22  27
ATOM     23  C   UNL     1      -2.296  10.890  18.093  0.00  0.00    +0.000 A 
ATOM     24  N   UNL     1      -3.508  11.304  18.407  0.00  0.00    +0.000 NA
ATOM     25  N   UNL     1      -3.402  12.231  19.414  0.00  0.00    +0.000 NA
ATOM     26  C   UNL     1      -2.129  12.366  19.696  0.00  0.00    +0.000 A 
ATOM     27  N   UNL     1      -1.395  11.525  18.914  0.00  0.00    +0.000 N 
BRANCH  23  29
ATOM     28  C   UNL     1      -2.680  10.171  15.720  0.00  0.00    +0.000 C 
ATOM     29  C   UNL     1      -1.924   9.930  17.016  0.00  0.00    +0.000 C 
ENDBRANCH  23  29
ENDBRANCH  22  27
ENDBRANCH   1  22
TORSDOF 5
ENDMDL
MODEL 3
REMARK VINA RESULT:      -8.5      0.583      1.731
REMARK  Name = 
REMARK  6 active torsions:
REMARK  status: ('A' for Active; 'I' for Inactive)
REMARK    1  A    between atoms: C_1  and  C_2
REMARK    2  A    between atoms: C_2  and  C_3
REMARK    3  A    between atoms: N_7  and  C_8
REMARK    4  A    between atoms: C_8  and  C_9
REMARK    5  A    between atoms: C_13  and  N_14
REMARK    6  A    between atoms: C_21  and  C_22
REMARK                            x       y       z     vdW  Elec       q    Type
REMARK                         _______ _______ _______ _____ _____    ______ ____
ROOT
ATOM      1  C   UNL     1       4.339   4.641  18.315  0.00  0.00    +0.000 A 
ATOM      2  C   UNL     1       3.443   3.614  18.006  0.00  0.00    +0.000 A 
ATOM      3  C   UNL     1       2.072   3.848  18.081  0.00  0.00    +0.000 A 
ATOM      4  C   UNL     1       1.585   5.106  18.454  0.00  0.00    +0.000 A 
ATOM      5  C   UNL     1       2.452   6.170  18.737  0.00  0.00    +0.000 A 
ATOM      6  C   UNL     1       3.832   5.905  18.654  0.00  0.00    +0.000 A 
ATOM      7  F   UNL     1       4.726   6.871  18.921  0.00  0.00    +0.000 F 
ENDROOT
BRANCH   5   8
ATOM      8  N   UNL     1       1.956   7.457  19.096  0.00  0.00    +0.000 N 
ATOM      9  C   UNL     1       1.358   7.728  20.400  0.00  0.00    +0.000 C 
ATOM     10  C   UNL     1       1.003   9.180  20.332  0.00  0.00    +0.000 A 
ATOM     11  C   UNL     1       1.364   9.682  19.085  0.00  0.00    +0.000 A 
ATOM     12  C   UNL     1       1.145  10.993  18.709  0.00  0.00    +0.000 A 
ATOM     13  C   UNL     1       0.531  11.833  19.636  0.00  0.00    +0.000 A 
ATOM     14  C   UNL     1       0.162  11.345  20.903  0.00  0.00    +0.000 A 
ATOM     15  C   UNL     1       0.396  10.005  21.275  0.00  0.00    +0.000 A 
ATOM     16  C   UNL     1       1.972   8.602  18.298  0.00  0.00    +0.000 C 
ATOM     17  O   UNL     1       2.368   8.781  17.160  0.00  0.00    +0.000 OA
BRANCH  15  18
ATOM     18  C   UNL     1      -0.013   9.524  22.644  0.00  0.00    +0.000 C 
ATOM     19  F   UNL     1      -0.634  10.475  23.394  0.00  0.00    +0.000 F 
ATOM     20  F   UNL     1      -0.875   8.473  22.587  0.00  0.00    +0.000 F 
ATOM     21  F   UNL     1       1.048   9.102  23.383  0.00  0.00    +0.000 F 
ENDBRANCH  15  18
ENDBRANCH   5   8
BRANCH   1  22
ATOM     22  C   UNL     1       5.825   4.406  18.319  0.00  0.00    +0.000 C 
BRANCH  22  27
ATOM     23  C   UNL     1       6.689   4.883  15.988  0.00  0.00    +0.000 A 
ATOM     24  N   UNL     1       7.463   5.803  15.446  0.00  0.00    +0.000 NA
ATOM     25  N   UNL     1       7.829   6.694  16.425  0.00  0.00    +0.000 NA
ATOM     26  C   UNL     1       7.271   6.302  17.545  0.00  0.00    +0.000 A 
ATOM     27  N   UNL     1       6.523   5.186  17.318  0.00  0.00    +0.000 N 
BRANCH  23  29
ATOM     28  C   UNL     1       5.765   3.936  13.856  0.00  0.00    +0.000 C 
ATOM     29  C   UNL     1       6.107   3.688  15.316  0.00  0.00    +0.000 C 
ENDBRANCH  23  29
ENDBRANCH  22  27
ENDBRANCH   1  22
TORSDOF 5
ENDMDL
MODEL 4
REMARK VINA RESULT:      -8.4      3.423      8.010
REMARK  Name = 
REMARK  6 active torsions:
REMARK  status: ('A' for Active; 'I' for Inactive)
REMARK    1  A    between atoms: C_1  and  C_2
REMARK    2  A    between atoms: C_2  and  C_3
REMARK    3  A    between atoms: N_7  and  C_8
REMARK    4  A    between atoms: C_8  and  C_9
REMARK    5  A    between atoms: C_13  and  N_14
REMARK    6  A    between atoms: C_21  and  C_22
REMARK                            x       y       z     vdW  Elec       q    Type
REMARK                         _______ _______ _______ _____ _____    ______ ____
ROOT
ATOM      1  C   UNL     1       0.538  10.430  19.742  0.00  0.00    +0.000 A 
ATOM      2  C   UNL     1       0.520  10.558  21.133  0.00  0.00    +0.000 A 
ATOM      3  C   UNL     1       0.995   9.519  21.929  0.00  0.00    +0.000 A 
ATOM      4  C   UNL     1       1.501   8.351  21.345  0.00  0.00    +0.000 A 
ATOM      5  C   UNL     1       1.569   8.201  19.954  0.00  0.00    +0.000 A 
ATOM      6  C   UNL     1       1.081   9.266  19.175  0.00  0.00    +0.000 A 
ATOM      7  F   UNL     1       1.102   9.193  17.834  0.00  0.00    +0.000 F 
ENDROOT
BRANCH   5   8
ATOM      8  N   UNL     1       2.103   7.021  19.359  0.00  0.00    +0.000 N 
ATOM      9  C   UNL     1       1.671   5.683  19.752  0.00  0.00    +0.000 C 
ATOM     10  C   UNL     1       2.475   4.779  18.873  0.00  0.00    +0.000 A 
ATOM     11  C   UNL     1       3.302   5.547  18.058  0.00  0.00    +0.000 A 
ATOM     12  C   UNL     1       4.183   4.997  17.148  0.00  0.00    +0.000 A 
ATOM     13  C   UNL     1       4.232   3.607  17.059  0.00  0.00    +0.000 A 
ATOM     14  C   UNL     1       3.401   2.814  17.872  0.00  0.00    +0.000 A 
ATOM     15  C   UNL     1       2.503   3.388  18.794  0.00  0.00    +0.000 A 
ATOM     16  C   UNL     1       3.071   6.966  18.355  0.00  0.00    +0.000 C 
ATOM     17  O   UNL     1       3.681   7.849  17.779  0.00  0.00    +0.000 OA
BRANCH  15  18
ATOM     18  C   UNL     1       1.629   2.501  19.643  0.00  0.00    +0.000 C 
ATOM     19  F   UNL     1       1.776   1.174  19.377  0.00  0.00    +0.000 F 
ATOM     20  F   UNL     1       1.882   2.644  20.972  0.00  0.00    +0.000 F 
ATOM     21  F   UNL     1       0.305   2.769  19.480  0.00  0.00    +0.000 F 
ENDBRANCH  15  18
ENDBRANCH   5   8
BRANCH   1  22
ATOM     22  C   UNL     1      -0.036  11.498  18.852  0.00  0.00    +0.000 C 
BRANCH  22  27
ATOM     23  C   UNL     1      -2.358  10.890  18.050  0.00  0.00    +0.000 A 
ATOM     24  N   UNL     1      -3.584  11.271  18.352  0.00  0.00    +0.000 NA
ATOM     25  N   UNL     1      -3.513  12.195  19.365  0.00  0.00    +0.000 NA
ATOM     26  C   UNL     1      -2.246  12.360  19.662  0.00  0.00    +0.000 A 
ATOM     27  N   UNL     1      -1.483  11.543  18.884  0.00  0.00    +0.000 N 
BRANCH  23  29
ATOM     28  C   UNL     1      -2.936   9.906  15.815  0.00  0.00    +0.000 C 
ATOM     29  C   UNL     1      -1.951   9.945  16.972  0.00  0.00    +0.000 C 
ENDBRANCH  23  29
ENDBRANCH  22  27
ENDBRANCH   1  22
TORSDOF 5
ENDMDL
MODEL 5
REMARK VINA RESULT:      -8.2      1.248      1.792
REMARK  Name = 
REMARK  6 active torsions:
REMARK  status: ('A' for Active; 'I' for Inactive)
REMARK    1  A    between atoms: C_1  and  C_2
REMARK    2  A    between atoms: C_2  and  C_3
REMARK    3  A    between atoms: N_7  and  C_8
REMARK    4  A    between atoms: C_8  and  C_9
REMARK    5  A    between atoms: C_13  and  N_14
REMARK    6  A    between atoms: C_21  and  C_22
REMARK                            x       y       z     vdW  Elec       q    Type
REMARK                         _______ _______ _______ _____ _____    ______ ____
ROOT
ATOM      1  C   UNL     1       4.203   5.574  17.462  0.00  0.00    +0.000 A 
ATOM      2  C   UNL     1       3.406   4.428  17.411  0.00  0.00    +0.000 A 
ATOM      3  C   UNL     1       2.098   4.474  17.888  0.00  0.00    +0.000 A 
ATOM      4  C   UNL     1       1.573   5.663  18.408  0.00  0.00    +0.000 A 
ATOM      5  C   UNL     1       2.330   6.841  18.443  0.00  0.00    +0.000 A 
ATOM      6  C   UNL     1       3.648   6.765  17.955  0.00  0.00    +0.000 A 
ATOM      7  F   UNL     1       4.440   7.850  17.964  0.00  0.00    +0.000 F 
ENDROOT
BRANCH   5   8
ATOM      8  N   UNL     1       1.789   8.057  18.953  0.00  0.00    +0.000 N 
ATOM      9  C   UNL     1       1.225   8.159  20.295  0.00  0.00    +0.000 C 
ATOM     10  C   UNL     1       0.802   9.590  20.394  0.00  0.00    +0.000 A 
ATOM     11  C   UNL     1       1.095  10.239  19.197  0.00  0.00    +0.000 A 
ATOM     12  C   UNL     1       0.803  11.570  18.972  0.00  0.00    +0.000 A 
ATOM     13  C   UNL     1       0.184  12.276  20.001  0.00  0.00    +0.000 A 
ATOM     14  C   UNL     1      -0.117  11.639  21.219  0.00  0.00    +0.000 A 
ATOM     15  C   UNL     1       0.191  10.281  21.438  0.00  0.00    +0.000 A 
ATOM     16  C   UNL     1       1.724   9.279  18.282  0.00  0.00    +0.000 C 
ATOM     17  O   UNL     1       2.070   9.597  17.158  0.00  0.00    +0.000 OA
BRANCH  15  18
ATOM     18  C   UNL     1      -0.147   9.638  22.759  0.00  0.00    +0.000 C 
ATOM     19  F   UNL     1      -0.890  10.431  23.578  0.00  0.00    +0.000 F 
ATOM     20  F   UNL     1      -0.859   8.489  22.608  0.00  0.00    +0.000 F 
ATOM     21  F   UNL     1       0.963   9.303  23.471  0.00  0.00    +0.000 F 
ENDBRANCH  15  18
ENDBRANCH   5   8
BRANCH   1  22
ATOM     22  C   UNL     1       5.643   5.544  17.026  0.00  0.00    +0.000 C 
BRANCH  22  27
ATOM     23  C   UNL     1       7.554   6.657  18.259  0.00  0.00    +0.000 A 
ATOM     24  N   UNL     1       8.235   6.400  19.359  0.00  0.00    +0.000 NA
ATOM     25  N   UNL     1       7.717   5.266  19.935  0.00  0.00    +0.000 NA
ATOM     26  C   UNL     1       6.730   4.853  19.177  0.00  0.00    +0.000 A 
ATOM     27  N   UNL     1       6.569   5.707  18.128  0.00  0.00    +0.000 N 
BRANCH  23  29
ATOM     28  C   UNL     1       8.136   9.078  17.952  0.00  0.00    +0.000 C 
ATOM     29  C   UNL     1       7.803   7.754  17.283  0.00  0.00    +0.000 C 
ENDBRANCH  23  29
ENDBRANCH  22  27
ENDBRANCH   1  22
TORSDOF 5
ENDMDL
MODEL 6
REMARK VINA RESULT:      -8.2      3.686      8.187
REMARK  Name = 
REMARK  6 active torsions:
REMARK  status: ('A' for Active; 'I' for Inactive)
REMARK    1  A    between atoms: C_1  and  C_2
REMARK    2  A    between atoms: C_2  and  C_3
REMARK    3  A    between atoms: N_7  and  C_8
REMARK    4  A    between atoms: C_8  and  C_9
REMARK    5  A    between atoms: C_13  and  N_14
REMARK    6  A    between atoms: C_21  and  C_22
REMARK                            x       y       z     vdW  Elec       q    Type
REMARK                         _______ _______ _______ _____ _____    ______ ____
ROOT
ATOM      1  C   UNL     1      -0.655  11.331  19.308  0.00  0.00    +0.000 A 
ATOM      2  C   UNL     1      -0.577  11.785  20.627  0.00  0.00    +0.000 A 
ATOM      3  C   UNL     1       0.185  11.082  21.556  0.00  0.00    +0.000 A 
ATOM      4  C   UNL     1       0.882   9.929  21.176  0.00  0.00    +0.000 A 
ATOM      5  C   UNL     1       0.856   9.462  19.855  0.00  0.00    +0.000 A 
ATOM      6  C   UNL     1       0.078  10.193  18.938  0.00  0.00    +0.000 A 
ATOM      7  F   UNL     1      -0.005   9.803  17.656  0.00  0.00    +0.000 F 
ENDROOT
BRANCH   5   8
ATOM      8  N   UNL     1       1.583   8.301  19.463  0.00  0.00    +0.000 N 
ATOM      9  C   UNL     1       1.502   7.043  20.200  0.00  0.00    +0.000 C 
ATOM     10  C   UNL     1       2.401   6.125  19.433  0.00  0.00    +0.000 A 
ATOM     11  C   UNL     1       2.951   6.816  18.357  0.00  0.00    +0.000 A 
ATOM     12  C   UNL     1       3.842   6.241  17.471  0.00  0.00    +0.000 A 
ATOM     13  C   UNL     1       4.193   4.910  17.685  0.00  0.00    +0.000 A 
ATOM     14  C   UNL     1       3.645   4.194  18.765  0.00  0.00    +0.000 A 
ATOM     15  C   UNL     1       2.733   4.791  19.659  0.00  0.00    +0.000 A 
ATOM     16  C   UNL     1       2.437   8.190  18.364  0.00  0.00    +0.000 C 
ATOM     17  O   UNL     1       2.774   9.006  17.526  0.00  0.00    +0.000 OA
BRANCH  15  18
ATOM     18  C   UNL     1       2.167   3.987  20.802  0.00  0.00    +0.000 C 
ATOM     19  F   UNL     1       0.810   3.886  20.779  0.00  0.00    +0.000 F 
ATOM     20  F   UNL     1       2.634   2.710  20.817  0.00  0.00    +0.000 F 
ATOM     21  F   UNL     1       2.480   4.518  22.014  0.00  0.00    +0.000 F 
ENDBRANCH  15  18
ENDBRANCH   5   8
BRANCH   1  22
ATOM     22  C   UNL     1      -1.528  12.021  18.295  0.00  0.00    +0.000 C 
BRANCH  22  27
ATOM     23  C   UNL     1      -3.576  10.712  17.586  0.00  0.00    +0.000 A 
ATOM     24  N   UNL     1      -4.849  10.706  17.930  0.00  0.00    +0.000 NA
ATOM     25  N   UNL     1      -5.032  11.629  18.930  0.00  0.00    +0.000 NA
ATOM     26  C   UNL     1      -3.869  12.181  19.178  0.00  0.00    +0.000 A 
ATOM     27  N   UNL     1      -2.917  11.620  18.380  0.00  0.00    +0.000 N 
BRANCH  23  29
ATOM     28  C   UNL     1      -3.112  10.532  15.127  0.00  0.00    +0.000 C 
ATOM     29  C   UNL     1      -2.933   9.915  16.504  0.00  0.00    +0.000 C 
ENDBRANCH  23  29
ENDBRANCH  22  27
ENDBRANCH   1  22
TORSDOF 5
ENDMDL
MODEL 7
REMARK VINA RESULT:      -8.2      3.129      8.337
REMARK  Name = 
REMARK  6 active torsions:
REMARK  status: ('A' for Active; 'I' for Inactive)
REMARK    1  A    between atoms: C_1  and  C_2
REMARK    2  A    between atoms: C_2  and  C_3
REMARK    3  A    between atoms: N_7  and  C_8
REMARK    4  A    between atoms: C_8  and  C_9
REMARK    5  A    between atoms: C_13  and  N_14
REMARK    6  A    between atoms: C_21  and  C_22
REMARK                            x       y       z     vdW  Elec       q    Type
REMARK                         _______ _______ _______ _____ _____    ______ ____
ROOT
ATOM      1  C   UNL     1       0.673  10.303  19.674  0.00  0.00    +0.000 A 
ATOM      2  C   UNL     1       0.510  10.305  21.061  0.00  0.00    +0.000 A 
ATOM      3  C   UNL     1       0.932   9.208  21.807  0.00  0.00    +0.000 A 
ATOM      4  C   UNL     1       1.528   8.108  21.179  0.00  0.00    +0.000 A 
ATOM      5  C   UNL     1       1.740   8.085  19.794  0.00  0.00    +0.000 A 
ATOM      6  C   UNL     1       1.303   9.207  19.065  0.00  0.00    +0.000 A 
ATOM      7  F   UNL     1       1.461   9.255  17.733  0.00  0.00    +0.000 F 
ENDROOT
BRANCH   5   8
ATOM      8  N   UNL     1       2.366   6.975  19.157  0.00  0.00    +0.000 N 
ATOM      9  C   UNL     1       3.369   7.138  18.110  0.00  0.00    +0.000 C 
ATOM     10  C   UNL     1       3.745   5.734  17.756  0.00  0.00    +0.000 A 
ATOM     11  C   UNL     1       3.003   4.851  18.536  0.00  0.00    +0.000 A 
ATOM     12  C   UNL     1       3.111   3.478  18.427  0.00  0.00    +0.000 A 
ATOM     13  C   UNL     1       4.006   2.976  17.485  0.00  0.00    +0.000 A 
ATOM     14  C   UNL     1       4.768   3.852  16.690  0.00  0.00    +0.000 A 
ATOM     15  C   UNL     1       4.652   5.252  16.815  0.00  0.00    +0.000 A 
ATOM     16  C   UNL     1       2.132   5.625  19.428  0.00  0.00    +0.000 C 
ATOM     17  O   UNL     1       1.371   5.085  20.211  0.00  0.00    +0.000 OA
BRANCH  15  18
ATOM     18  C   UNL     1       5.489   6.155  15.946  0.00  0.00    +0.000 C 
ATOM     19  F   UNL     1       4.756   7.009  15.180  0.00  0.00    +0.000 F 
ATOM     20  F   UNL     1       6.331   6.938  16.673  0.00  0.00    +0.000 F 
ATOM     21  F   UNL     1       6.274   5.459  15.080  0.00  0.00    +0.000 F 
ENDBRANCH  15  18
ENDBRANCH   5   8
BRANCH   1  22
ATOM     22  C   UNL     1       0.161  11.437  18.826  0.00  0.00    +0.000 C 
BRANCH  22  27
ATOM     23  C   UNL     1      -2.296  11.983  19.099  0.00  0.00    +0.000 A 
ATOM     24  N   UNL     1      -3.421  11.518  18.593  0.00  0.00    +0.000 NA
ATOM     25  N   UNL     1      -3.115  10.526  17.695  0.00  0.00    +0.000 NA
ATOM     26  C   UNL     1      -1.809  10.404  17.669  0.00  0.00    +0.000 A 
ATOM     27  N   UNL     1      -1.248  11.316  18.512  0.00  0.00    +0.000 N 
BRANCH  23  29
ATOM     28  C   UNL     1      -2.440  12.502  21.550  0.00  0.00    +0.000 C 
ATOM     29  C   UNL     1      -2.147  13.026  20.153  0.00  0.00    +0.000 C 
ENDBRANCH  23  29
ENDBRANCH  22  27
ENDBRANCH   1  22
TORSDOF 5
ENDMDL
MODEL 8
REMARK VINA RESULT:      -8.0      3.098      4.771
REMARK  Name = 
REMARK  6 active torsions:
REMARK  status: ('A' for Active; 'I' for Inactive)
REMARK    1  A    between atoms: C_1  and  C_2
REMARK    2  A    between atoms: C_2  and  C_3
REMARK    3  A    between atoms: N_7  and  C_8
REMARK    4  A    between atoms: C_8  and  C_9
REMARK    5  A    between atoms: C_13  and  N_14
REMARK    6  A    between atoms: C_21  and  C_22
REMARK                            x       y       z     vdW  Elec       q    Type
REMARK                         _______ _______ _______ _____ _____    ______ ____
ROOT
ATOM      1  C   UNL     1       3.096   6.294  19.039  0.00  0.00    +0.000 A 
ATOM      2  C   UNL     1       3.685   6.763  17.862  0.00  0.00    +0.000 A 
ATOM      3  C   UNL     1       3.356   8.028  17.382  0.00  0.00    +0.000 A 
ATOM      4  C   UNL     1       2.448   8.838  18.075  0.00  0.00    +0.000 A 
ATOM      5  C   UNL     1       1.864   8.416  19.277  0.00  0.00    +0.000 A 
ATOM      6  C   UNL     1       2.214   7.134  19.738  0.00  0.00    +0.000 A 
ATOM      7  F   UNL     1       1.688   6.654  20.877  0.00  0.00    +0.000 F 
ENDROOT
BRANCH   5   8
ATOM      8  N   UNL     1       0.956   9.249  19.993  0.00  0.00    +0.000 N 
ATOM      9  C   UNL     1      -0.092  10.015  19.328  0.00  0.00    +0.000 C 
ATOM     10  C   UNL     1      -0.789  10.713  20.453  0.00  0.00    +0.000 A 
ATOM     11  C   UNL     1      -0.174  10.373  21.655  0.00  0.00    +0.000 A 
ATOM     12  C   UNL     1      -0.579  10.876  22.876  0.00  0.00    +0.000 A 
ATOM     13  C   UNL     1      -1.653  11.764  22.882  0.00  0.00    +0.000 A 
ATOM     14  C   UNL     1      -2.290  12.117  21.678  0.00  0.00    +0.000 A 
ATOM     15  C   UNL     1      -1.870  11.592  20.438  0.00  0.00    +0.000 A 
ATOM     16  C   UNL     1       0.927   9.444  21.375  0.00  0.00    +0.000 C 
ATOM     17  O   UNL     1       1.633   9.000  22.263  0.00  0.00    +0.000 OA
BRANCH  15  18
ATOM     18  C   UNL     1      -2.582  11.995  19.173  0.00  0.00    +0.000 C 
ATOM     19  F   UNL     1      -3.087  10.943  18.472  0.00  0.00    +0.000 F 
ATOM     20  F   UNL     1      -3.637  12.821  19.413  0.00  0.00    +0.000 F 
ATOM     21  F   UNL     1      -1.770  12.662  18.310  0.00  0.00    +0.000 F 
ENDBRANCH  15  18
ENDBRANCH   5   8
BRANCH   1  22
ATOM     22  C   UNL     1       3.367   4.905  19.549  0.00  0.00    +0.000 C 
BRANCH  22  27
ATOM     23  C   UNL     1       1.531   3.189  19.243  0.00  0.00    +0.000 A 
ATOM     24  N   UNL     1       1.234   2.287  18.328  0.00  0.00    +0.000 NA
ATOM     25  N   UNL     1       2.164   2.370  17.320  0.00  0.00    +0.000 NA
ATOM     26  C   UNL     1       3.009   3.321  17.639  0.00  0.00    +0.000 A 
ATOM     27  N   UNL     1       2.639   3.885  18.823  0.00  0.00    +0.000 N 
BRANCH  23  29
ATOM     28  C   UNL     1       1.459   2.659  21.694  0.00  0.00    +0.000 C 
ATOM     29  C   UNL     1       0.831   3.420  20.538  0.00  0.00    +0.000 C 
ENDBRANCH  23  29
ENDBRANCH  22  27
ENDBRANCH   1  22
TORSDOF 5
ENDMDL
MODEL 9
REMARK VINA RESULT:      -7.9      3.195      4.832
REMARK  Name = 
REMARK  6 active torsions:
REMARK  status: ('A' for Active; 'I' for Inactive)
REMARK    1  A    between atoms: C_1  and  C_2
REMARK    2  A    between atoms: C_2  and  C_3
REMARK    3  A    between atoms: N_7  and  C_8
REMARK    4  A    between atoms: C_8  and  C_9
REMARK    5  A    between atoms: C_13  and  N_14
REMARK    6  A    between atoms: C_21  and  C_22
REMARK                            x       y       z     vdW  Elec       q    Type
REMARK                         _______ _______ _______ _____ _____    ______ ____
ROOT
ATOM      1  C   UNL     1       2.909   6.343  19.460  0.00  0.00    +0.000 A 
ATOM      2  C   UNL     1       3.682   6.561  18.317  0.00  0.00    +0.000 A 
ATOM      3  C   UNL     1       3.470   7.703  17.548  0.00  0.00    +0.000 A 
ATOM      4  C   UNL     1       2.497   8.638  17.918  0.00  0.00    +0.000 A 
ATOM      5  C   UNL     1       1.728   8.471  19.077  0.00  0.00    +0.000 A 
ATOM      6  C   UNL     1       1.962   7.309  19.834  0.00  0.00    +0.000 A 
ATOM      7  F   UNL     1       1.257   7.072  20.952  0.00  0.00    +0.000 F 
ENDROOT
BRANCH   5   8
ATOM      8  N   UNL     1       0.752   9.435  19.466  0.00  0.00    +0.000 N 
ATOM      9  C   UNL     1      -0.366   9.806  18.604  0.00  0.00    +0.000 C 
ATOM     10  C   UNL     1      -1.117  10.815  19.413  0.00  0.00    +0.000 A 
ATOM     11  C   UNL     1      -0.467  11.003  20.629  0.00  0.00    +0.000 A 
ATOM     12  C   UNL     1      -0.910  11.894  21.589  0.00  0.00    +0.000 A 
ATOM     13  C   UNL     1      -2.060  12.627  21.304  0.00  0.00    +0.000 A 
ATOM     14  C   UNL     1      -2.732  12.448  20.081  0.00  0.00    +0.000 A 
ATOM     15  C   UNL     1      -2.273  11.533  19.112  0.00  0.00    +0.000 A 
ATOM     16  C   UNL     1       0.713  10.132  20.674  0.00  0.00    +0.000 C 
ATOM     17  O   UNL     1       1.460  10.114  21.635  0.00  0.00    +0.000 OA
BRANCH  15  18
ATOM     18  C   UNL     1      -3.026  11.370  17.817  0.00  0.00    +0.000 C 
ATOM     19  F   UNL     1      -3.442  10.095  17.583  0.00  0.00    +0.000 F 
ATOM     20  F   UNL     1      -4.147  12.141  17.770  0.00  0.00    +0.000 F 
ATOM     21  F   UNL     1      -2.280  11.723  16.736  0.00  0.00    +0.000 F 
ENDBRANCH  15  18
ENDBRANCH   5   8
BRANCH   1  22
ATOM     22  C   UNL     1       3.056   5.085  20.274  0.00  0.00    +0.000 C 
BRANCH  22  27
ATOM     23  C   UNL     1       2.624   3.001  18.902  0.00  0.00    +0.000 A 
ATOM     24  N   UNL     1       1.567   2.261  18.630  0.00  0.00    +0.000 NA
ATOM     25  N   UNL     1       0.489   2.782  19.302  0.00  0.00    +0.000 NA
ATOM     26  C   UNL     1       0.907   3.829  19.971  0.00  0.00    +0.000 A 
ATOM     27  N   UNL     1       2.246   3.993  19.775  0.00  0.00    +0.000 N 
BRANCH  23  29
ATOM     28  C   UNL     1       4.154   3.457  16.966  0.00  0.00    +0.000 C 
ATOM     29  C   UNL     1       3.999   2.844  18.348  0.00  0.00    +0.000 C 
ENDBRANCH  23  29
ENDBRANCH  22  27
ENDBRANCH   1  22
TORSDOF 5
ENDMDL
