MODEL 1
REMARK VINA RESULT:      -9.3      0.000      0.000
REMARK  Name = 
REMARK  4 active torsions:
REMARK  status: ('A' for Active; 'I' for Inactive)
REMARK    1  A    between atoms: C_1  and  C_2
REMARK    2  A    between atoms: C_7  and  C_8
REMARK    3  A    between atoms: N_10  and  C_11
REMARK    4  A    between atoms: C_15  and  C_16
REMARK                            x       y       z     vdW  Elec       q    Type
REMARK                         _______ _______ _______ _____ _____    ______ ____
ROOT
ATOM      1  C   UNL     1       7.814   7.319  17.933  0.00  0.00    +0.000 C 
ATOM      2  O   UNL     1       8.052   6.417  18.739  0.00  0.00    +0.000 OA
ATOM      3  N   UNL     1       7.163   7.108  16.725  0.00  0.00    +0.000 N 
ATOM      4  H   UNL     1       7.201   7.859  16.044  0.00  0.00    +0.000 HD
ENDROOT
BRANCH   1  11
ATOM      5  C   UNL     1       9.474  14.402  18.225  0.00  0.00    +0.000 C 
ATOM      6  C   UNL     1       9.423  12.953  18.616  0.00  0.00    +0.000 A 
ATOM      7  C   UNL     1      10.075  12.488  19.764  0.00  0.00    +0.000 A 
ATOM      8  C   UNL     1      10.018  11.130  20.117  0.00  0.00    +0.000 A 
ATOM      9  C   UNL     1       9.279  10.327  19.256  0.00  0.00    +0.000 A 
ATOM     10  O   UNL     1       9.043   8.975  19.335  0.00  0.00    +0.000 OA
ATOM     11  C   UNL     1       8.270   8.661  18.243  0.00  0.00    +0.000 A 
ATOM     12  C   UNL     1       8.019   9.797  17.493  0.00  0.00    +0.000 A 
ATOM     13  C   UNL     1       8.660  10.860  18.134  0.00  0.00    +0.000 A 
ATOM     14  N   UNL     1       8.710  12.164  17.784  0.00  0.00    +0.000 NA
ENDBRANCH   1  11
BRANCH   3  15
ATOM     15  C   UNL     1       6.586   5.864  16.339  0.00  0.00    +0.000 A 
ATOM     16  C   UNL     1       7.070   5.129  15.246  0.00  0.00    +0.000 A 
ATOM     17  C   UNL     1       6.493   3.921  14.860  0.00  0.00    +0.000 A 
ATOM     18  C   UNL     1       5.403   3.426  15.558  0.00  0.00    +0.000 A 
ATOM     19  C   UNL     1       4.879   4.148  16.638  0.00  0.00    +0.000 A 
ATOM     20  C   UNL     1       5.501   5.344  17.057  0.00  0.00    +0.000 A 
BRANCH  19  21
ATOM     21  C   UNL     1       3.646   3.667  17.329  0.00  0.00    +0.000 A 
ATOM     22  C   UNL     1       2.650   4.702  17.717  0.00  0.00    +0.000 A 
ATOM     23  C   UNL     1       1.529   4.290  18.313  0.00  0.00    +0.000 A 
ATOM     24  C   UNL     1       1.323   2.859  18.585  0.00  0.00    +0.000 A 
ATOM     25  O   UNL     1       0.294   2.468  19.124  0.00  0.00    +0.000 OA
ATOM     26  N   UNL     1       2.347   2.027  18.212  0.00  0.00    +0.000 N 
ATOM     27  N   UNL     1       3.503   2.401  17.585  0.00  0.00    +0.000 NA
ATOM     28  H   UNL     1       2.228   1.036  18.394  0.00  0.00    +0.000 HD
ENDBRANCH  19  21
ENDBRANCH   3  15
TORSDOF 3
ENDMDL
MODEL 2
REMARK VINA RESULT:      -9.2      1.688      1.982
REMARK  Name = 
REMARK  4 active torsions:
REMARK  status: ('A' for Active; 'I' for Inactive)
REMARK    1  A    between atoms: C_1  and  C_2
REMARK    2  A    between atoms: C_7  and  C_8
REMARK    3  A    between atoms: N_10  and  C_11
REMARK    4  A    between atoms: C_15  and  C_16
REMARK                            x       y       z     vdW  Elec       q    Type
REMARK                         _______ _______ _______ _____ _____    ______ ____
ROOT
ATOM      1  C   UNL     1       7.811   7.908  18.065  0.00  0.00    +0.000 C 
ATOM      2  O   UNL     1       8.344   6.987  18.688  0.00  0.00    +0.000 OA
ATOM      3  N   UNL     1       6.738   7.723  17.203  0.00  0.00    +0.000 N 
ATOM      4  H   UNL     1       6.506   8.491  16.583  0.00  0.00    +0.000 HD
ENDROOT
BRANCH   1  11
ATOM      5  C   UNL     1      11.253  14.051  19.915  0.00  0.00    +0.000 C 
ATOM      6  C   UNL     1      10.325  13.126  19.180  0.00  0.00    +0.000 A 
ATOM      7  C   UNL     1       9.510  13.590  18.142  0.00  0.00    +0.000 A 
ATOM      8  C   UNL     1       8.647  12.713  17.465  0.00  0.00    +0.000 A 
ATOM      9  C   UNL     1       8.683  11.395  17.903  0.00  0.00    +0.000 A 
ATOM     10  O   UNL     1       7.964  10.318  17.442  0.00  0.00    +0.000 OA
ATOM     11  C   UNL     1       8.353   9.246  18.209  0.00  0.00    +0.000 A 
ATOM     12  C   UNL     1       9.305   9.640  19.133  0.00  0.00    +0.000 A 
ATOM     13  C   UNL     1       9.519  11.007  18.942  0.00  0.00    +0.000 A 
ATOM     14  N   UNL     1      10.351  11.843  19.601  0.00  0.00    +0.000 NA
ENDBRANCH   1  11
BRANCH   3  15
ATOM     15  C   UNL     1       6.054   6.483  17.040  0.00  0.00    +0.000 A 
ATOM     16  C   UNL     1       5.995   5.826  15.802  0.00  0.00    +0.000 A 
ATOM     17  C   UNL     1       5.311   4.622  15.641  0.00  0.00    +0.000 A 
ATOM     18  C   UNL     1       4.656   4.054  16.722  0.00  0.00    +0.000 A 
ATOM     19  C   UNL     1       4.673   4.699  17.966  0.00  0.00    +0.000 A 
ATOM     20  C   UNL     1       5.412   5.889  18.135  0.00  0.00    +0.000 A 
BRANCH  19  21
ATOM     21  C   UNL     1       3.888   4.140  19.106  0.00  0.00    +0.000 A 
ATOM     22  C   UNL     1       2.794   4.994  19.646  0.00  0.00    +0.000 A 
ATOM     23  C   UNL     1       2.064   4.502  20.649  0.00  0.00    +0.000 A 
ATOM     24  C   UNL     1       2.365   3.169  21.196  0.00  0.00    +0.000 A 
ATOM     25  O   UNL     1       1.695   2.705  22.111  0.00  0.00    +0.000 OA
ATOM     26  N   UNL     1       3.429   2.518  20.628  0.00  0.00    +0.000 N 
ATOM     27  N   UNL     1       4.194   2.974  19.590  0.00  0.00    +0.000 NA
ATOM     28  H   UNL     1       3.657   1.599  20.992  0.00  0.00    +0.000 HD
ENDBRANCH  19  21
ENDBRANCH   3  15
TORSDOF 3
ENDMDL
MODEL 3
REMARK VINA RESULT:      -9.2      1.179      1.226
REMARK  Name = 
REMARK  4 active torsions:
REMARK  status: ('A' for Active; 'I' for Inactive)
REMARK    1  A    between atoms: C_1  and  C_2
REMARK    2  A    between atoms: C_7  and  C_8
REMARK    3  A    between atoms: N_10  and  C_11
REMARK    4  A    between atoms: C_15  and  C_16
REMARK                            x       y       z     vdW  Elec       q    Type
REMARK                         _______ _______ _______ _____ _____    ______ ____
ROOT
ATOM      1  C   UNL     1       7.834   7.758  18.102  0.00  0.00    +0.000 C 
ATOM      2  O   UNL     1       8.290   6.807  18.740  0.00  0.00    +0.000 OA
ATOM      3  N   UNL     1       6.828   7.626  17.154  0.00  0.00    +0.000 N 
ATOM      4  H   UNL     1       6.668   8.416  16.539  0.00  0.00    +0.000 HD
ENDROOT
BRANCH   1  11
ATOM      5  C   UNL     1       9.993  14.710  17.983  0.00  0.00    +0.000 C 
ATOM      6  C   UNL     1       9.866  13.285  18.440  0.00  0.00    +0.000 A 
ATOM      7  C   UNL     1      10.554  12.821  19.567  0.00  0.00    +0.000 A 
ATOM      8  C   UNL     1      10.425  11.485  19.982  0.00  0.00    +0.000 A 
ATOM      9  C   UNL     1       9.582  10.704  19.203  0.00  0.00    +0.000 A 
ATOM     10  O   UNL     1       9.258   9.377  19.356  0.00  0.00    +0.000 OA
ATOM     11  C   UNL     1       8.399   9.076  18.326  0.00  0.00    +0.000 A 
ATOM     12  C   UNL     1       8.182  10.196  17.542  0.00  0.00    +0.000 A 
ATOM     13  C   UNL     1       8.932  11.234  18.096  0.00  0.00    +0.000 A 
ATOM     14  N   UNL     1       9.050  12.517  17.687  0.00  0.00    +0.000 NA
ENDBRANCH   1  11
BRANCH   3  15
ATOM     15  C   UNL     1       6.127   6.412  16.902  0.00  0.00    +0.000 A 
ATOM     16  C   UNL     1       6.176   5.771  15.656  0.00  0.00    +0.000 A 
ATOM     17  C   UNL     1       5.475   4.592  15.408  0.00  0.00    +0.000 A 
ATOM     18  C   UNL     1       4.694   4.034  16.406  0.00  0.00    +0.000 A 
ATOM     19  C   UNL     1       4.601   4.664  17.654  0.00  0.00    +0.000 A 
ATOM     20  C   UNL     1       5.356   5.827  17.916  0.00  0.00    +0.000 A 
BRANCH  19  21
ATOM     21  C   UNL     1       3.684   4.118  18.699  0.00  0.00    +0.000 A 
ATOM     22  C   UNL     1       2.261   4.549  18.629  0.00  0.00    +0.000 A 
ATOM     23  C   UNL     1       1.419   4.054  19.538  0.00  0.00    +0.000 A 
ATOM     24  C   UNL     1       1.912   3.132  20.574  0.00  0.00    +0.000 A 
ATOM     25  O   UNL     1       1.146   2.664  21.409  0.00  0.00    +0.000 OA
ATOM     26  N   UNL     1       3.256   2.861  20.541  0.00  0.00    +0.000 N 
ATOM     27  N   UNL     1       4.151   3.332  19.620  0.00  0.00    +0.000 NA
ATOM     28  H   UNL     1       3.618   2.232  21.248  0.00  0.00    +0.000 HD
ENDBRANCH  19  21
ENDBRANCH   3  15
TORSDOF 3
ENDMDL
MODEL 4
REMARK VINA RESULT:      -8.7      5.695      7.638
REMARK  Name = 
REMARK  4 active torsions:
REMARK  status: ('A' for Active; 'I' for Inactive)
REMARK    1  A    between atoms: C_1  and  C_2
REMARK    2  A    between atoms: C_7  and  C_8
REMARK    3  A    between atoms: N_10  and  C_11
REMARK    4  A    between atoms: C_15  and  C_16
REMARK                            x       y       z     vdW  Elec       q    Type
REMARK                         _______ _______ _______ _____ _____    ______ ____
ROOT
ATOM      1  C   UNL     1       1.585   7.731  20.306  0.00  0.00    +0.000 C 
ATOM      2  O   UNL     1       2.231   7.850  19.262  0.00  0.00    +0.000 OA
ATOM      3  N   UNL     1       1.462   6.530  20.992  0.00  0.00    +0.000 N 
ATOM      4  H   UNL     1       0.750   6.481  21.711  0.00  0.00    +0.000 HD
ENDROOT
BRANCH   1  11
ATOM      5  C   UNL     1      -1.334  14.240  21.758  0.00  0.00    +0.000 C 
ATOM      6  C   UNL     1      -0.978  12.791  21.925  0.00  0.00    +0.000 A 
ATOM      7  C   UNL     1      -1.404  12.062  23.041  0.00  0.00    +0.000 A 
ATOM      8  C   UNL     1      -1.062  10.707  23.182  0.00  0.00    +0.000 A 
ATOM      9  C   UNL     1      -0.298  10.181  22.149  0.00  0.00    +0.000 A 
ATOM     10  O   UNL     1       0.185   8.902  22.005  0.00  0.00    +0.000 OA
ATOM     11  C   UNL     1       0.887   8.892  20.823  0.00  0.00    +0.000 A 
ATOM     12  C   UNL     1       0.841  10.143  20.231  0.00  0.00    +0.000 A 
ATOM     13  C   UNL     1       0.089  10.966  21.071  0.00  0.00    +0.000 A 
ATOM     14  N   UNL     1      -0.233  12.270  20.926  0.00  0.00    +0.000 NA
ENDBRANCH   1  11
BRANCH   3  15
ATOM     15  C   UNL     1       2.166   5.341  20.645  0.00  0.00    +0.000 A 
ATOM     16  C   UNL     1       1.932   4.122  21.301  0.00  0.00    +0.000 A 
ATOM     17  C   UNL     1       2.635   2.964  20.971  0.00  0.00    +0.000 A 
ATOM     18  C   UNL     1       3.601   3.005  19.979  0.00  0.00    +0.000 A 
ATOM     19  C   UNL     1       3.877   4.212  19.323  0.00  0.00    +0.000 A 
ATOM     20  C   UNL     1       3.126   5.369  19.624  0.00  0.00    +0.000 A 
BRANCH  19  21
ATOM     21  C   UNL     1       4.985   4.281  18.324  0.00  0.00    +0.000 A 
ATOM     22  C   UNL     1       4.590   4.274  16.889  0.00  0.00    +0.000 A 
ATOM     23  C   UNL     1       5.564   4.360  15.979  0.00  0.00    +0.000 A 
ATOM     24  C   UNL     1       6.969   4.437  16.409  0.00  0.00    +0.000 A 
ATOM     25  O   UNL     1       7.870   4.525  15.583  0.00  0.00    +0.000 OA
ATOM     26  N   UNL     1       7.183   4.388  17.763  0.00  0.00    +0.000 N 
ATOM     27  N   UNL     1       6.218   4.317  18.730  0.00  0.00    +0.000 NA
ATOM     28  H   UNL     1       8.144   4.435  18.081  0.00  0.00    +0.000 HD
ENDBRANCH  19  21
ENDBRANCH   3  15
TORSDOF 3
ENDMDL
MODEL 5
REMARK VINA RESULT:      -8.5      5.752      7.952
REMARK  Name = 
REMARK  4 active torsions:
REMARK  status: ('A' for Active; 'I' for Inactive)
REMARK    1  A    between atoms: C_1  and  C_2
REMARK    2  A    between atoms: C_7  and  C_8
REMARK    3  A    between atoms: N_10  and  C_11
REMARK    4  A    between atoms: C_15  and  C_16
REMARK                            x       y       z     vdW  Elec       q    Type
REMARK                         _______ _______ _______ _____ _____    ______ ____
ROOT
ATOM      1  C   UNL     1       1.564   7.694  20.376  0.00  0.00    +0.000 C 
ATOM      2  O   UNL     1       2.409   7.883  19.499  0.00  0.00    +0.000 OA
ATOM      3  N   UNL     1       1.308   6.448  20.932  0.00  0.00    +0.000 N 
ATOM      4  H   UNL     1       0.463   6.353  21.484  0.00  0.00    +0.000 HD
ENDROOT
BRANCH   1  11
ATOM      5  C   UNL     1      -2.280  12.746  23.941  0.00  0.00    +0.000 C 
ATOM      6  C   UNL     1      -1.646  12.012  22.795  0.00  0.00    +0.000 A 
ATOM      7  C   UNL     1      -1.800  12.454  21.476  0.00  0.00    +0.000 A 
ATOM      8  C   UNL     1      -1.200  11.757  20.415  0.00  0.00    +0.000 A 
ATOM      9  C   UNL     1      -0.467  10.636  20.785  0.00  0.00    +0.000 A 
ATOM     10  O   UNL     1       0.226   9.762  19.982  0.00  0.00    +0.000 OA
ATOM     11  C   UNL     1       0.770   8.822  20.825  0.00  0.00    +0.000 A 
ATOM     12  C   UNL     1       0.428   9.104  22.137  0.00  0.00    +0.000 A 
ATOM     13  C   UNL     1      -0.359  10.257  22.116  0.00  0.00    +0.000 A 
ATOM     14  N   UNL     1      -0.932  10.920  23.144  0.00  0.00    +0.000 NA
ENDBRANCH   1  11
BRANCH   3  15
ATOM     15  C   UNL     1       2.073   5.279  20.649  0.00  0.00    +0.000 A 
ATOM     16  C   UNL     1       1.886   4.081  21.355  0.00  0.00    +0.000 A 
ATOM     17  C   UNL     1       2.648   2.945  21.088  0.00  0.00    +0.000 A 
ATOM     18  C   UNL     1       3.627   2.988  20.109  0.00  0.00    +0.000 A 
ATOM     19  C   UNL     1       3.856   4.177  19.403  0.00  0.00    +0.000 A 
ATOM     20  C   UNL     1       3.046   5.308  19.641  0.00  0.00    +0.000 A 
BRANCH  19  21
ATOM     21  C   UNL     1       4.975   4.254  18.417  0.00  0.00    +0.000 A 
ATOM     22  C   UNL     1       4.599   4.226  16.977  0.00  0.00    +0.000 A 
ATOM     23  C   UNL     1       5.582   4.320  16.079  0.00  0.00    +0.000 A 
ATOM     24  C   UNL     1       6.981   4.424  16.526  0.00  0.00    +0.000 A 
ATOM     25  O   UNL     1       7.891   4.519  15.711  0.00  0.00    +0.000 OA
ATOM     26  N   UNL     1       7.178   4.392  17.882  0.00  0.00    +0.000 N 
ATOM     27  N   UNL     1       6.202   4.314  18.838  0.00  0.00    +0.000 NA
ATOM     28  H   UNL     1       8.134   4.459  18.213  0.00  0.00    +0.000 HD
ENDBRANCH  19  21
ENDBRANCH   3  15
TORSDOF 3
ENDMDL
MODEL 6
REMARK VINA RESULT:      -8.4      6.094      7.547
REMARK  Name = 
REMARK  4 active torsions:
REMARK  status: ('A' for Active; 'I' for Inactive)
REMARK    1  A    between atoms: C_1  and  C_2
REMARK    2  A    between atoms: C_7  and  C_8
REMARK    3  A    between atoms: N_10  and  C_11
REMARK    4  A    between atoms: C_15  and  C_16
REMARK                            x       y       z     vdW  Elec       q    Type
REMARK                         _______ _______ _______ _____ _____    ______ ____
ROOT
ATOM      1  C   UNL     1       1.420   8.448  20.047  0.00  0.00    +0.000 C 
ATOM      2  O   UNL     1       1.702   8.401  18.848  0.00  0.00    +0.000 OA
ATOM      3  N   UNL     1       1.464   7.340  20.883  0.00  0.00    +0.000 N 
ATOM      4  H   UNL     1       1.018   7.429  21.790  0.00  0.00    +0.000 HD
ENDROOT
BRANCH   1  11
ATOM      5  C   UNL     1      -1.472  13.968  23.811  0.00  0.00    +0.000 C 
ATOM      6  C   UNL     1      -0.704  13.246  22.742  0.00  0.00    +0.000 A 
ATOM      7  C   UNL     1      -0.067  13.943  21.709  0.00  0.00    +0.000 A 
ATOM      8  C   UNL     1       0.647  13.254  20.716  0.00  0.00    +0.000 A 
ATOM      9  C   UNL     1       0.664  11.871  20.853  0.00  0.00    +0.000 A 
ATOM     10  O   UNL     1       1.272  10.937  20.049  0.00  0.00    +0.000 OA
ATOM     11  C   UNL     1       0.984   9.714  20.606  0.00  0.00    +0.000 A 
ATOM     12  C   UNL     1       0.213   9.876  21.744  0.00  0.00    +0.000 A 
ATOM     13  C   UNL     1       0.007  11.248  21.906  0.00  0.00    +0.000 A 
ATOM     14  N   UNL     1      -0.684  11.901  22.865  0.00  0.00    +0.000 NA
ENDBRANCH   1  11
BRANCH   3  15
ATOM     15  C   UNL     1       1.958   6.064  20.487  0.00  0.00    +0.000 A 
ATOM     16  C   UNL     1       1.416   4.870  20.987  0.00  0.00    +0.000 A 
ATOM     17  C   UNL     1       1.913   3.623  20.611  0.00  0.00    +0.000 A 
ATOM     18  C   UNL     1       2.979   3.546  19.730  0.00  0.00    +0.000 A 
ATOM     19  C   UNL     1       3.561   4.719  19.233  0.00  0.00    +0.000 A 
ATOM     20  C   UNL     1       3.019   5.977  19.576  0.00  0.00    +0.000 A 
BRANCH  19  21
ATOM     21  C   UNL     1       4.771   4.641  18.362  0.00  0.00    +0.000 A 
ATOM     22  C   UNL     1       4.557   4.841  16.902  0.00  0.00    +0.000 A 
ATOM     23  C   UNL     1       5.629   4.800  16.108  0.00  0.00    +0.000 A 
ATOM     24  C   UNL     1       6.960   4.542  16.681  0.00  0.00    +0.000 A 
ATOM     25  O   UNL     1       7.953   4.510  15.963  0.00  0.00    +0.000 OA
ATOM     26  N   UNL     1       6.997   4.331  18.035  0.00  0.00    +0.000 N 
ATOM     27  N   UNL     1       5.929   4.380  18.889  0.00  0.00    +0.000 NA
ATOM     28  H   UNL     1       7.903   4.147  18.451  0.00  0.00    +0.000 HD
ENDBRANCH  19  21
ENDBRANCH   3  15
TORSDOF 3
ENDMDL
MODEL 7
REMARK VINA RESULT:      -8.3      1.911      2.042
REMARK  Name = 
REMARK  4 active torsions:
REMARK  status: ('A' for Active; 'I' for Inactive)
REMARK    1  A    between atoms: C_1  and  C_2
REMARK    2  A    between atoms: C_7  and  C_8
REMARK    3  A    between atoms: N_10  and  C_11
REMARK    4  A    between atoms: C_15  and  C_16
REMARK                            x       y       z     vdW  Elec       q    Type
REMARK                         _______ _______ _______ _____ _____    ______ ____
ROOT
ATOM      1  C   UNL     1       7.728   8.706  17.866  0.00  0.00    +0.000 C 
ATOM      2  O   UNL     1       6.770   8.958  17.133  0.00  0.00    +0.000 OA
ATOM      3  N   UNL     1       7.997   7.435  18.357  0.00  0.00    +0.000 N 
ATOM      4  H   UNL     1       8.672   7.365  19.111  0.00  0.00    +0.000 HD
ENDROOT
BRANCH   1  11
ATOM      5  C   UNL     1      11.755  14.730  18.572  0.00  0.00    +0.000 C 
ATOM      6  C   UNL     1      11.158  13.392  18.901  0.00  0.00    +0.000 A 
ATOM      7  C   UNL     1      11.492  12.718  20.082  0.00  0.00    +0.000 A 
ATOM      8  C   UNL     1      10.924  11.468  20.376  0.00  0.00    +0.000 A 
ATOM      9  C   UNL     1      10.034  10.986  19.425  0.00  0.00    +0.000 A 
ATOM     10  O   UNL     1       9.328   9.807  19.431  0.00  0.00    +0.000 OA
ATOM     11  C   UNL     1       8.599   9.795  18.266  0.00  0.00    +0.000 A 
ATOM     12  C   UNL     1       8.838  10.950  17.541  0.00  0.00    +0.000 A 
ATOM     13  C   UNL     1       9.751  11.711  18.275  0.00  0.00    +0.000 A 
ATOM     14  N   UNL     1      10.292  12.914  17.982  0.00  0.00    +0.000 NA
ENDBRANCH   1  11
BRANCH   3  15
ATOM     15  C   UNL     1       7.280   6.265  17.973  0.00  0.00    +0.000 A 
ATOM     16  C   UNL     1       7.412   5.700  16.696  0.00  0.00    +0.000 A 
ATOM     17  C   UNL     1       6.696   4.566  16.318  0.00  0.00    +0.000 A 
ATOM     18  C   UNL     1       5.817   3.977  17.212  0.00  0.00    +0.000 A 
ATOM     19  C   UNL     1       5.642   4.532  18.487  0.00  0.00    +0.000 A 
ATOM     20  C   UNL     1       6.410   5.649  18.883  0.00  0.00    +0.000 A 
BRANCH  19  21
ATOM     21  C   UNL     1       4.625   3.959  19.417  0.00  0.00    +0.000 A 
ATOM     22  C   UNL     1       3.490   4.845  19.795  0.00  0.00    +0.000 A 
ATOM     23  C   UNL     1       2.556   4.343  20.605  0.00  0.00    +0.000 A 
ATOM     24  C   UNL     1       2.681   2.966  21.110  0.00  0.00    +0.000 A 
ATOM     25  O   UNL     1       1.826   2.492  21.848  0.00  0.00    +0.000 OA
ATOM     26  N   UNL     1       3.803   2.285  20.713  0.00  0.00    +0.000 N 
ATOM     27  N   UNL     1       4.776   2.751  19.872  0.00  0.00    +0.000 NA
ATOM     28  H   UNL     1       3.912   1.335  21.052  0.00  0.00    +0.000 HD
ENDBRANCH  19  21
ENDBRANCH   3  15
TORSDOF 3
ENDMDL
MODEL 8
REMARK VINA RESULT:      -8.3      1.743      2.129
REMARK  Name = 
REMARK  4 active torsions:
REMARK  status: ('A' for Active; 'I' for Inactive)
REMARK    1  A    between atoms: C_1  and  C_2
REMARK    2  A    between atoms: C_7  and  C_8
REMARK    3  A    between atoms: N_10  and  C_11
REMARK    4  A    between atoms: C_15  and  C_16
REMARK                            x       y       z     vdW  Elec       q    Type
REMARK                         _______ _______ _______ _____ _____    ______ ____
ROOT
ATOM      1  C   UNL     1       7.652   7.682  17.835  0.00  0.00    +0.000 C 
ATOM      2  O   UNL     1       8.373   6.708  18.064  0.00  0.00    +0.000 OA
ATOM      3  N   UNL     1       6.363   7.572  17.330  0.00  0.00    +0.000 N 
ATOM      4  H   UNL     1       5.932   8.421  16.980  0.00  0.00    +0.000 HD
ENDROOT
BRANCH   1  11
ATOM      5  C   UNL     1      11.008  13.716  20.143  0.00  0.00    +0.000 C 
ATOM      6  C   UNL     1      10.115  12.831  19.322  0.00  0.00    +0.000 A 
ATOM      7  C   UNL     1       9.350  13.348  18.270  0.00  0.00    +0.000 A 
ATOM      8  C   UNL     1       8.520  12.507  17.510  0.00  0.00    +0.000 A 
ATOM      9  C   UNL     1       8.534  11.169  17.885  0.00  0.00    +0.000 A 
ATOM     10  O   UNL     1       7.836  10.119  17.338  0.00  0.00    +0.000 OA
ATOM     11  C   UNL     1       8.188   9.009  18.070  0.00  0.00    +0.000 A 
ATOM     12  C   UNL     1       9.096   9.355  19.055  0.00  0.00    +0.000 A 
ATOM     13  C   UNL     1       9.319  10.729  18.942  0.00  0.00    +0.000 A 
ATOM     14  N   UNL     1      10.120  11.529  19.680  0.00  0.00    +0.000 NA
ENDBRANCH   1  11
BRANCH   3  15
ATOM     15  C   UNL     1       5.685   6.334  17.141  0.00  0.00    +0.000 A 
ATOM     16  C   UNL     1       5.733   5.640  15.922  0.00  0.00    +0.000 A 
ATOM     17  C   UNL     1       5.054   4.437  15.735  0.00  0.00    +0.000 A 
ATOM     18  C   UNL     1       4.298   3.906  16.767  0.00  0.00    +0.000 A 
ATOM     19  C   UNL     1       4.208   4.587  17.988  0.00  0.00    +0.000 A 
ATOM     20  C   UNL     1       4.941   5.777  18.190  0.00  0.00    +0.000 A 
BRANCH  19  21
ATOM     21  C   UNL     1       3.317   4.068  19.068  0.00  0.00    +0.000 A 
ATOM     22  C   UNL     1       3.880   3.005  19.945  0.00  0.00    +0.000 A 
ATOM     23  C   UNL     1       3.108   2.545  20.932  0.00  0.00    +0.000 A 
ATOM     24  C   UNL     1       1.746   3.073  21.110  0.00  0.00    +0.000 A 
ATOM     25  O   UNL     1       1.032   2.663  22.018  0.00  0.00    +0.000 OA
ATOM     26  N   UNL     1       1.348   4.016  20.198  0.00  0.00    +0.000 N 
ATOM     27  N   UNL     1       2.108   4.529  19.183  0.00  0.00    +0.000 NA
ATOM     28  H   UNL     1       0.411   4.391  20.299  0.00  0.00    +0.000 HD
ENDBRANCH  19  21
ENDBRANCH   3  15
TORSDOF 3
ENDMDL
MODEL 9
REMARK VINA RESULT:      -8.1      5.673      7.498
REMARK  Name = 
REMARK  4 active torsions:
REMARK  status: ('A' for Active; 'I' for Inactive)
REMARK    1  A    between atoms: C_1  and  C_2
REMARK    2  A    between atoms: C_7  and  C_8
REMARK    3  A    between atoms: N_10  and  C_11
REMARK    4  A    between atoms: C_15  and  C_16
REMARK                            x       y       z     vdW  Elec       q    Type
REMARK                         _______ _______ _______ _____ _____    ______ ____
ROOT
ATOM      1  C   UNL     1       1.815   8.222  19.157  0.00  0.00    +0.000 C 
ATOM      2  O   UNL     1       2.090   8.229  17.955  0.00  0.00    +0.000 OA
ATOM      3  N   UNL     1       2.092   7.150  19.994  0.00  0.00    +0.000 N 
ATOM      4  H   UNL     1       1.645   7.149  20.905  0.00  0.00    +0.000 HD
ENDROOT
BRANCH   1  11
ATOM      5  C   UNL     1      -1.279  13.390  23.247  0.00  0.00    +0.000 C 
ATOM      6  C   UNL     1      -0.850  12.637  22.020  0.00  0.00    +0.000 A 
ATOM      7  C   UNL     1      -1.189  13.086  20.738  0.00  0.00    +0.000 A 
ATOM      8  C   UNL     1      -0.781  12.371  19.600  0.00  0.00    +0.000 A 
ATOM      9  C   UNL     1      -0.036  11.227  19.858  0.00  0.00    +0.000 A 
ATOM     10  O   UNL     1       0.499  10.332  18.962  0.00  0.00    +0.000 OA
ATOM     11  C   UNL     1       1.134   9.375  19.717  0.00  0.00    +0.000 A 
ATOM     12  C   UNL     1       1.006   9.665  21.064  0.00  0.00    +0.000 A 
ATOM     13  C   UNL     1       0.262  10.843  21.159  0.00  0.00    +0.000 A 
ATOM     14  N   UNL     1      -0.127  11.523  22.260  0.00  0.00    +0.000 NA
ENDBRANCH   1  11
BRANCH   3  15
ATOM     15  C   UNL     1       2.833   6.000  19.596  0.00  0.00    +0.000 A 
ATOM     16  C   UNL     1       2.770   4.793  20.309  0.00  0.00    +0.000 A 
ATOM     17  C   UNL     1       3.509   3.676  19.927  0.00  0.00    +0.000 A 
ATOM     18  C   UNL     1       4.343   3.747  18.823  0.00  0.00    +0.000 A 
ATOM     19  C   UNL     1       4.449   4.946  18.105  0.00  0.00    +0.000 A 
ATOM     20  C   UNL     1       3.657   6.058  18.464  0.00  0.00    +0.000 A 
BRANCH  19  21
ATOM     21  C   UNL     1       5.419   5.055  16.975  0.00  0.00    +0.000 A 
ATOM     22  C   UNL     1       5.167   4.187  15.792  0.00  0.00    +0.000 A 
ATOM     23  C   UNL     1       6.008   4.287  14.760  0.00  0.00    +0.000 A 
ATOM     24  C   UNL     1       7.148   5.216  14.827  0.00  0.00    +0.000 A 
ATOM     25  O   UNL     1       7.921   5.322  13.883  0.00  0.00    +0.000 OA
ATOM     26  N   UNL     1       7.279   5.916  15.998  0.00  0.00    +0.000 N 
ATOM     27  N   UNL     1       6.435   5.859  17.072  0.00  0.00    +0.000 NA
ATOM     28  H   UNL     1       8.061   6.559  16.068  0.00  0.00    +0.000 HD
ENDBRANCH  19  21
ENDBRANCH   3  15
TORSDOF 3
ENDMDL
