MODEL 1
REMARK VINA RESULT:      -9.8      0.000      0.000
REMARK  Name = 
REMARK  4 active torsions:
REMARK  status: ('A' for Active; 'I' for Inactive)
REMARK    1  A    between atoms: C_1  and  C_2
REMARK    2  A    between atoms: C_9  and  S_10
REMARK    3  A    between atoms: S_10  and  N_13
REMARK    4  A    between atoms: C_15  and  C_16
REMARK                            x       y       z     vdW  Elec       q    Type
REMARK                         _______ _______ _______ _____ _____    ______ ____
ROOT
ATOM      1  S   UNL     1       4.346   4.094  18.369  0.00  0.00    +0.000 S 
ATOM      2  O   UNL     1       4.785   3.393  19.558  0.00  0.00    +0.000 OA
ATOM      3  O   UNL     1       3.504   3.416  17.403  0.00  0.00    +0.000 OA
ENDROOT
BRANCH   1  12
ATOM      4  C   UNL     1      -0.062   8.512  21.970  0.00  0.00    +0.000 C 
ATOM      5  C   UNL     1       0.242   9.357  20.767  0.00  0.00    +0.000 C 
ATOM      6  O   UNL     1      -0.278  10.474  20.673  0.00  0.00    +0.000 OA
ATOM      7  N   UNL     1       1.094   8.882  19.793  0.00  0.00    +0.000 N 
ATOM      8  C   UNL     1       1.417   9.751  18.651  0.00  0.00    +0.000 C 
ATOM      9  C   UNL     1       2.220   8.923  17.652  0.00  0.00    +0.000 C 
ATOM     10  C   UNL     1       2.517   7.692  18.450  0.00  0.00    +0.000 A 
ATOM     11  C   UNL     1       3.314   6.626  18.048  0.00  0.00    +0.000 A 
ATOM     12  C   UNL     1       3.429   5.530  18.908  0.00  0.00    +0.000 A 
ATOM     13  C   UNL     1       2.727   5.500  20.121  0.00  0.00    +0.000 A 
ATOM     14  C   UNL     1       1.924   6.585  20.505  0.00  0.00    +0.000 A 
ATOM     15  C   UNL     1       1.824   7.684  19.666  0.00  0.00    +0.000 A 
ENDBRANCH   1  12
BRANCH   1  16
ATOM     16  N   UNL     1       5.647   4.758  17.534  0.00  0.00    +0.000 N 
ATOM     17  C   UNL     1       6.704   5.437  18.318  0.00  0.00    +0.000 C 
ATOM     18  C   UNL     1       7.103   6.683  17.526  0.00  0.00    +0.000 C 
ATOM     19  C   UNL     1       8.122   7.519  18.288  0.00  0.00    +0.000 C 
ATOM     20  O   UNL     1       7.691   6.317  16.268  0.00  0.00    +0.000 OA
ATOM     21  C   UNL     1       6.980   5.361  15.575  0.00  0.00    +0.000 A 
ATOM     22  C   UNL     1       7.335   5.242  14.228  0.00  0.00    +0.000 A 
ATOM     23  C   UNL     1       6.689   4.307  13.438  0.00  0.00    +0.000 A 
ATOM     24  F   UNL     1       7.005   4.202  12.142  0.00  0.00    +0.000 F 
ATOM     25  C   UNL     1       5.711   3.479  13.974  0.00  0.00    +0.000 A 
ATOM     26  C   UNL     1       5.363   3.590  15.327  0.00  0.00    +0.000 A 
ATOM     27  C   UNL     1       5.986   4.532  16.150  0.00  0.00    +0.000 A 
ENDBRANCH   1  16
TORSDOF 2
ENDMDL
MODEL 2
REMARK VINA RESULT:      -9.1      0.655      1.738
REMARK  Name = 
REMARK  4 active torsions:
REMARK  status: ('A' for Active; 'I' for Inactive)
REMARK    1  A    between atoms: C_1  and  C_2
REMARK    2  A    between atoms: C_9  and  S_10
REMARK    3  A    between atoms: S_10  and  N_13
REMARK    4  A    between atoms: C_15  and  C_16
REMARK                            x       y       z     vdW  Elec       q    Type
REMARK                         _______ _______ _______ _____ _____    ______ ____
ROOT
ATOM      1  S   UNL     1       4.069   4.348  18.208  0.00  0.00    +0.000 S 
ATOM      2  O   UNL     1       4.372   3.713  19.474  0.00  0.00    +0.000 OA
ATOM      3  O   UNL     1       3.282   3.641  17.217  0.00  0.00    +0.000 OA
ENDROOT
BRANCH   1  12
ATOM      4  C   UNL     1       1.705  11.155  18.128  0.00  0.00    +0.000 C 
ATOM      5  C   UNL     1       1.073  10.666  19.399  0.00  0.00    +0.000 C 
ATOM      6  O   UNL     1       0.388  11.447  20.066  0.00  0.00    +0.000 OA
ATOM      7  N   UNL     1       1.261   9.360  19.799  0.00  0.00    +0.000 N 
ATOM      8  C   UNL     1       0.588   8.892  21.021  0.00  0.00    +0.000 C 
ATOM      9  C   UNL     1       1.106   7.488  21.325  0.00  0.00    +0.000 C 
ATOM     10  C   UNL     1       1.858   7.165  20.072  0.00  0.00    +0.000 A 
ATOM     11  C   UNL     1       2.465   5.952  19.768  0.00  0.00    +0.000 A 
ATOM     12  C   UNL     1       3.177   5.854  18.570  0.00  0.00    +0.000 A 
ATOM     13  C   UNL     1       3.302   6.964  17.723  0.00  0.00    +0.000 A 
ATOM     14  C   UNL     1       2.685   8.182  18.051  0.00  0.00    +0.000 A 
ATOM     15  C   UNL     1       1.959   8.278  19.228  0.00  0.00    +0.000 A 
ENDBRANCH   1  12
BRANCH   1  16
ATOM     16  N   UNL     1       5.465   4.900  17.450  0.00  0.00    +0.000 N 
ATOM     17  C   UNL     1       6.530   5.489  18.294  0.00  0.00    +0.000 C 
ATOM     18  C   UNL     1       7.076   6.697  17.530  0.00  0.00    +0.000 C 
ATOM     19  C   UNL     1       8.117   7.445  18.351  0.00  0.00    +0.000 C 
ATOM     20  O   UNL     1       7.701   6.282  16.306  0.00  0.00    +0.000 OA
ATOM     21  C   UNL     1       6.952   5.387  15.570  0.00  0.00    +0.000 A 
ATOM     22  C   UNL     1       7.371   5.238  14.245  0.00  0.00    +0.000 A 
ATOM     23  C   UNL     1       6.694   4.359  13.417  0.00  0.00    +0.000 A 
ATOM     24  F   UNL     1       7.073   4.227  12.140  0.00  0.00    +0.000 F 
ATOM     25  C   UNL     1       5.622   3.617  13.894  0.00  0.00    +0.000 A 
ATOM     26  C   UNL     1       5.209   3.758  15.226  0.00  0.00    +0.000 A 
ATOM     27  C   UNL     1       5.861   4.645  16.085  0.00  0.00    +0.000 A 
ENDBRANCH   1  16
TORSDOF 2
ENDMDL
MODEL 3
REMARK VINA RESULT:      -8.2      2.048      3.186
REMARK  Name = 
REMARK  4 active torsions:
REMARK  status: ('A' for Active; 'I' for Inactive)
REMARK    1  A    between atoms: C_1  and  C_2
REMARK    2  A    between atoms: C_9  and  S_10
REMARK    3  A    between atoms: S_10  and  N_13
REMARK    4  A    between atoms: C_15  and  C_16
REMARK                            x       y       z     vdW  Elec       q    Type
REMARK                         _______ _______ _______ _____ _____    ______ ____
ROOT
ATOM      1  S   UNL     1       2.794   4.126  17.998  0.00  0.00    +0.000 S 
ATOM      2  O   UNL     1       2.862   3.145  19.061  0.00  0.00    +0.000 OA
ATOM      3  O   UNL     1       1.840   3.956  16.920  0.00  0.00    +0.000 OA
ENDROOT
BRANCH   1  12
ATOM      4  C   UNL     1       0.634   9.227  22.606  0.00  0.00    +0.000 C 
ATOM      5  C   UNL     1       0.823  10.050  21.364  0.00  0.00    +0.000 C 
ATOM      6  O   UNL     1       0.583  11.260  21.405  0.00  0.00    +0.000 OA
ATOM      7  N   UNL     1       1.264   9.448  20.204  0.00  0.00    +0.000 N 
ATOM      8  C   UNL     1       1.492  10.285  19.016  0.00  0.00    +0.000 C 
ATOM      9  C   UNL     1       1.795   9.354  17.845  0.00  0.00    +0.000 C 
ATOM     10  C   UNL     1       1.974   8.041  18.541  0.00  0.00    +0.000 A 
ATOM     11  C   UNL     1       2.361   6.845  17.950  0.00  0.00    +0.000 A 
ATOM     12  C   UNL     1       2.418   5.701  18.752  0.00  0.00    +0.000 A 
ATOM     13  C   UNL     1       2.055   5.763  20.106  0.00  0.00    +0.000 A 
ATOM     14  C   UNL     1       1.662   6.981  20.682  0.00  0.00    +0.000 A 
ATOM     15  C   UNL     1       1.626   8.122  19.895  0.00  0.00    +0.000 A 
ENDBRANCH   1  12
BRANCH   1  16
ATOM     16  N   UNL     1       4.305   4.382  17.304  0.00  0.00    +0.000 N 
ATOM     17  C   UNL     1       4.383   4.503  15.830  0.00  0.00    +0.000 C 
ATOM     18  C   UNL     1       5.640   3.748  15.395  0.00  0.00    +0.000 C 
ATOM     19  C   UNL     1       5.772   3.721  13.879  0.00  0.00    +0.000 C 
ATOM     20  O   UNL     1       6.818   4.378  15.925  0.00  0.00    +0.000 OA
ATOM     21  C   UNL     1       6.731   4.690  17.265  0.00  0.00    +0.000 A 
ATOM     22  C   UNL     1       7.957   4.980  17.870  0.00  0.00    +0.000 A 
ATOM     23  C   UNL     1       7.987   5.313  19.214  0.00  0.00    +0.000 A 
ATOM     24  F   UNL     1       9.158   5.570  19.807  0.00  0.00    +0.000 F 
ATOM     25  C   UNL     1       6.814   5.379  19.954  0.00  0.00    +0.000 A 
ATOM     26  C   UNL     1       5.583   5.099  19.346  0.00  0.00    +0.000 A 
ATOM     27  C   UNL     1       5.519   4.747  17.995  0.00  0.00    +0.000 A 
ENDBRANCH   1  16
TORSDOF 2
ENDMDL
MODEL 4
REMARK VINA RESULT:      -8.1      4.927      9.594
REMARK  Name = 
REMARK  4 active torsions:
REMARK  status: ('A' for Active; 'I' for Inactive)
REMARK    1  A    between atoms: C_1  and  C_2
REMARK    2  A    between atoms: C_9  and  S_10
REMARK    3  A    between atoms: S_10  and  N_13
REMARK    4  A    between atoms: C_15  and  C_16
REMARK                            x       y       z     vdW  Elec       q    Type
REMARK                         _______ _______ _______ _____ _____    ______ ____
ROOT
ATOM      1  S   UNL     1       0.662  11.400  19.494  0.00  0.00    +0.000 S 
ATOM      2  O   UNL     1       0.764  11.831  20.872  0.00  0.00    +0.000 OA
ATOM      3  O   UNL     1       1.398  12.105  18.462  0.00  0.00    +0.000 OA
ENDROOT
BRANCH   1  12
ATOM      4  C   UNL     1       2.271   4.596  21.235  0.00  0.00    +0.000 C 
ATOM      5  C   UNL     1       2.955   4.701  19.902  0.00  0.00    +0.000 C 
ATOM      6  O   UNL     1       3.572   3.724  19.467  0.00  0.00    +0.000 OA
ATOM      7  N   UNL     1       2.882   5.877  19.185  0.00  0.00    +0.000 N 
ATOM      8  C   UNL     1       3.516   5.937  17.859  0.00  0.00    +0.000 C 
ATOM      9  C   UNL     1       3.442   7.383  17.376  0.00  0.00    +0.000 C 
ATOM     10  C   UNL     1       2.516   7.991  18.382  0.00  0.00    +0.000 A 
ATOM     11  C   UNL     1       2.022   9.290  18.364  0.00  0.00    +0.000 A 
ATOM     12  C   UNL     1       1.212   9.702  19.426  0.00  0.00    +0.000 A 
ATOM     13  C   UNL     1       0.941   8.833  20.493  0.00  0.00    +0.000 A 
ATOM     14  C   UNL     1       1.453   7.526  20.494  0.00  0.00    +0.000 A 
ATOM     15  C   UNL     1       2.240   7.106  19.432  0.00  0.00    +0.000 A 
ENDBRANCH   1  12
BRANCH   1  16
ATOM     16  N   UNL     1      -0.943  11.306  18.999  0.00  0.00    +0.000 N 
ATOM     17  C   UNL     1      -1.277  10.383  17.890  0.00  0.00    +0.000 C 
ATOM     18  C   UNL     1      -2.300  11.107  17.013  0.00  0.00    +0.000 C 
ATOM     19  C   UNL     1      -2.646  10.287  15.777  0.00  0.00    +0.000 C 
ATOM     20  O   UNL     1      -3.517  11.337  17.739  0.00  0.00    +0.000 OA
ATOM     21  C   UNL     1      -3.326  11.858  19.002  0.00  0.00    +0.000 A 
ATOM     22  C   UNL     1      -4.475  12.401  19.582  0.00  0.00    +0.000 A 
ATOM     23  C   UNL     1      -4.399  12.946  20.852  0.00  0.00    +0.000 A 
ATOM     24  F   UNL     1      -5.489  13.489  21.407  0.00  0.00    +0.000 F 
ATOM     25  C   UNL     1      -3.202  12.941  21.556  0.00  0.00    +0.000 A 
ATOM     26  C   UNL     1      -2.052  12.386  20.979  0.00  0.00    +0.000 A 
ATOM     27  C   UNL     1      -2.090  11.839  19.694  0.00  0.00    +0.000 A 
ENDBRANCH   1  16
TORSDOF 2
ENDMDL
MODEL 5
REMARK VINA RESULT:      -7.8      3.839      8.480
REMARK  Name = 
REMARK  4 active torsions:
REMARK  status: ('A' for Active; 'I' for Inactive)
REMARK    1  A    between atoms: C_1  and  C_2
REMARK    2  A    between atoms: C_9  and  S_10
REMARK    3  A    between atoms: S_10  and  N_13
REMARK    4  A    between atoms: C_15  and  C_16
REMARK                            x       y       z     vdW  Elec       q    Type
REMARK                         _______ _______ _______ _____ _____    ______ ____
ROOT
ATOM      1  S   UNL     1       0.366   9.046  21.237  0.00  0.00    +0.000 S 
ATOM      2  O   UNL     1      -0.714   8.186  21.673  0.00  0.00    +0.000 OA
ATOM      3  O   UNL     1       1.163   9.756  22.219  0.00  0.00    +0.000 OA
ENDROOT
BRANCH   1  12
ATOM      4  C   UNL     1       4.712   6.517  16.077  0.00  0.00    +0.000 C 
ATOM      5  C   UNL     1       4.630   5.314  16.972  0.00  0.00    +0.000 C 
ATOM      6  O   UNL     1       5.238   4.287  16.654  0.00  0.00    +0.000 OA
ATOM      7  N   UNL     1       3.884   5.372  18.131  0.00  0.00    +0.000 N 
ATOM      8  C   UNL     1       3.862   4.197  19.016  0.00  0.00    +0.000 C 
ATOM      9  C   UNL     1       2.833   4.464  20.112  0.00  0.00    +0.000 C 
ATOM     10  C   UNL     1       2.535   5.915  19.901  0.00  0.00    +0.000 A 
ATOM     11  C   UNL     1       1.716   6.709  20.695  0.00  0.00    +0.000 A 
ATOM     12  C   UNL     1       1.507   8.035  20.306  0.00  0.00    +0.000 A 
ATOM     13  C   UNL     1       2.081   8.530  19.126  0.00  0.00    +0.000 A 
ATOM     14  C   UNL     1       2.901   7.709  18.336  0.00  0.00    +0.000 A 
ATOM     15  C   UNL     1       3.129   6.400  18.729  0.00  0.00    +0.000 A 
ENDBRANCH   1  12
BRANCH   1  16
ATOM     16  N   UNL     1      -0.167  10.170  20.104  0.00  0.00    +0.000 N 
ATOM     17  C   UNL     1      -1.433   9.890  19.387  0.00  0.00    +0.000 C 
ATOM     18  C   UNL     1      -1.214  10.315  17.934  0.00  0.00    +0.000 C 
ATOM     19  C   UNL     1      -2.425   9.981  17.074  0.00  0.00    +0.000 C 
ATOM     20  O   UNL     1      -0.995  11.732  17.848  0.00  0.00    +0.000 OA
ATOM     21  C   UNL     1      -0.083  12.214  18.764  0.00  0.00    +0.000 A 
ATOM     22  C   UNL     1       0.395  13.496  18.481  0.00  0.00    +0.000 A 
ATOM     23  C   UNL     1       1.311  14.081  19.338  0.00  0.00    +0.000 A 
ATOM     24  F   UNL     1       1.793  15.299  19.064  0.00  0.00    +0.000 F 
ATOM     25  C   UNL     1       1.742  13.415  20.478  0.00  0.00    +0.000 A 
ATOM     26  C   UNL     1       1.254  12.134  20.769  0.00  0.00    +0.000 A 
ATOM     27  C   UNL     1       0.338  11.509  19.918  0.00  0.00    +0.000 A 
ENDBRANCH   1  16
TORSDOF 2
ENDMDL
MODEL 6
REMARK VINA RESULT:      -7.6      3.736      8.198
REMARK  Name = 
REMARK  4 active torsions:
REMARK  status: ('A' for Active; 'I' for Inactive)
REMARK    1  A    between atoms: C_1  and  C_2
REMARK    2  A    between atoms: C_9  and  S_10
REMARK    3  A    between atoms: S_10  and  N_13
REMARK    4  A    between atoms: C_15  and  C_16
REMARK                            x       y       z     vdW  Elec       q    Type
REMARK                         _______ _______ _______ _____ _____    ______ ____
ROOT
ATOM      1  S   UNL     1       0.449   9.057  21.475  0.00  0.00    +0.000 S 
ATOM      2  O   UNL     1      -0.819   8.370  21.597  0.00  0.00    +0.000 OA
ATOM      3  O   UNL     1       1.209   9.386  22.666  0.00  0.00    +0.000 OA
ENDROOT
BRANCH   1  12
ATOM      4  C   UNL     1       4.628   6.587  16.150  0.00  0.00    +0.000 C 
ATOM      5  C   UNL     1       4.441   5.330  16.950  0.00  0.00    +0.000 C 
ATOM      6  O   UNL     1       4.968   4.285  16.556  0.00  0.00    +0.000 OA
ATOM      7  N   UNL     1       3.692   5.359  18.107  0.00  0.00    +0.000 N 
ATOM      8  C   UNL     1       3.567   4.126  18.900  0.00  0.00    +0.000 C 
ATOM      9  C   UNL     1       2.552   4.390  20.009  0.00  0.00    +0.000 C 
ATOM     10  C   UNL     1       2.373   5.873  19.909  0.00  0.00    +0.000 A 
ATOM     11  C   UNL     1       1.614   6.667  20.759  0.00  0.00    +0.000 A 
ATOM     12  C   UNL     1       1.515   8.032  20.473  0.00  0.00    +0.000 A 
ATOM     13  C   UNL     1       2.138   8.568  19.336  0.00  0.00    +0.000 A 
ATOM     14  C   UNL     1       2.897   7.746  18.488  0.00  0.00    +0.000 A 
ATOM     15  C   UNL     1       3.016   6.396  18.780  0.00  0.00    +0.000 A 
ENDBRANCH   1  12
BRANCH   1  16
ATOM     16  N   UNL     1       0.298  10.463  20.564  0.00  0.00    +0.000 N 
ATOM     17  C   UNL     1       1.289  11.543  20.780  0.00  0.00    +0.000 C 
ATOM     18  C   UNL     1       0.514  12.861  20.739  0.00  0.00    +0.000 C 
ATOM     19  C   UNL     1       1.421  14.045  21.048  0.00  0.00    +0.000 C 
ATOM     20  O   UNL     1      -0.053  13.075  19.437  0.00  0.00    +0.000 OA
ATOM     21  C   UNL     1      -0.704  11.973  18.922  0.00  0.00    +0.000 A 
ATOM     22  C   UNL     1      -1.540  12.252  17.837  0.00  0.00    +0.000 A 
ATOM     23  C   UNL     1      -2.238  11.218  17.238  0.00  0.00    +0.000 A 
ATOM     24  F   UNL     1      -3.059  11.479  16.213  0.00  0.00    +0.000 F 
ATOM     25  C   UNL     1      -2.101   9.913  17.691  0.00  0.00    +0.000 A 
ATOM     26  C   UNL     1      -1.254   9.631  18.771  0.00  0.00    +0.000 A 
ATOM     27  C   UNL     1      -0.545  10.652  19.408  0.00  0.00    +0.000 A 
ENDBRANCH   1  16
TORSDOF 2
ENDMDL
MODEL 7
REMARK VINA RESULT:      -7.6      5.134      9.881
REMARK  Name = 
REMARK  4 active torsions:
REMARK  status: ('A' for Active; 'I' for Inactive)
REMARK    1  A    between atoms: C_1  and  C_2
REMARK    2  A    between atoms: C_9  and  S_10
REMARK    3  A    between atoms: S_10  and  N_13
REMARK    4  A    between atoms: C_15  and  C_16
REMARK                            x       y       z     vdW  Elec       q    Type
REMARK                         _______ _______ _______ _____ _____    ______ ____
ROOT
ATOM      1  S   UNL     1       0.178  11.889  19.205  0.00  0.00    +0.000 S 
ATOM      2  O   UNL     1       0.141  12.305  20.591  0.00  0.00    +0.000 OA
ATOM      3  O   UNL     1       0.791  12.748  18.211  0.00  0.00    +0.000 OA
ENDROOT
BRANCH   1  12
ATOM      4  C   UNL     1       4.120   6.286  16.972  0.00  0.00    +0.000 C 
ATOM      5  C   UNL     1       3.587   5.741  18.265  0.00  0.00    +0.000 C 
ATOM      6  O   UNL     1       3.895   4.594  18.604  0.00  0.00    +0.000 OA
ATOM      7  N   UNL     1       2.769   6.523  19.054  0.00  0.00    +0.000 N 
ATOM      8  C   UNL     1       2.303   5.985  20.340  0.00  0.00    +0.000 C 
ATOM      9  C   UNL     1       1.285   6.969  20.912  0.00  0.00    +0.000 C 
ATOM     10  C   UNL     1       1.455   8.143  20.001  0.00  0.00    +0.000 A 
ATOM     11  C   UNL     1       0.827   9.376  20.125  0.00  0.00    +0.000 A 
ATOM     12  C   UNL     1       1.064  10.339  19.139  0.00  0.00    +0.000 A 
ATOM     13  C   UNL     1       1.885  10.046  18.041  0.00  0.00    +0.000 A 
ATOM     14  C   UNL     1       2.507   8.792  17.933  0.00  0.00    +0.000 A 
ATOM     15  C   UNL     1       2.292   7.841  18.919  0.00  0.00    +0.000 A 
ENDBRANCH   1  12
BRANCH   1  16
ATOM     16  N   UNL     1      -1.356  11.480  18.648  0.00  0.00    +0.000 N 
ATOM     17  C   UNL     1      -1.466  10.397  17.643  0.00  0.00    +0.000 C 
ATOM     18  C   UNL     1      -2.528  10.842  16.636  0.00  0.00    +0.000 C 
ATOM     19  C   UNL     1      -2.658   9.844  15.494  0.00  0.00    +0.000 C 
ATOM     20  O   UNL     1      -3.812  10.952  17.269  0.00  0.00    +0.000 OA
ATOM     21  C   UNL     1      -3.790  11.634  18.467  0.00  0.00    +0.000 A 
ATOM     22  C   UNL     1      -5.047  12.044  18.920  0.00  0.00    +0.000 A 
ATOM     23  C   UNL     1      -5.142  12.733  20.117  0.00  0.00    +0.000 A 
ATOM     24  F   UNL     1      -6.339  13.151  20.548  0.00  0.00    +0.000 F 
ATOM     25  C   UNL     1      -4.010  13.001  20.874  0.00  0.00    +0.000 A 
ATOM     26  C   UNL     1      -2.751  12.580  20.426  0.00  0.00    +0.000 A 
ATOM     27  C   UNL     1      -2.617  11.894  19.216  0.00  0.00    +0.000 A 
ENDBRANCH   1  16
TORSDOF 2
ENDMDL
MODEL 8
REMARK VINA RESULT:      -7.6      4.085      8.329
REMARK  Name = 
REMARK  4 active torsions:
REMARK  status: ('A' for Active; 'I' for Inactive)
REMARK    1  A    between atoms: C_1  and  C_2
REMARK    2  A    between atoms: C_9  and  S_10
REMARK    3  A    between atoms: S_10  and  N_13
REMARK    4  A    between atoms: C_15  and  C_16
REMARK                            x       y       z     vdW  Elec       q    Type
REMARK                         _______ _______ _______ _____ _____    ______ ____
ROOT
ATOM      1  S   UNL     1       0.508   9.289  21.507  0.00  0.00    +0.000 S 
ATOM      2  O   UNL     1      -0.619   8.734  22.228  0.00  0.00    +0.000 OA
ATOM      3  O   UNL     1       1.577   9.946  22.235  0.00  0.00    +0.000 OA
ENDROOT
BRANCH   1  12
ATOM      4  C   UNL     1       3.192   2.866  19.649  0.00  0.00    +0.000 C 
ATOM      5  C   UNL     1       3.711   3.710  18.521  0.00  0.00    +0.000 C 
ATOM      6  O   UNL     1       4.405   3.181  17.647  0.00  0.00    +0.000 OA
ATOM      7  N   UNL     1       3.405   5.054  18.474  0.00  0.00    +0.000 N 
ATOM      8  C   UNL     1       3.882   5.848  17.331  0.00  0.00    +0.000 C 
ATOM      9  C   UNL     1       3.563   7.313  17.620  0.00  0.00    +0.000 C 
ATOM     10  C   UNL     1       2.675   7.198  18.820  0.00  0.00    +0.000 A 
ATOM     11  C   UNL     1       2.013   8.242  19.453  0.00  0.00    +0.000 A 
ATOM     12  C   UNL     1       1.271   7.952  20.602  0.00  0.00    +0.000 A 
ATOM     13  C   UNL     1       1.233   6.646  21.113  0.00  0.00    +0.000 A 
ATOM     14  C   UNL     1       1.914   5.607  20.460  0.00  0.00    +0.000 A 
ATOM     15  C   UNL     1       2.633   5.886  19.308  0.00  0.00    +0.000 A 
ENDBRANCH   1  12
BRANCH   1  16
ATOM     16  N   UNL     1       0.001  10.338  20.293  0.00  0.00    +0.000 N 
ATOM     17  C   UNL     1      -1.245  10.007  19.563  0.00  0.00    +0.000 C 
ATOM     18  C   UNL     1      -0.990  10.341  18.092  0.00  0.00    +0.000 C 
ATOM     19  C   UNL     1      -2.177   9.948  17.223  0.00  0.00    +0.000 C 
ATOM     20  O   UNL     1      -0.773  11.751  17.923  0.00  0.00    +0.000 OA
ATOM     21  C   UNL     1       0.113  12.293  18.829  0.00  0.00    +0.000 A 
ATOM     22  C   UNL     1       0.594  13.558  18.479  0.00  0.00    +0.000 A 
ATOM     23  C   UNL     1       1.486  14.199  19.321  0.00  0.00    +0.000 A 
ATOM     24  F   UNL     1       1.971  15.401  18.982  0.00  0.00    +0.000 F 
ATOM     25  C   UNL     1       1.889  13.609  20.511  0.00  0.00    +0.000 A 
ATOM     26  C   UNL     1       1.398  12.346  20.868  0.00  0.00    +0.000 A 
ATOM     27  C   UNL     1       0.507  11.665  20.035  0.00  0.00    +0.000 A 
ENDBRANCH   1  16
TORSDOF 2
ENDMDL
MODEL 9
REMARK VINA RESULT:      -7.5      3.922      7.995
REMARK  Name = 
REMARK  4 active torsions:
REMARK  status: ('A' for Active; 'I' for Inactive)
REMARK    1  A    between atoms: C_1  and  C_2
REMARK    2  A    between atoms: C_9  and  S_10
REMARK    3  A    between atoms: S_10  and  N_13
REMARK    4  A    between atoms: C_15  and  C_16
REMARK                            x       y       z     vdW  Elec       q    Type
REMARK                         _______ _______ _______ _____ _____    ______ ____
ROOT
ATOM      1  S   UNL     1       0.554   9.176  21.582  0.00  0.00    +0.000 S 
ATOM      2  O   UNL     1      -0.769   8.685  21.906  0.00  0.00    +0.000 OA
ATOM      3  O   UNL     1       1.485   9.494  22.648  0.00  0.00    +0.000 OA
ENDROOT
BRANCH   1  12
ATOM      4  C   UNL     1       3.470   3.006  19.270  0.00  0.00    +0.000 C 
ATOM      5  C   UNL     1       3.923   3.940  18.186  0.00  0.00    +0.000 C 
ATOM      6  O   UNL     1       4.618   3.498  17.265  0.00  0.00    +0.000 OA
ATOM      7  N   UNL     1       3.558   5.269  18.229  0.00  0.00    +0.000 N 
ATOM      8  C   UNL     1       3.971   6.152  17.127  0.00  0.00    +0.000 C 
ATOM      9  C   UNL     1       3.596   7.581  17.514  0.00  0.00    +0.000 C 
ATOM     10  C   UNL     1       2.744   7.353  18.723  0.00  0.00    +0.000 A 
ATOM     11  C   UNL     1       2.052   8.325  19.435  0.00  0.00    +0.000 A 
ATOM     12  C   UNL     1       1.352   7.932  20.579  0.00  0.00    +0.000 A 
ATOM     13  C   UNL     1       1.385   6.598  21.009  0.00  0.00    +0.000 A 
ATOM     14  C   UNL     1       2.094   5.632  20.278  0.00  0.00    +0.000 A 
ATOM     15  C   UNL     1       2.771   6.013  19.130  0.00  0.00    +0.000 A 
ENDBRANCH   1  12
BRANCH   1  16
ATOM     16  N   UNL     1       0.479  10.508  20.557  0.00  0.00    +0.000 N 
ATOM     17  C   UNL     1       1.589  11.488  20.606  0.00  0.00    +0.000 C 
ATOM     18  C   UNL     1       0.952  12.875  20.496  0.00  0.00    +0.000 C 
ATOM     19  C   UNL     1       1.996  13.974  20.634  0.00  0.00    +0.000 C 
ATOM     20  O   UNL     1       0.312  13.038  19.221  0.00  0.00    +0.000 OA
ATOM     21  C   UNL     1      -0.486  11.975  18.854  0.00  0.00    +0.000 A 
ATOM     22  C   UNL     1      -1.369  12.250  17.807  0.00  0.00    +0.000 A 
ATOM     23  C   UNL     1      -2.213  11.251  17.353  0.00  0.00    +0.000 A 
ATOM     24  F   UNL     1      -3.079  11.512  16.366  0.00  0.00    +0.000 F 
ATOM     25  C   UNL     1      -2.176   9.982  17.914  0.00  0.00    +0.000 A 
ATOM     26  C   UNL     1      -1.283   9.701  18.957  0.00  0.00    +0.000 A 
ATOM     27  C   UNL     1      -0.426  10.690  19.448  0.00  0.00    +0.000 A 
ENDBRANCH   1  16
TORSDOF 2
ENDMDL
