MODEL 1
REMARK VINA RESULT:      -9.1      0.000      0.000
REMARK  Name = 
REMARK  5 active torsions:
REMARK  status: ('A' for Active; 'I' for Inactive)
REMARK    1  A    between atoms: C_1  and  C_2
REMARK    2  A    between atoms: C_13  and  C_14
REMARK    3  A    between atoms: C_14  and  C_15
REMARK    4  A    between atoms: N_17  and  C_18
REMARK    5  A    between atoms: C_18  and  C_19
REMARK                            x       y       z     vdW  Elec       q    Type
REMARK                         _______ _______ _______ _____ _____    ______ ____
ROOT
ATOM      1  C   UNL     1       1.743  10.653  18.155  0.00  0.00    +0.000 C 
ATOM      2  O   UNL     1       2.716  11.137  17.588  0.00  0.00    +0.000 OA
ATOM      3  N   UNL     1       1.592   9.305  18.373  0.00  0.00    +0.000 N 
ATOM      4  H   UNL     1       0.729   8.951  18.761  0.00  0.00    +0.000 HD
ENDROOT
BRANCH   1   5
ATOM      5  C   UNL     1       0.613  11.517  18.673  0.00  0.00    +0.000 C 
BRANCH   5  18
ATOM      6  C   UNL     1      -3.760  11.244  17.002  0.00  0.00    +0.000 C 
ATOM      7  C   UNL     1      -2.374  10.771  17.379  0.00  0.00    +0.000 C 
ATOM      8  O   UNL     1      -1.763   9.991  16.653  0.00  0.00    +0.000 OA
ATOM      9  N   UNL     1      -1.860  11.251  18.583  0.00  0.00    +0.000 N 
ATOM     10  C   UNL     1      -2.626  12.167  19.438  0.00  0.00    +0.000 C 
ATOM     11  C   UNL     1      -1.882  12.688  20.665  0.00  0.00    +0.000 C 
ATOM     12  C   UNL     1      -1.258  11.530  21.387  0.00  0.00    +0.000 A 
ATOM     13  C   UNL     1      -1.270  11.439  22.781  0.00  0.00    +0.000 A 
ATOM     14  C   UNL     1      -0.724  10.322  23.409  0.00  0.00    +0.000 A 
ATOM     15  C   UNL     1      -0.156   9.300  22.649  0.00  0.00    +0.000 A 
ATOM     16  C   UNL     1      -0.119   9.396  21.258  0.00  0.00    +0.000 A 
ATOM     17  C   UNL     1      -0.661  10.515  20.617  0.00  0.00    +0.000 A 
ATOM     18  C   UNL     1      -0.597  10.666  19.100  0.00  0.00    +0.000 C 
ENDBRANCH   5  18
ENDBRANCH   1   5
BRANCH   3  19
ATOM     19  C   UNL     1       2.566   8.338  17.918  0.00  0.00    +0.000 C 
BRANCH  19  20
ATOM     20  C   UNL     1       2.346   6.990  18.553  0.00  0.00    +0.000 A 
ATOM     21  C   UNL     1       2.101   6.896  19.928  0.00  0.00    +0.000 A 
ATOM     22  C   UNL     1       1.914   5.652  20.535  0.00  0.00    +0.000 A 
ATOM     23  C   UNL     1       1.961   4.471  19.780  0.00  0.00    +0.000 A 
ATOM     24  C   UNL     1       1.782   3.212  20.378  0.00  0.00    +0.000 A 
ATOM     25  C   UNL     1       1.831   2.046  19.615  0.00  0.00    +0.000 A 
ATOM     26  C   UNL     1       2.063   2.122  18.246  0.00  0.00    +0.000 A 
ATOM     27  C   UNL     1       2.242   3.365  17.634  0.00  0.00    +0.000 A 
ATOM     28  C   UNL     1       2.192   4.551  18.387  0.00  0.00    +0.000 A 
ATOM     29  C   UNL     1       2.376   5.812  17.790  0.00  0.00    +0.000 A 
ENDBRANCH  19  20
ENDBRANCH   3  19
TORSDOF 4
ENDMDL
MODEL 2
REMARK VINA RESULT:      -9.0      2.236      8.011
REMARK  Name = 
REMARK  5 active torsions:
REMARK  status: ('A' for Active; 'I' for Inactive)
REMARK    1  A    between atoms: C_1  and  C_2
REMARK    2  A    between atoms: C_13  and  C_14
REMARK    3  A    between atoms: C_14  and  C_15
REMARK    4  A    between atoms: N_17  and  C_18
REMARK    5  A    between atoms: C_18  and  C_19
REMARK                            x       y       z     vdW  Elec       q    Type
REMARK                         _______ _______ _______ _____ _____    ______ ____
ROOT
ATOM      1  C   UNL     1       2.109   7.732  18.938  0.00  0.00    +0.000 C 
ATOM      2  O   UNL     1       2.218   7.613  20.152  0.00  0.00    +0.000 OA
ATOM      3  N   UNL     1       1.698   8.893  18.328  0.00  0.00    +0.000 N 
ATOM      4  H   UNL     1       1.536   8.909  17.332  0.00  0.00    +0.000 HD
ENDROOT
BRANCH   1   5
ATOM      5  C   UNL     1       2.428   6.591  17.995  0.00  0.00    +0.000 C 
BRANCH   5  18
ATOM      6  C   UNL     1       6.512   4.943  16.385  0.00  0.00    +0.000 C 
ATOM      7  C   UNL     1       5.565   5.673  17.311  0.00  0.00    +0.000 C 
ATOM      8  O   UNL     1       5.892   6.742  17.821  0.00  0.00    +0.000 OA
ATOM      9  N   UNL     1       4.338   5.057  17.555  0.00  0.00    +0.000 N 
ATOM     10  C   UNL     1       3.987   3.769  16.945  0.00  0.00    +0.000 C 
ATOM     11  C   UNL     1       2.566   3.282  17.224  0.00  0.00    +0.000 C 
ATOM     12  C   UNL     1       2.298   3.373  18.697  0.00  0.00    +0.000 A 
ATOM     13  C   UNL     1       1.612   2.368  19.383  0.00  0.00    +0.000 A 
ATOM     14  C   UNL     1       1.428   2.467  20.760  0.00  0.00    +0.000 A 
ATOM     15  C   UNL     1       1.919   3.574  21.453  0.00  0.00    +0.000 A 
ATOM     16  C   UNL     1       2.583   4.593  20.770  0.00  0.00    +0.000 A 
ATOM     17  C   UNL     1       2.770   4.505  19.386  0.00  0.00    +0.000 A 
ATOM     18  C   UNL     1       3.456   5.623  18.608  0.00  0.00    +0.000 C 
ENDBRANCH   5  18
ENDBRANCH   1   5
BRANCH   3  19
ATOM     19  C   UNL     1       1.328  10.069  19.085  0.00  0.00    +0.000 C 
BRANCH  19  20
ATOM     20  C   UNL     1      -0.077  10.511  18.767  0.00  0.00    +0.000 A 
ATOM     21  C   UNL     1      -0.770  11.334  19.661  0.00  0.00    +0.000 A 
ATOM     22  C   UNL     1      -2.080  11.736  19.389  0.00  0.00    +0.000 A 
ATOM     23  C   UNL     1      -2.726  11.331  18.213  0.00  0.00    +0.000 A 
ATOM     24  C   UNL     1      -4.045  11.722  17.930  0.00  0.00    +0.000 A 
ATOM     25  C   UNL     1      -4.676  11.310  16.755  0.00  0.00    +0.000 A 
ATOM     26  C   UNL     1      -3.997  10.502  15.851  0.00  0.00    +0.000 A 
ATOM     27  C   UNL     1      -2.684  10.104  16.115  0.00  0.00    +0.000 A 
ATOM     28  C   UNL     1      -2.033  10.512  17.292  0.00  0.00    +0.000 A 
ATOM     29  C   UNL     1      -0.712  10.117  17.579  0.00  0.00    +0.000 A 
ENDBRANCH  19  20
ENDBRANCH   3  19
TORSDOF 4
ENDMDL
MODEL 3
REMARK VINA RESULT:      -8.8      2.237      8.206
REMARK  Name = 
REMARK  5 active torsions:
REMARK  status: ('A' for Active; 'I' for Inactive)
REMARK    1  A    between atoms: C_1  and  C_2
REMARK    2  A    between atoms: C_13  and  C_14
REMARK    3  A    between atoms: C_14  and  C_15
REMARK    4  A    between atoms: N_17  and  C_18
REMARK    5  A    between atoms: C_18  and  C_19
REMARK                            x       y       z     vdW  Elec       q    Type
REMARK                         _______ _______ _______ _____ _____    ______ ____
ROOT
ATOM      1  C   UNL     1       2.100   7.747  18.612  0.00  0.00    +0.000 C 
ATOM      2  O   UNL     1       2.170   7.781  19.834  0.00  0.00    +0.000 OA
ATOM      3  N   UNL     1       1.817   8.850  17.842  0.00  0.00    +0.000 N 
ATOM      4  H   UNL     1       1.679   8.748  16.847  0.00  0.00    +0.000 HD
ENDROOT
BRANCH   1   5
ATOM      5  C   UNL     1       2.326   6.466  17.838  0.00  0.00    +0.000 C 
BRANCH   5  18
ATOM      6  C   UNL     1       6.448   4.873  16.269  0.00  0.00    +0.000 C 
ATOM      7  C   UNL     1       5.487   5.630  17.157  0.00  0.00    +0.000 C 
ATOM      8  O   UNL     1       5.777   6.747  17.580  0.00  0.00    +0.000 OA
ATOM      9  N   UNL     1       4.292   4.984  17.473  0.00  0.00    +0.000 N 
ATOM     10  C   UNL     1       3.986   3.640  16.967  0.00  0.00    +0.000 C 
ATOM     11  C   UNL     1       2.593   3.117  17.311  0.00  0.00    +0.000 C 
ATOM     12  C   UNL     1       2.347   3.307  18.779  0.00  0.00    +0.000 A 
ATOM     13  C   UNL     1       1.718   2.329  19.552  0.00  0.00    +0.000 A 
ATOM     14  C   UNL     1       1.555   2.523  20.921  0.00  0.00    +0.000 A 
ATOM     15  C   UNL     1       2.009   3.698  21.520  0.00  0.00    +0.000 A 
ATOM     16  C   UNL     1       2.617   4.690  20.749  0.00  0.00    +0.000 A 
ATOM     17  C   UNL     1       2.783   4.506  19.372  0.00  0.00    +0.000 A 
ATOM     18  C   UNL     1       3.406   5.591  18.498  0.00  0.00    +0.000 C 
ENDBRANCH   5  18
ENDBRANCH   1   5
BRANCH   3  19
ATOM     19  C   UNL     1       1.548  10.146  18.425  0.00  0.00    +0.000 C 
BRANCH  19  20
ATOM     20  C   UNL     1       0.074  10.458  18.421  0.00  0.00    +0.000 A 
ATOM     21  C   UNL     1      -0.767   9.851  17.481  0.00  0.00    +0.000 A 
ATOM     22  C   UNL     1      -2.132  10.146  17.453  0.00  0.00    +0.000 A 
ATOM     23  C   UNL     1      -2.691  11.050  18.368  0.00  0.00    +0.000 A 
ATOM     24  C   UNL     1      -4.061  11.360  18.346  0.00  0.00    +0.000 A 
ATOM     25  C   UNL     1      -4.603  12.262  19.263  0.00  0.00    +0.000 A 
ATOM     26  C   UNL     1      -3.784  12.865  20.210  0.00  0.00    +0.000 A 
ATOM     27  C   UNL     1      -2.419  12.567  20.247  0.00  0.00    +0.000 A 
ATOM     28  C   UNL     1      -1.857  11.659  19.333  0.00  0.00    +0.000 A 
ATOM     29  C   UNL     1      -0.483  11.350  19.351  0.00  0.00    +0.000 A 
ENDBRANCH  19  20
ENDBRANCH   3  19
TORSDOF 4
ENDMDL
MODEL 4
REMARK VINA RESULT:      -8.7      2.033      3.831
REMARK  Name = 
REMARK  5 active torsions:
REMARK  status: ('A' for Active; 'I' for Inactive)
REMARK    1  A    between atoms: C_1  and  C_2
REMARK    2  A    between atoms: C_13  and  C_14
REMARK    3  A    between atoms: C_14  and  C_15
REMARK    4  A    between atoms: N_17  and  C_18
REMARK    5  A    between atoms: C_18  and  C_19
REMARK                            x       y       z     vdW  Elec       q    Type
REMARK                         _______ _______ _______ _____ _____    ______ ____
ROOT
ATOM      1  C   UNL     1       0.105   9.867  22.200  0.00  0.00    +0.000 C 
ATOM      2  O   UNL     1       0.451   9.852  23.375  0.00  0.00    +0.000 OA
ATOM      3  N   UNL     1       0.698   9.096  21.229  0.00  0.00    +0.000 N 
ATOM      4  H   UNL     1       0.437   9.215  20.261  0.00  0.00    +0.000 HD
ENDROOT
BRANCH   1   5
ATOM      5  C   UNL     1      -1.025  10.750  21.715  0.00  0.00    +0.000 C 
BRANCH   5  18
ATOM      6  C   UNL     1       0.452  15.177  21.251  0.00  0.00    +0.000 C 
ATOM      7  C   UNL     1       0.506  13.668  21.171  0.00  0.00    +0.000 C 
ATOM      8  O   UNL     1       1.546  13.067  21.434  0.00  0.00    +0.000 OA
ATOM      9  N   UNL     1      -0.663  13.025  20.769  0.00  0.00    +0.000 N 
ATOM     10  C   UNL     1      -1.882  13.775  20.443  0.00  0.00    +0.000 C 
ATOM     11  C   UNL     1      -3.108  12.920  20.128  0.00  0.00    +0.000 C 
ATOM     12  C   UNL     1      -2.729  11.871  19.124  0.00  0.00    +0.000 A 
ATOM     13  C   UNL     1      -3.568  11.532  18.062  0.00  0.00    +0.000 A 
ATOM     14  C   UNL     1      -3.156  10.589  17.123  0.00  0.00    +0.000 A 
ATOM     15  C   UNL     1      -1.910   9.975  17.250  0.00  0.00    +0.000 A 
ATOM     16  C   UNL     1      -1.076  10.291  18.323  0.00  0.00    +0.000 A 
ATOM     17  C   UNL     1      -1.482  11.235  19.273  0.00  0.00    +0.000 A 
ATOM     18  C   UNL     1      -0.610  11.569  20.479  0.00  0.00    +0.000 C 
ENDBRANCH   5  18
ENDBRANCH   1   5
BRANCH   3  19
ATOM     19  C   UNL     1       1.810   8.217  21.518  0.00  0.00    +0.000 C 
BRANCH  19  20
ATOM     20  C   UNL     1       1.905   7.098  20.514  0.00  0.00    +0.000 A 
ATOM     21  C   UNL     1       2.345   7.361  19.212  0.00  0.00    +0.000 A 
ATOM     22  C   UNL     1       2.420   6.337  18.265  0.00  0.00    +0.000 A 
ATOM     23  C   UNL     1       2.063   5.023  18.599  0.00  0.00    +0.000 A 
ATOM     24  C   UNL     1       2.127   3.985  17.655  0.00  0.00    +0.000 A 
ATOM     25  C   UNL     1       1.769   2.682  18.001  0.00  0.00    +0.000 A 
ATOM     26  C   UNL     1       1.341   2.400  19.293  0.00  0.00    +0.000 A 
ATOM     27  C   UNL     1       1.272   3.420  20.246  0.00  0.00    +0.000 A 
ATOM     28  C   UNL     1       1.632   4.738  19.915  0.00  0.00    +0.000 A 
ATOM     29  C   UNL     1       1.564   5.780  20.859  0.00  0.00    +0.000 A 
ENDBRANCH  19  20
ENDBRANCH   3  19
TORSDOF 4
ENDMDL
MODEL 5
REMARK VINA RESULT:      -8.6      0.637      1.460
REMARK  Name = 
REMARK  5 active torsions:
REMARK  status: ('A' for Active; 'I' for Inactive)
REMARK    1  A    between atoms: C_1  and  C_2
REMARK    2  A    between atoms: C_13  and  C_14
REMARK    3  A    between atoms: C_14  and  C_15
REMARK    4  A    between atoms: N_17  and  C_18
REMARK    5  A    between atoms: C_18  and  C_19
REMARK                            x       y       z     vdW  Elec       q    Type
REMARK                         _______ _______ _______ _____ _____    ______ ____
ROOT
ATOM      1  C   UNL     1       1.866  10.319  18.087  0.00  0.00    +0.000 C 
ATOM      2  O   UNL     1       2.623  10.765  17.234  0.00  0.00    +0.000 OA
ATOM      3  N   UNL     1       1.869   9.004  18.485  0.00  0.00    +0.000 N 
ATOM      4  H   UNL     1       1.163   8.668  19.123  0.00  0.00    +0.000 HD
ENDROOT
BRANCH   1   5
ATOM      5  C   UNL     1       0.848  11.196  18.784  0.00  0.00    +0.000 C 
BRANCH   5  18
ATOM      6  C   UNL     1      -3.509  11.111  17.053  0.00  0.00    +0.000 C 
ATOM      7  C   UNL     1      -2.149  10.580  17.447  0.00  0.00    +0.000 C 
ATOM      8  O   UNL     1      -1.561   9.776  16.727  0.00  0.00    +0.000 OA
ATOM      9  N   UNL     1      -1.633  11.035  18.660  0.00  0.00    +0.000 N 
ATOM     10  C   UNL     1      -2.371  11.980  19.507  0.00  0.00    +0.000 C 
ATOM     11  C   UNL     1      -1.623  12.465  20.746  0.00  0.00    +0.000 C 
ATOM     12  C   UNL     1      -1.058  11.280  21.473  0.00  0.00    +0.000 A 
ATOM     13  C   UNL     1      -1.094  11.186  22.866  0.00  0.00    +0.000 A 
ATOM     14  C   UNL     1      -0.604  10.045  23.498  0.00  0.00    +0.000 A 
ATOM     15  C   UNL     1      -0.069   9.003  22.743  0.00  0.00    +0.000 A 
ATOM     16  C   UNL     1      -0.008   9.101  21.352  0.00  0.00    +0.000 A 
ATOM     17  C   UNL     1      -0.494  10.243  20.707  0.00  0.00    +0.000 A 
ATOM     18  C   UNL     1      -0.402  10.396  19.192  0.00  0.00    +0.000 C 
ENDBRANCH   5  18
ENDBRANCH   1   5
BRANCH   3  19
ATOM     19  C   UNL     1       2.760   8.026  17.899  0.00  0.00    +0.000 C 
BRANCH  19  20
ATOM     20  C   UNL     1       2.406   6.627  18.332  0.00  0.00    +0.000 A 
ATOM     21  C   UNL     1       1.954   5.696  17.390  0.00  0.00    +0.000 A 
ATOM     22  C   UNL     1       1.603   4.401  17.780  0.00  0.00    +0.000 A 
ATOM     23  C   UNL     1       1.703   4.004  19.121  0.00  0.00    +0.000 A 
ATOM     24  C   UNL     1       1.348   2.706  19.528  0.00  0.00    +0.000 A 
ATOM     25  C   UNL     1       1.452   2.325  20.866  0.00  0.00    +0.000 A 
ATOM     26  C   UNL     1       1.910   3.233  21.813  0.00  0.00    +0.000 A 
ATOM     27  C   UNL     1       2.269   4.527  21.426  0.00  0.00    +0.000 A 
ATOM     28  C   UNL     1       2.173   4.928  20.082  0.00  0.00    +0.000 A 
ATOM     29  C   UNL     1       2.525   6.229  19.673  0.00  0.00    +0.000 A 
ENDBRANCH  19  20
ENDBRANCH   3  19
TORSDOF 4
ENDMDL
MODEL 6
REMARK VINA RESULT:      -8.5      1.014      1.452
REMARK  Name = 
REMARK  5 active torsions:
REMARK  status: ('A' for Active; 'I' for Inactive)
REMARK    1  A    between atoms: C_1  and  C_2
REMARK    2  A    between atoms: C_13  and  C_14
REMARK    3  A    between atoms: C_14  and  C_15
REMARK    4  A    between atoms: N_17  and  C_18
REMARK    5  A    between atoms: C_18  and  C_19
REMARK                            x       y       z     vdW  Elec       q    Type
REMARK                         _______ _______ _______ _____ _____    ______ ____
ROOT
ATOM      1  C   UNL     1       1.970  10.470  18.054  0.00  0.00    +0.000 C 
ATOM      2  O   UNL     1       2.871  11.045  17.455  0.00  0.00    +0.000 OA
ATOM      3  N   UNL     1       1.832   9.103  18.077  0.00  0.00    +0.000 N 
ATOM      4  H   UNL     1       1.020   8.685  18.506  0.00  0.00    +0.000 HD
ENDROOT
BRANCH   1   5
ATOM      5  C   UNL     1       0.919  11.233  18.832  0.00  0.00    +0.000 C 
BRANCH   5  18
ATOM      6  C   UNL     1      -3.373  10.728  17.009  0.00  0.00    +0.000 C 
ATOM      7  C   UNL     1      -1.979  10.329  17.439  0.00  0.00    +0.000 C 
ATOM      8  O   UNL     1      -1.304   9.574  16.742  0.00  0.00    +0.000 OA
ATOM      9  N   UNL     1      -1.534  10.843  18.656  0.00  0.00    +0.000 N 
ATOM     10  C   UNL     1      -2.374  11.726  19.474  0.00  0.00    +0.000 C 
ATOM     11  C   UNL     1      -1.702  12.292  20.723  0.00  0.00    +0.000 C 
ATOM     12  C   UNL     1      -1.048  11.172  21.477  0.00  0.00    +0.000 A 
ATOM     13  C   UNL     1      -1.106  11.091  22.870  0.00  0.00    +0.000 A 
ATOM     14  C   UNL     1      -0.528  10.008  23.528  0.00  0.00    +0.000 A 
ATOM     15  C   UNL     1       0.117   9.010  22.799  0.00  0.00    +0.000 A 
ATOM     16  C   UNL     1       0.200   9.097  21.409  0.00  0.00    +0.000 A 
ATOM     17  C   UNL     1      -0.373  10.183  20.738  0.00  0.00    +0.000 A 
ATOM     18  C   UNL     1      -0.262  10.325  19.223  0.00  0.00    +0.000 C 
ENDBRANCH   5  18
ENDBRANCH   1   5
BRANCH   3  19
ATOM     19  C   UNL     1       2.735   8.228  17.362  0.00  0.00    +0.000 C 
BRANCH  19  20
ATOM     20  C   UNL     1       2.963   6.940  18.110  0.00  0.00    +0.000 A 
ATOM     21  C   UNL     1       4.151   6.223  17.923  0.00  0.00    +0.000 A 
ATOM     22  C   UNL     1       4.368   5.018  18.594  0.00  0.00    +0.000 A 
ATOM     23  C   UNL     1       3.405   4.503  19.475  0.00  0.00    +0.000 A 
ATOM     24  C   UNL     1       3.608   3.288  20.152  0.00  0.00    +0.000 A 
ATOM     25  C   UNL     1       2.641   2.788  21.024  0.00  0.00    +0.000 A 
ATOM     26  C   UNL     1       1.461   3.493  21.230  0.00  0.00    +0.000 A 
ATOM     27  C   UNL     1       1.243   4.703  20.567  0.00  0.00    +0.000 A 
ATOM     28  C   UNL     1       2.207   5.223  19.686  0.00  0.00    +0.000 A 
ATOM     29  C   UNL     1       2.004   6.438  19.004  0.00  0.00    +0.000 A 
ENDBRANCH  19  20
ENDBRANCH   3  19
TORSDOF 4
ENDMDL
MODEL 7
REMARK VINA RESULT:      -8.4      2.668      8.238
REMARK  Name = 
REMARK  5 active torsions:
REMARK  status: ('A' for Active; 'I' for Inactive)
REMARK    1  A    between atoms: C_1  and  C_2
REMARK    2  A    between atoms: C_13  and  C_14
REMARK    3  A    between atoms: C_14  and  C_15
REMARK    4  A    between atoms: N_17  and  C_18
REMARK    5  A    between atoms: C_18  and  C_19
REMARK                            x       y       z     vdW  Elec       q    Type
REMARK                         _______ _______ _______ _____ _____    ______ ____
ROOT
ATOM      1  C   UNL     1       2.232   8.162  18.339  0.00  0.00    +0.000 C 
ATOM      2  O   UNL     1       2.544   8.351  17.170  0.00  0.00    +0.000 OA
ATOM      3  N   UNL     1       1.567   9.093  19.102  0.00  0.00    +0.000 N 
ATOM      4  H   UNL     1       1.417   8.924  20.086  0.00  0.00    +0.000 HD
ENDROOT
BRANCH   1   5
ATOM      5  C   UNL     1       2.556   6.866  19.050  0.00  0.00    +0.000 C 
BRANCH   5  18
ATOM      6  C   UNL     1       1.498   2.377  18.197  0.00  0.00    +0.000 C 
ATOM      7  C   UNL     1       1.700   3.848  17.906  0.00  0.00    +0.000 C 
ATOM      8  O   UNL     1       0.923   4.449  17.168  0.00  0.00    +0.000 OA
ATOM      9  N   UNL     1       2.809   4.452  18.497  0.00  0.00    +0.000 N 
ATOM     10  C   UNL     1       3.729   3.699  19.358  0.00  0.00    +0.000 C 
ATOM     11  C   UNL     1       4.829   4.528  20.018  0.00  0.00    +0.000 C 
ATOM     12  C   UNL     1       5.496   5.375  18.974  0.00  0.00    +0.000 A 
ATOM     13  C   UNL     1       6.880   5.555  18.948  0.00  0.00    +0.000 A 
ATOM     14  C   UNL     1       7.465   6.308  17.931  0.00  0.00    +0.000 A 
ATOM     15  C   UNL     1       6.667   6.891  16.947  0.00  0.00    +0.000 A 
ATOM     16  C   UNL     1       5.281   6.736  16.982  0.00  0.00    +0.000 A 
ATOM     17  C   UNL     1       4.684   5.985  18.000  0.00  0.00    +0.000 A 
ATOM     18  C   UNL     1       3.168   5.833  18.086  0.00  0.00    +0.000 C 
ENDBRANCH   5  18
ENDBRANCH   1   5
BRANCH   3  19
ATOM     19  C   UNL     1       1.206  10.395  18.585  0.00  0.00    +0.000 C 
BRANCH  19  20
ATOM     20  C   UNL     1      -0.287  10.539  18.444  0.00  0.00    +0.000 A 
ATOM     21  C   UNL     1      -0.976   9.782  17.490  0.00  0.00    +0.000 A 
ATOM     22  C   UNL     1      -2.358   9.920  17.334  0.00  0.00    +0.000 A 
ATOM     23  C   UNL     1      -3.085  10.812  18.135  0.00  0.00    +0.000 A 
ATOM     24  C   UNL     1      -4.473  10.965  17.986  0.00  0.00    +0.000 A 
ATOM     25  C   UNL     1      -5.184  11.857  18.789  0.00  0.00    +0.000 A 
ATOM     26  C   UNL     1      -4.517  12.608  19.750  0.00  0.00    +0.000 A 
ATOM     27  C   UNL     1      -3.136  12.468  19.914  0.00  0.00    +0.000 A 
ATOM     28  C   UNL     1      -2.405  11.572  19.115  0.00  0.00    +0.000 A 
ATOM     29  C   UNL     1      -1.013  11.421  19.261  0.00  0.00    +0.000 A 
ENDBRANCH  19  20
ENDBRANCH   3  19
TORSDOF 4
ENDMDL
MODEL 8
REMARK VINA RESULT:      -8.4      2.189      8.015
REMARK  Name = 
REMARK  5 active torsions:
REMARK  status: ('A' for Active; 'I' for Inactive)
REMARK    1  A    between atoms: C_1  and  C_2
REMARK    2  A    between atoms: C_13  and  C_14
REMARK    3  A    between atoms: C_14  and  C_15
REMARK    4  A    between atoms: N_17  and  C_18
REMARK    5  A    between atoms: C_18  and  C_19
REMARK                            x       y       z     vdW  Elec       q    Type
REMARK                         _______ _______ _______ _____ _____    ______ ____
ROOT
ATOM      1  C   UNL     1       2.619   7.639  17.860  0.00  0.00    +0.000 C 
ATOM      2  O   UNL     1       3.718   8.158  18.017  0.00  0.00    +0.000 OA
ATOM      3  N   UNL     1       1.440   8.345  17.901  0.00  0.00    +0.000 N 
ATOM      4  H   UNL     1       0.558   7.856  17.859  0.00  0.00    +0.000 HD
ENDROOT
BRANCH   1   5
ATOM      5  C   UNL     1       2.469   6.156  17.601  0.00  0.00    +0.000 C 
BRANCH   5  18
ATOM      6  C   UNL     1       6.595   4.311  16.350  0.00  0.00    +0.000 C 
ATOM      7  C   UNL     1       5.627   5.183  17.118  0.00  0.00    +0.000 C 
ATOM      8  O   UNL     1       5.932   6.334  17.422  0.00  0.00    +0.000 OA
ATOM      9  N   UNL     1       4.408   4.601  17.466  0.00  0.00    +0.000 N 
ATOM     10  C   UNL     1       4.084   3.216  17.105  0.00  0.00    +0.000 C 
ATOM     11  C   UNL     1       2.670   2.764  17.461  0.00  0.00    +0.000 C 
ATOM     12  C   UNL     1       2.387   3.122  18.890  0.00  0.00    +0.000 A 
ATOM     13  C   UNL     1       1.712   2.251  19.747  0.00  0.00    +0.000 A 
ATOM     14  C   UNL     1       1.514   2.601  21.081  0.00  0.00    +0.000 A 
ATOM     15  C   UNL     1       1.980   3.827  21.558  0.00  0.00    +0.000 A 
ATOM     16  C   UNL     1       2.633   4.712  20.701  0.00  0.00    +0.000 A 
ATOM     17  C   UNL     1       2.834   4.371  19.359  0.00  0.00    +0.000 A 
ATOM     18  C   UNL     1       3.508   5.338  18.389  0.00  0.00    +0.000 C 
ENDBRANCH   5  18
ENDBRANCH   1   5
BRANCH   3  19
ATOM     19  C   UNL     1       1.404   9.767  18.165  0.00  0.00    +0.000 C 
BRANCH  19  20
ATOM     20  C   UNL     1       0.711  10.069  19.468  0.00  0.00    +0.000 A 
ATOM     21  C   UNL     1       0.982   9.294  20.602  0.00  0.00    +0.000 A 
ATOM     22  C   UNL     1       0.333   9.550  21.811  0.00  0.00    +0.000 A 
ATOM     23  C   UNL     1      -0.599  10.592  21.919  0.00  0.00    +0.000 A 
ATOM     24  C   UNL     1      -1.264  10.856  23.128  0.00  0.00    +0.000 A 
ATOM     25  C   UNL     1      -2.189  11.896  23.221  0.00  0.00    +0.000 A 
ATOM     26  C   UNL     1      -2.462  12.683  22.109  0.00  0.00    +0.000 A 
ATOM     27  C   UNL     1      -1.809  12.436  20.899  0.00  0.00    +0.000 A 
ATOM     28  C   UNL     1      -0.872  11.394  20.787  0.00  0.00    +0.000 A 
ATOM     29  C   UNL     1      -0.208  11.125  19.575  0.00  0.00    +0.000 A 
ENDBRANCH  19  20
ENDBRANCH   3  19
TORSDOF 4
ENDMDL
MODEL 9
REMARK VINA RESULT:      -8.4      2.436      4.189
REMARK  Name = 
REMARK  5 active torsions:
REMARK  status: ('A' for Active; 'I' for Inactive)
REMARK    1  A    between atoms: C_1  and  C_2
REMARK    2  A    between atoms: C_13  and  C_14
REMARK    3  A    between atoms: C_14  and  C_15
REMARK    4  A    between atoms: N_17  and  C_18
REMARK    5  A    between atoms: C_18  and  C_19
REMARK                            x       y       z     vdW  Elec       q    Type
REMARK                         _______ _______ _______ _____ _____    ______ ____
ROOT
ATOM      1  C   UNL     1       0.600   9.450  21.767  0.00  0.00    +0.000 C 
ATOM      2  O   UNL     1       1.512   9.601  22.571  0.00  0.00    +0.000 OA
ATOM      3  N   UNL     1       0.439   8.310  21.016  0.00  0.00    +0.000 N 
ATOM      4  H   UNL     1      -0.273   8.274  20.301  0.00  0.00    +0.000 HD
ENDROOT
BRANCH   1   5
ATOM      5  C   UNL     1      -0.442  10.523  21.534  0.00  0.00    +0.000 C 
BRANCH   5  18
ATOM      6  C   UNL     1       1.131  14.917  21.075  0.00  0.00    +0.000 C 
ATOM      7  C   UNL     1       1.129  13.410  20.945  0.00  0.00    +0.000 C 
ATOM      8  O   UNL     1       2.168  12.771  21.095  0.00  0.00    +0.000 OA
ATOM      9  N   UNL     1      -0.092  12.815  20.630  0.00  0.00    +0.000 N 
ATOM     10  C   UNL     1      -1.310  13.611  20.437  0.00  0.00    +0.000 C 
ATOM     11  C   UNL     1      -2.586  12.804  20.207  0.00  0.00    +0.000 C 
ATOM     12  C   UNL     1      -2.331  11.778  19.142  0.00  0.00    +0.000 A 
ATOM     13  C   UNL     1      -3.272  11.500  18.149  0.00  0.00    +0.000 A 
ATOM     14  C   UNL     1      -2.975  10.576  17.149  0.00  0.00    +0.000 A 
ATOM     15  C   UNL     1      -1.744   9.922  17.145  0.00  0.00    +0.000 A 
ATOM     16  C   UNL     1      -0.809  10.178  18.148  0.00  0.00    +0.000 A 
ATOM     17  C   UNL     1      -1.098  11.101  19.159  0.00  0.00    +0.000 A 
ATOM     18  C   UNL     1      -0.111  11.370  20.292  0.00  0.00    +0.000 C 
ENDBRANCH   5  18
ENDBRANCH   1   5
BRANCH   3  19
ATOM     19  C   UNL     1       1.363   7.200  21.096  0.00  0.00    +0.000 C 
BRANCH  19  20
ATOM     20  C   UNL     1       2.219   7.103  19.860  0.00  0.00    +0.000 A 
ATOM     21  C   UNL     1       2.180   8.120  18.900  0.00  0.00    +0.000 A 
ATOM     22  C   UNL     1       2.953   8.035  17.740  0.00  0.00    +0.000 A 
ATOM     23  C   UNL     1       3.791   6.933  17.516  0.00  0.00    +0.000 A 
ATOM     24  C   UNL     1       4.569   6.831  16.350  0.00  0.00    +0.000 A 
ATOM     25  C   UNL     1       5.398   5.728  16.140  0.00  0.00    +0.000 A 
ATOM     26  C   UNL     1       5.458   4.715  17.089  0.00  0.00    +0.000 A 
ATOM     27  C   UNL     1       4.692   4.800  18.254  0.00  0.00    +0.000 A 
ATOM     28  C   UNL     1       3.853   5.904  18.484  0.00  0.00    +0.000 A 
ATOM     29  C   UNL     1       3.069   6.006  19.649  0.00  0.00    +0.000 A 
ENDBRANCH  19  20
ENDBRANCH   3  19
TORSDOF 4
ENDMDL
