MODEL 1
REMARK VINA RESULT:      -8.7      0.000      0.000
REMARK  Name = 
REMARK  3 active torsions:
REMARK  status: ('A' for Active; 'I' for Inactive)
REMARK    1  A    between atoms: C_11  and  C_12
REMARK    2  A    between atoms: C_16  and  C_18
REMARK    3  A    between atoms: C_22  and  N_23
REMARK                            x       y       z     vdW  Elec       q    Type
REMARK                         _______ _______ _______ _____ _____    ______ ____
ROOT
ATOM      1  C   UNL     1      -0.524  13.488  20.659  0.00  0.00    +0.000 C 
ATOM      2  C   UNL     1      -0.418  14.127  19.258  0.00  0.00    +0.000 C 
ATOM      3  C   UNL     1       0.911  13.842  18.568  0.00  0.00    +0.000 C 
ATOM      4  N   UNL     1       2.014  14.254  19.430  0.00  0.00    +0.000 N 
ATOM      5  C   UNL     1       3.039  14.999  18.845  0.00  0.00    +0.000 C 
ATOM      6  O   UNL     1       3.033  15.291  17.650  0.00  0.00    +0.000 OA
ATOM      7  C   UNL     1       2.035  13.616  20.750  0.00  0.00    +0.000 C 
ATOM      8  C   UNL     1       0.722  13.867  21.481  0.00  0.00    +0.000 C 
ENDROOT
BRANCH   1  19
ATOM      9  O   UNL     1       1.120  10.763  21.604  0.00  0.00    +0.000 OA
ATOM     10  C   UNL     1       0.330  10.977  20.702  0.00  0.00    +0.000 C 
ATOM     11  N   UNL     1       0.330  10.307  19.489  0.00  0.00    +0.000 N 
ATOM     12  C   UNL     1      -0.814  10.584  18.766  0.00  0.00    +0.000 A 
ATOM     13  C   UNL     1      -1.204  10.006  17.581  0.00  0.00    +0.000 A 
ATOM     14  C   UNL     1      -2.444  10.391  17.076  0.00  0.00    +0.000 A 
ATOM     15 CL   UNL     1      -3.009   9.691  15.608  0.00  0.00    +0.000 Cl
ATOM     16  C   UNL     1      -3.249  11.328  17.750  0.00  0.00    +0.000 A 
ATOM     17  C   UNL     1      -2.818  11.912  18.947  0.00  0.00    +0.000 A 
ATOM     18  C   UNL     1      -1.585  11.530  19.443  0.00  0.00    +0.000 A 
ATOM     19  C   UNL     1      -0.857  11.974  20.696  0.00  0.00    +0.000 C 
ATOM     20  H   UNL     1       1.018   9.602  19.263  0.00  0.00    +0.000 HD
ENDBRANCH   1  19
BRANCH   5  21
ATOM     21  C   UNL     1       4.178  15.482  19.677  0.00  0.00    +0.000 A 
ATOM     22  C   UNL     1       4.158  16.667  20.410  0.00  0.00    +0.000 A 
ATOM     23  C   UNL     1       5.239  17.017  21.215  0.00  0.00    +0.000 A 
ATOM     24  C   UNL     1       6.419  16.274  21.161  0.00  0.00    +0.000 A 
ATOM     25  C   UNL     1       6.519  15.176  20.301  0.00  0.00    +0.000 A 
ATOM     26  C   UNL     1       5.362  14.752  19.629  0.00  0.00    +0.000 A 
BRANCH  25  27
ATOM     27  N   UNL     1       7.754  14.533  20.034  0.00  0.00    +0.000 N 
ATOM     28  C   UNL     1       8.469  14.553  18.845  0.00  0.00    +0.000 C 
ATOM     29  O   UNL     1       8.269  15.151  17.796  0.00  0.00    +0.000 OA
ATOM     30  C   UNL     1       9.630  13.691  19.053  0.00  0.00    +0.000 A 
ATOM     31  C   UNL     1      10.714  13.380  18.254  0.00  0.00    +0.000 A 
ATOM     32  C   UNL     1      11.662  12.475  18.766  0.00  0.00    +0.000 A 
ATOM     33  C   UNL     1      11.502  11.884  20.035  0.00  0.00    +0.000 A 
ATOM     34  C   UNL     1      10.408  12.206  20.825  0.00  0.00    +0.000 A 
ATOM     35  C   UNL     1       9.510  13.118  20.301  0.00  0.00    +0.000 A 
ATOM     36  C   UNL     1       8.318  13.642  20.920  0.00  0.00    +0.000 C 
ATOM     37  O   UNL     1       7.972  13.232  22.014  0.00  0.00    +0.000 OA
ENDBRANCH  25  27
ENDBRANCH   5  21
TORSDOF 3
ENDMDL
MODEL 2
REMARK VINA RESULT:      -8.7      0.320      1.498
REMARK  Name = 
REMARK  3 active torsions:
REMARK  status: ('A' for Active; 'I' for Inactive)
REMARK    1  A    between atoms: C_11  and  C_12
REMARK    2  A    between atoms: C_16  and  C_18
REMARK    3  A    between atoms: C_22  and  N_23
REMARK                            x       y       z     vdW  Elec       q    Type
REMARK                         _______ _______ _______ _____ _____    ______ ____
ROOT
ATOM      1  C   UNL     1      -0.332  13.458  20.595  0.00  0.00    +0.000 C 
ATOM      2  C   UNL     1      -0.223  14.063  19.179  0.00  0.00    +0.000 C 
ATOM      3  C   UNL     1       1.089  13.724  18.482  0.00  0.00    +0.000 C 
ATOM      4  N   UNL     1       2.213  14.122  19.323  0.00  0.00    +0.000 N 
ATOM      5  C   UNL     1       3.253  14.824  18.711  0.00  0.00    +0.000 C 
ATOM      6  O   UNL     1       3.242  15.089  17.509  0.00  0.00    +0.000 OA
ATOM      7  C   UNL     1       2.230  13.513  20.656  0.00  0.00    +0.000 C 
ATOM      8  C   UNL     1       0.933  13.818  21.396  0.00  0.00    +0.000 C 
ENDROOT
BRANCH   1  19
ATOM      9  O   UNL     1       1.245  10.706  21.574  0.00  0.00    +0.000 OA
ATOM     10  C   UNL     1       0.449  10.924  20.680  0.00  0.00    +0.000 C 
ATOM     11  N   UNL     1       0.411  10.229  19.482  0.00  0.00    +0.000 N 
ATOM     12  C   UNL     1      -0.735  10.525  18.769  0.00  0.00    +0.000 A 
ATOM     13  C   UNL     1      -1.160   9.934  17.603  0.00  0.00    +0.000 A 
ATOM     14  C   UNL     1      -2.396  10.344  17.108  0.00  0.00    +0.000 A 
ATOM     15 CL   UNL     1      -3.003   9.631  15.663  0.00  0.00    +0.000 Cl
ATOM     16  C   UNL     1      -3.163  11.319  17.773  0.00  0.00    +0.000 A 
ATOM     17  C   UNL     1      -2.697  11.915  18.951  0.00  0.00    +0.000 A 
ATOM     18  C   UNL     1      -1.468  11.507  19.437  0.00  0.00    +0.000 A 
ATOM     19  C   UNL     1      -0.708  11.955  20.670  0.00  0.00    +0.000 C 
ATOM     20  H   UNL     1       1.074   9.500  19.261  0.00  0.00    +0.000 HD
ENDBRANCH   1  19
BRANCH   5  21
ATOM     21  C   UNL     1       4.415  15.291  19.520  0.00  0.00    +0.000 A 
ATOM     22  C   UNL     1       4.450  16.507  20.200  0.00  0.00    +0.000 A 
ATOM     23  C   UNL     1       5.547  16.842  20.988  0.00  0.00    +0.000 A 
ATOM     24  C   UNL     1       6.693  16.046  20.965  0.00  0.00    +0.000 A 
ATOM     25  C   UNL     1       6.741  14.909  20.154  0.00  0.00    +0.000 A 
ATOM     26  C   UNL     1       5.565  14.507  19.501  0.00  0.00    +0.000 A 
BRANCH  25  27
ATOM     27  N   UNL     1       7.946  14.200  19.913  0.00  0.00    +0.000 N 
ATOM     28  C   UNL     1       8.610  13.354  20.789  0.00  0.00    +0.000 C 
ATOM     29  O   UNL     1       8.315  12.967  21.912  0.00  0.00    +0.000 OA
ATOM     30  C   UNL     1       9.826  12.928  20.102  0.00  0.00    +0.000 A 
ATOM     31  C   UNL     1      10.833  12.048  20.450  0.00  0.00    +0.000 A 
ATOM     32  C   UNL     1      11.896  11.881  19.542  0.00  0.00    +0.000 A 
ATOM     33  C   UNL     1      11.950  12.604  18.334  0.00  0.00    +0.000 A 
ATOM     34  C   UNL     1      10.931  13.486  17.999  0.00  0.00    +0.000 A 
ATOM     35  C   UNL     1       9.891  13.604  18.902  0.00  0.00    +0.000 A 
ATOM     36  C   UNL     1       8.706  14.418  18.784  0.00  0.00    +0.000 C 
ATOM     37  O   UNL     1       8.569  15.156  17.825  0.00  0.00    +0.000 OA
ENDBRANCH  25  27
ENDBRANCH   5  21
TORSDOF 3
ENDMDL
MODEL 3
REMARK VINA RESULT:      -8.6      6.156     10.825
REMARK  Name = 
REMARK  3 active torsions:
REMARK  status: ('A' for Active; 'I' for Inactive)
REMARK    1  A    between atoms: C_11  and  C_12
REMARK    2  A    between atoms: C_16  and  C_18
REMARK    3  A    between atoms: C_22  and  N_23
REMARK                            x       y       z     vdW  Elec       q    Type
REMARK                         _______ _______ _______ _____ _____    ______ ____
ROOT
ATOM      1  C   UNL     1       3.934   6.371  18.482  0.00  0.00    +0.000 C 
ATOM      2  C   UNL     1       3.456   6.217  19.942  0.00  0.00    +0.000 C 
ATOM      3  C   UNL     1       1.971   6.513  20.121  0.00  0.00    +0.000 C 
ATOM      4  N   UNL     1       1.665   7.839  19.594  0.00  0.00    +0.000 N 
ATOM      5  C   UNL     1       0.882   8.678  20.388  0.00  0.00    +0.000 C 
ATOM      6  O   UNL     1       0.448   8.322  21.483  0.00  0.00    +0.000 OA
ATOM      7  C   UNL     1       2.005   8.033  18.181  0.00  0.00    +0.000 C 
ATOM      8  C   UNL     1       3.482   7.743  17.946  0.00  0.00    +0.000 C 
ENDROOT
BRANCH   1  19
ATOM      9  O   UNL     1       3.090   3.189  18.911  0.00  0.00    +0.000 OA
ATOM     10  C   UNL     1       3.776   3.754  18.079  0.00  0.00    +0.000 C 
ATOM     11  N   UNL     1       4.846   3.168  17.423  0.00  0.00    +0.000 N 
ATOM     12  C   UNL     1       5.279   3.955  16.372  0.00  0.00    +0.000 A 
ATOM     13  C   UNL     1       6.233   3.633  15.436  0.00  0.00    +0.000 A 
ATOM     14  C   UNL     1       6.445   4.560  14.417  0.00  0.00    +0.000 A 
ATOM     15 CL   UNL     1       7.609   4.215  13.195  0.00  0.00    +0.000 Cl
ATOM     16  C   UNL     1       5.718   5.764  14.359  0.00  0.00    +0.000 A 
ATOM     17  C   UNL     1       4.764   6.070  15.336  0.00  0.00    +0.000 A 
ATOM     18  C   UNL     1       4.558   5.150  16.348  0.00  0.00    +0.000 A 
ATOM     19  C   UNL     1       3.608   5.193  17.528  0.00  0.00    +0.000 C 
ATOM     20  H   UNL     1       5.146   2.223  17.618  0.00  0.00    +0.000 HD
ENDBRANCH   1  19
BRANCH   5  21
ATOM     21  C   UNL     1       0.560  10.058  19.924  0.00  0.00    +0.000 A 
ATOM     22  C   UNL     1       1.474  11.111  19.923  0.00  0.00    +0.000 A 
ATOM     23  C   UNL     1       1.116  12.355  19.413  0.00  0.00    +0.000 A 
ATOM     24  C   UNL     1      -0.210  12.609  19.058  0.00  0.00    +0.000 A 
ATOM     25  C   UNL     1      -1.180  11.615  19.212  0.00  0.00    +0.000 A 
ATOM     26  C   UNL     1      -0.759  10.325  19.571  0.00  0.00    +0.000 A 
BRANCH  25  27
ATOM     27  N   UNL     1      -2.567  11.885  19.091  0.00  0.00    +0.000 N 
ATOM     28  C   UNL     1      -3.412  12.388  20.070  0.00  0.00    +0.000 C 
ATOM     29  O   UNL     1      -3.183  12.771  21.210  0.00  0.00    +0.000 OA
ATOM     30  C   UNL     1      -4.747  12.422  19.479  0.00  0.00    +0.000 A 
ATOM     31  C   UNL     1      -5.963  12.878  19.951  0.00  0.00    +0.000 A 
ATOM     32  C   UNL     1      -7.083  12.737  19.111  0.00  0.00    +0.000 A 
ATOM     33  C   UNL     1      -6.978  12.128  17.844  0.00  0.00    +0.000 A 
ATOM     34  C   UNL     1      -5.749  11.674  17.384  0.00  0.00    +0.000 A 
ATOM     35  C   UNL     1      -4.667  11.853  18.226  0.00  0.00    +0.000 A 
ATOM     36  C   UNL     1      -3.290  11.503  17.982  0.00  0.00    +0.000 C 
ATOM     37  O   UNL     1      -2.982  10.927  16.953  0.00  0.00    +0.000 OA
ENDBRANCH  25  27
ENDBRANCH   5  21
TORSDOF 3
ENDMDL
MODEL 4
REMARK VINA RESULT:      -8.5      6.179     10.788
REMARK  Name = 
REMARK  3 active torsions:
REMARK  status: ('A' for Active; 'I' for Inactive)
REMARK    1  A    between atoms: C_11  and  C_12
REMARK    2  A    between atoms: C_16  and  C_18
REMARK    3  A    between atoms: C_22  and  N_23
REMARK                            x       y       z     vdW  Elec       q    Type
REMARK                         _______ _______ _______ _____ _____    ______ ____
ROOT
ATOM      1  C   UNL     1       3.959   6.427  18.383  0.00  0.00    +0.000 C 
ATOM      2  C   UNL     1       3.548   6.290  19.865  0.00  0.00    +0.000 C 
ATOM      3  C   UNL     1       2.065   6.551  20.102  0.00  0.00    +0.000 C 
ATOM      4  N   UNL     1       1.700   7.857  19.562  0.00  0.00    +0.000 N 
ATOM      5  C   UNL     1       0.929   8.691  20.373  0.00  0.00    +0.000 C 
ATOM      6  O   UNL     1       0.552   8.346  21.492  0.00  0.00    +0.000 OA
ATOM      7  C   UNL     1       1.975   8.031  18.133  0.00  0.00    +0.000 C 
ATOM      8  C   UNL     1       3.448   7.775  17.840  0.00  0.00    +0.000 C 
ENDROOT
BRANCH   1  19
ATOM      9  O   UNL     1       3.101   3.264  18.913  0.00  0.00    +0.000 OA
ATOM     10  C   UNL     1       3.788   3.800  18.062  0.00  0.00    +0.000 C 
ATOM     11  N   UNL     1       4.853   3.188  17.422  0.00  0.00    +0.000 N 
ATOM     12  C   UNL     1       5.287   3.940  16.346  0.00  0.00    +0.000 A 
ATOM     13  C   UNL     1       6.237   3.585  15.418  0.00  0.00    +0.000 A 
ATOM     14  C   UNL     1       6.452   4.478  14.371  0.00  0.00    +0.000 A 
ATOM     15 CL   UNL     1       7.611   4.089  13.158  0.00  0.00    +0.000 Cl
ATOM     16  C   UNL     1       5.731   5.683  14.277  0.00  0.00    +0.000 A 
ATOM     17  C   UNL     1       4.780   6.025  15.246  0.00  0.00    +0.000 A 
ATOM     18  C   UNL     1       4.572   5.137  16.287  0.00  0.00    +0.000 A 
ATOM     19  C   UNL     1       3.625   5.221  17.467  0.00  0.00    +0.000 C 
ATOM     20  H   UNL     1       5.149   2.248  17.645  0.00  0.00    +0.000 HD
ENDBRANCH   1  19
BRANCH   5  21
ATOM     21  C   UNL     1       0.551  10.053  19.897  0.00  0.00    +0.000 A 
ATOM     22  C   UNL     1       1.401  11.156  19.942  0.00  0.00    +0.000 A 
ATOM     23  C   UNL     1       0.996  12.380  19.417  0.00  0.00    +0.000 A 
ATOM     24  C   UNL     1      -0.323  12.559  19.000  0.00  0.00    +0.000 A 
ATOM     25  C   UNL     1      -1.241  11.509  19.105  0.00  0.00    +0.000 A 
ATOM     26  C   UNL     1      -0.764  10.244  19.481  0.00  0.00    +0.000 A 
BRANCH  25  27
ATOM     27  N   UNL     1      -2.634  11.699  18.917  0.00  0.00    +0.000 N 
ATOM     28  C   UNL     1      -3.358  11.499  17.751  0.00  0.00    +0.000 C 
ATOM     29  O   UNL     1      -3.018  11.067  16.657  0.00  0.00    +0.000 OA
ATOM     30  C   UNL     1      -4.732  11.893  18.050  0.00  0.00    +0.000 A 
ATOM     31  C   UNL     1      -5.896  11.855  17.306  0.00  0.00    +0.000 A 
ATOM     32  C   UNL     1      -7.070  12.345  17.906  0.00  0.00    +0.000 A 
ATOM     33  C   UNL     1      -7.059  12.883  19.209  0.00  0.00    +0.000 A 
ATOM     34  C   UNL     1      -5.882  12.916  19.944  0.00  0.00    +0.000 A 
ATOM     35  C   UNL     1      -4.754  12.401  19.332  0.00  0.00    +0.000 A 
ATOM     36  C   UNL     1      -3.425  12.289  19.879  0.00  0.00    +0.000 C 
ATOM     37  O   UNL     1      -3.185  12.731  20.990  0.00  0.00    +0.000 OA
ENDBRANCH  25  27
ENDBRANCH   5  21
TORSDOF 3
ENDMDL
MODEL 5
REMARK VINA RESULT:      -8.5      4.009     10.807
REMARK  Name = 
REMARK  3 active torsions:
REMARK  status: ('A' for Active; 'I' for Inactive)
REMARK    1  A    between atoms: C_11  and  C_12
REMARK    2  A    between atoms: C_16  and  C_18
REMARK    3  A    between atoms: C_22  and  N_23
REMARK                            x       y       z     vdW  Elec       q    Type
REMARK                         _______ _______ _______ _____ _____    ______ ____
ROOT
ATOM      1  C   UNL     1       4.685  15.265  17.888  0.00  0.00    +0.000 C 
ATOM      2  C   UNL     1       3.658  16.367  17.547  0.00  0.00    +0.000 C 
ATOM      3  C   UNL     1       2.565  16.514  18.599  0.00  0.00    +0.000 C 
ATOM      4  N   UNL     1       1.916  15.226  18.822  0.00  0.00    +0.000 N 
ATOM      5  C   UNL     1       0.521  15.210  18.851  0.00  0.00    +0.000 C 
ATOM      6  O   UNL     1      -0.146  16.234  18.712  0.00  0.00    +0.000 OA
ATOM      7  C   UNL     1       2.816  14.148  19.242  0.00  0.00    +0.000 C 
ATOM      8  C   UNL     1       3.935  13.963  18.223  0.00  0.00    +0.000 C 
ENDROOT
BRANCH   1  19
ATOM      9  O   UNL     1       5.392  17.999  19.635  0.00  0.00    +0.000 OA
ATOM     10  C   UNL     1       6.093  17.146  19.120  0.00  0.00    +0.000 C 
ATOM     11  N   UNL     1       7.370  17.375  18.635  0.00  0.00    +0.000 N 
ATOM     12  C   UNL     1       8.009  16.187  18.334  0.00  0.00    +0.000 A 
ATOM     13  C   UNL     1       9.319  16.027  17.948  0.00  0.00    +0.000 A 
ATOM     14  C   UNL     1       9.765  14.718  17.776  0.00  0.00    +0.000 A 
ATOM     15 CL   UNL     1      11.401  14.440  17.315  0.00  0.00    +0.000 Cl
ATOM     16  C   UNL     1       8.908  13.621  17.984  0.00  0.00    +0.000 A 
ATOM     17  C   UNL     1       7.575  13.815  18.362  0.00  0.00    +0.000 A 
ATOM     18  C   UNL     1       7.135  15.117  18.529  0.00  0.00    +0.000 A 
ATOM     19  C   UNL     1       5.771  15.642  18.929  0.00  0.00    +0.000 C 
ATOM     20  H   UNL     1       7.798  18.290  18.654  0.00  0.00    +0.000 HD
ENDBRANCH   1  19
BRANCH   5  21
ATOM     21  C   UNL     1      -0.206  13.922  19.040  0.00  0.00    +0.000 A 
ATOM     22  C   UNL     1      -0.132  12.850  18.152  0.00  0.00    +0.000 A 
ATOM     23  C   UNL     1      -0.789  11.656  18.432  0.00  0.00    +0.000 A 
ATOM     24  C   UNL     1      -1.668  11.579  19.514  0.00  0.00    +0.000 A 
ATOM     25  C   UNL     1      -1.887  12.700  20.320  0.00  0.00    +0.000 A 
ATOM     26  C   UNL     1      -1.088  13.834  20.113  0.00  0.00    +0.000 A 
BRANCH  25  27
ATOM     27  N   UNL     1      -2.931  12.750  21.279  0.00  0.00    +0.000 N 
ATOM     28  C   UNL     1      -2.847  12.429  22.626  0.00  0.00    +0.000 C 
ATOM     29  O   UNL     1      -1.892  12.101  23.317  0.00  0.00    +0.000 OA
ATOM     30  C   UNL     1      -4.196  12.578  23.166  0.00  0.00    +0.000 A 
ATOM     31  C   UNL     1      -4.707  12.456  24.444  0.00  0.00    +0.000 A 
ATOM     32  C   UNL     1      -6.091  12.650  24.614  0.00  0.00    +0.000 A 
ATOM     33  C   UNL     1      -6.933  12.931  23.519  0.00  0.00    +0.000 A 
ATOM     34  C   UNL     1      -6.405  13.049  22.241  0.00  0.00    +0.000 A 
ATOM     35  C   UNL     1      -5.038  12.879  22.116  0.00  0.00    +0.000 A 
ATOM     36  C   UNL     1      -4.241  12.978  20.919  0.00  0.00    +0.000 C 
ATOM     37  O   UNL     1      -4.780  13.180  19.844  0.00  0.00    +0.000 OA
ENDBRANCH  25  27
ENDBRANCH   5  21
TORSDOF 3
ENDMDL
MODEL 6
REMARK VINA RESULT:      -8.5      1.166      1.339
REMARK  Name = 
REMARK  3 active torsions:
REMARK  status: ('A' for Active; 'I' for Inactive)
REMARK    1  A    between atoms: C_11  and  C_12
REMARK    2  A    between atoms: C_16  and  C_18
REMARK    3  A    between atoms: C_22  and  N_23
REMARK                            x       y       z     vdW  Elec       q    Type
REMARK                         _______ _______ _______ _____ _____    ______ ____
ROOT
ATOM      1  C   UNL     1      -0.065  13.838  20.480  0.00  0.00    +0.000 C 
ATOM      2  C   UNL     1       0.050  14.676  19.188  0.00  0.00    +0.000 C 
ATOM      3  C   UNL     1       1.342  14.423  18.421  0.00  0.00    +0.000 C 
ATOM      4  N   UNL     1       2.488  14.634  19.300  0.00  0.00    +0.000 N 
ATOM      5  C   UNL     1       3.544  15.398  18.802  0.00  0.00    +0.000 C 
ATOM      6  O   UNL     1       3.529  15.868  17.665  0.00  0.00    +0.000 OA
ATOM      7  C   UNL     1       2.499  13.801  20.507  0.00  0.00    +0.000 C 
ATOM      8  C   UNL     1       1.221  14.014  21.310  0.00  0.00    +0.000 C 
ENDROOT
BRANCH   1  19
ATOM      9  O   UNL     1       1.380  11.136  19.202  0.00  0.00    +0.000 OA
ATOM     10  C   UNL     1       0.229  11.532  19.203  0.00  0.00    +0.000 C 
ATOM     11  N   UNL     1      -0.688  11.264  18.200  0.00  0.00    +0.000 N 
ATOM     12  C   UNL     1      -1.965  11.629  18.580  0.00  0.00    +0.000 A 
ATOM     13  C   UNL     1      -3.132  11.400  17.890  0.00  0.00    +0.000 A 
ATOM     14  C   UNL     1      -4.315  11.792  18.515  0.00  0.00    +0.000 A 
ATOM     15 CL   UNL     1      -5.817  11.515  17.720  0.00  0.00    +0.000 Cl
ATOM     16  C   UNL     1      -4.305  12.395  19.786  0.00  0.00    +0.000 A 
ATOM     17  C   UNL     1      -3.100  12.630  20.458  0.00  0.00    +0.000 A 
ATOM     18  C   UNL     1      -1.928  12.243  19.834  0.00  0.00    +0.000 A 
ATOM     19  C   UNL     1      -0.490  12.358  20.299  0.00  0.00    +0.000 C 
ATOM     20  H   UNL     1      -0.445  10.734  17.375  0.00  0.00    +0.000 HD
ENDBRANCH   1  19
BRANCH   5  21
ATOM     21  C   UNL     1       4.730  15.681  19.661  0.00  0.00    +0.000 A 
ATOM     22  C   UNL     1       4.807  16.750  20.552  0.00  0.00    +0.000 A 
ATOM     23  C   UNL     1       5.925  16.909  21.367  0.00  0.00    +0.000 A 
ATOM     24  C   UNL     1       7.048  16.103  21.177  0.00  0.00    +0.000 A 
ATOM     25  C   UNL     1       7.054  15.133  20.170  0.00  0.00    +0.000 A 
ATOM     26  C   UNL     1       5.858  14.886  19.478  0.00  0.00    +0.000 A 
BRANCH  25  27
ATOM     27  N   UNL     1       8.235  14.452  19.781  0.00  0.00    +0.000 N 
ATOM     28  C   UNL     1       8.920  14.581  18.582  0.00  0.00    +0.000 C 
ATOM     29  O   UNL     1       8.735  15.321  17.625  0.00  0.00    +0.000 OA
ATOM     30  C   UNL     1      10.024  13.626  18.638  0.00  0.00    +0.000 A 
ATOM     31  C   UNL     1      11.064  13.352  17.769  0.00  0.00    +0.000 A 
ATOM     32  C   UNL     1      11.961  12.329  18.129  0.00  0.00    +0.000 A 
ATOM     33  C   UNL     1      11.794  11.589  19.317  0.00  0.00    +0.000 A 
ATOM     34  C   UNL     1      10.743  11.876  20.179  0.00  0.00    +0.000 A 
ATOM     35  C   UNL     1       9.897  12.904  19.805  0.00  0.00    +0.000 A 
ATOM     36  C   UNL     1       8.760  13.419  20.526  0.00  0.00    +0.000 C 
ATOM     37  O   UNL     1       8.413  12.893  21.570  0.00  0.00    +0.000 OA
ENDBRANCH  25  27
ENDBRANCH   5  21
TORSDOF 3
ENDMDL
MODEL 7
REMARK VINA RESULT:      -8.4      6.073      8.010
REMARK  Name = 
REMARK  3 active torsions:
REMARK  status: ('A' for Active; 'I' for Inactive)
REMARK    1  A    between atoms: C_11  and  C_12
REMARK    2  A    between atoms: C_16  and  C_18
REMARK    3  A    between atoms: C_22  and  N_23
REMARK                            x       y       z     vdW  Elec       q    Type
REMARK                         _______ _______ _______ _____ _____    ______ ____
ROOT
ATOM      1  C   UNL     1      -0.989  12.027  22.008  0.00  0.00    +0.000 C 
ATOM      2  C   UNL     1      -0.056  12.626  20.933  0.00  0.00    +0.000 C 
ATOM      3  C   UNL     1      -0.022  11.810  19.646  0.00  0.00    +0.000 C 
ATOM      4  N   UNL     1       0.327  10.425  19.948  0.00  0.00    +0.000 N 
ATOM      5  C   UNL     1       1.299   9.823  19.149  0.00  0.00    +0.000 C 
ATOM      6  O   UNL     1       1.837  10.417  18.215  0.00  0.00    +0.000 OA
ATOM      7  C   UNL     1      -0.572   9.756  20.893  0.00  0.00    +0.000 C 
ATOM      8  C   UNL     1      -0.646  10.538  22.199  0.00  0.00    +0.000 C 
ENDROOT
BRANCH   1  19
ATOM      9  O   UNL     1      -3.040  12.132  19.400  0.00  0.00    +0.000 OA
ATOM     10  C   UNL     1      -2.986  12.776  20.432  0.00  0.00    +0.000 C 
ATOM     11  N   UNL     1      -3.405  14.091  20.553  0.00  0.00    +0.000 N 
ATOM     12  C   UNL     1      -3.452  14.479  21.879  0.00  0.00    +0.000 A 
ATOM     13  C   UNL     1      -3.934  15.667  22.377  0.00  0.00    +0.000 A 
ATOM     14  C   UNL     1      -3.953  15.801  23.763  0.00  0.00    +0.000 A 
ATOM     15 CL   UNL     1      -4.564  17.253  24.460  0.00  0.00    +0.000 Cl
ATOM     16  C   UNL     1      -3.495  14.770  24.605  0.00  0.00    +0.000 A 
ATOM     17  C   UNL     1      -2.995  13.577  24.068  0.00  0.00    +0.000 A 
ATOM     18  C   UNL     1      -2.975  13.449  22.691  0.00  0.00    +0.000 A 
ATOM     19  C   UNL     1      -2.505  12.298  21.825  0.00  0.00    +0.000 C 
ATOM     20  H   UNL     1      -3.764  14.617  19.769  0.00  0.00    +0.000 HD
ENDBRANCH   1  19
BRANCH   5  21
ATOM     21  C   UNL     1       1.727   8.421  19.424  0.00  0.00    +0.000 A 
ATOM     22  C   UNL     1       1.612   7.804  20.668  0.00  0.00    +0.000 A 
ATOM     23  C   UNL     1       1.975   6.469  20.830  0.00  0.00    +0.000 A 
ATOM     24  C   UNL     1       2.617   5.790  19.793  0.00  0.00    +0.000 A 
ATOM     25  C   UNL     1       2.896   6.446  18.591  0.00  0.00    +0.000 A 
ATOM     26  C   UNL     1       2.373   7.735  18.400  0.00  0.00    +0.000 A 
BRANCH  25  27
ATOM     27  N   UNL     1       3.744   5.887  17.601  0.00  0.00    +0.000 N 
ATOM     28  C   UNL     1       3.641   4.630  17.023  0.00  0.00    +0.000 C 
ATOM     29  O   UNL     1       2.802   3.749  17.157  0.00  0.00    +0.000 OA
ATOM     30  C   UNL     1       4.780   4.503  16.118  0.00  0.00    +0.000 A 
ATOM     31  C   UNL     1       5.163   3.510  15.236  0.00  0.00    +0.000 A 
ATOM     32  C   UNL     1       6.357   3.702  14.517  0.00  0.00    +0.000 A 
ATOM     33  C   UNL     1       7.151   4.852  14.705  0.00  0.00    +0.000 A 
ATOM     34  C   UNL     1       6.753   5.840  15.595  0.00  0.00    +0.000 A 
ATOM     35  C   UNL     1       5.562   5.629  16.265  0.00  0.00    +0.000 A 
ATOM     36  C   UNL     1       4.913   6.502  17.211  0.00  0.00    +0.000 C 
ATOM     37  O   UNL     1       5.453   7.542  17.547  0.00  0.00    +0.000 OA
ENDBRANCH  25  27
ENDBRANCH   5  21
TORSDOF 3
ENDMDL
MODEL 8
REMARK VINA RESULT:      -8.4      1.231      2.000
REMARK  Name = 
REMARK  3 active torsions:
REMARK  status: ('A' for Active; 'I' for Inactive)
REMARK    1  A    between atoms: C_11  and  C_12
REMARK    2  A    between atoms: C_16  and  C_18
REMARK    3  A    between atoms: C_22  and  N_23
REMARK                            x       y       z     vdW  Elec       q    Type
REMARK                         _______ _______ _______ _____ _____    ______ ____
ROOT
ATOM      1  C   UNL     1       0.207  13.967  20.464  0.00  0.00    +0.000 C 
ATOM      2  C   UNL     1       0.232  14.843  19.193  0.00  0.00    +0.000 C 
ATOM      3  C   UNL     1       1.497  14.659  18.363  0.00  0.00    +0.000 C 
ATOM      4  N   UNL     1       2.673  14.889  19.196  0.00  0.00    +0.000 N 
ATOM      5  C   UNL     1       3.676  15.706  18.674  0.00  0.00    +0.000 C 
ATOM      6  O   UNL     1       3.594  16.205  17.552  0.00  0.00    +0.000 OA
ATOM      7  C   UNL     1       2.768  14.026  20.377  0.00  0.00    +0.000 C 
ATOM      8  C   UNL     1       1.521  14.168  21.241  0.00  0.00    +0.000 C 
ENDROOT
BRANCH   1  19
ATOM      9  O   UNL     1       1.725  11.337  19.122  0.00  0.00    +0.000 OA
ATOM     10  C   UNL     1       0.561  11.695  19.141  0.00  0.00    +0.000 C 
ATOM     11  N   UNL     1      -0.358  11.415  18.143  0.00  0.00    +0.000 N 
ATOM     12  C   UNL     1      -1.642  11.732  18.544  0.00  0.00    +0.000 A 
ATOM     13  C   UNL     1      -2.808  11.477  17.862  0.00  0.00    +0.000 A 
ATOM     14  C   UNL     1      -3.996  11.818  18.505  0.00  0.00    +0.000 A 
ATOM     15 CL   UNL     1      -5.497  11.507  17.721  0.00  0.00    +0.000 Cl
ATOM     16  C   UNL     1      -3.992  12.398  19.788  0.00  0.00    +0.000 A 
ATOM     17  C   UNL     1      -2.788  12.660  20.452  0.00  0.00    +0.000 A 
ATOM     18  C   UNL     1      -1.611  12.323  19.808  0.00  0.00    +0.000 A 
ATOM     19  C   UNL     1      -0.173  12.477  20.260  0.00  0.00    +0.000 C 
ATOM     20  H   UNL     1      -0.106  10.909  17.306  0.00  0.00    +0.000 HD
ENDBRANCH   1  19
BRANCH   5  21
ATOM     21  C   UNL     1       4.889  16.010  19.487  0.00  0.00    +0.000 A 
ATOM     22  C   UNL     1       5.080  17.203  20.181  0.00  0.00    +0.000 A 
ATOM     23  C   UNL     1       6.211  17.386  20.972  0.00  0.00    +0.000 A 
ATOM     24  C   UNL     1       7.245  16.449  20.939  0.00  0.00    +0.000 A 
ATOM     25  C   UNL     1       7.146  15.324  20.114  0.00  0.00    +0.000 A 
ATOM     26  C   UNL     1       5.928  15.085  19.459  0.00  0.00    +0.000 A 
BRANCH  25  27
ATOM     27  N   UNL     1       8.250  14.469  19.865  0.00  0.00    +0.000 N 
ATOM     28  C   UNL     1       8.771  13.503  20.714  0.00  0.00    +0.000 C 
ATOM     29  O   UNL     1       8.397  13.111  21.811  0.00  0.00    +0.000 OA
ATOM     30  C   UNL     1       9.935  12.945  20.031  0.00  0.00    +0.000 A 
ATOM     31  C   UNL     1      10.804  11.921  20.357  0.00  0.00    +0.000 A 
ATOM     32  C   UNL     1      11.858  11.651  19.464  0.00  0.00    +0.000 A 
ATOM     33  C   UNL     1      12.040  12.412  18.292  0.00  0.00    +0.000 A 
ATOM     34  C   UNL     1      11.158  13.437  17.978  0.00  0.00    +0.000 A 
ATOM     35  C   UNL     1      10.121  13.657  18.865  0.00  0.00    +0.000 A 
ATOM     36  C   UNL     1       9.061  14.630  18.763  0.00  0.00    +0.000 C 
ATOM     37  O   UNL     1       9.050  15.421  17.836  0.00  0.00    +0.000 OA
ENDBRANCH  25  27
ENDBRANCH   5  21
TORSDOF 3
ENDMDL
MODEL 9
REMARK VINA RESULT:      -8.3      4.661      7.244
REMARK  Name = 
REMARK  3 active torsions:
REMARK  status: ('A' for Active; 'I' for Inactive)
REMARK    1  A    between atoms: C_11  and  C_12
REMARK    2  A    between atoms: C_16  and  C_18
REMARK    3  A    between atoms: C_22  and  N_23
REMARK                            x       y       z     vdW  Elec       q    Type
REMARK                         _______ _______ _______ _____ _____    ______ ____
ROOT
ATOM      1  C   UNL     1       2.779   7.051  19.453  0.00  0.00    +0.000 C 
ATOM      2  C   UNL     1       2.121   6.833  20.832  0.00  0.00    +0.000 C 
ATOM      3  C   UNL     1       0.683   7.334  20.897  0.00  0.00    +0.000 C 
ATOM      4  N   UNL     1       0.629   8.735  20.492  0.00  0.00    +0.000 N 
ATOM      5  C   UNL     1      -0.112   9.604  21.294  0.00  0.00    +0.000 C 
ATOM      6  O   UNL     1      -0.714   9.215  22.295  0.00  0.00    +0.000 OA
ATOM      7  C   UNL     1       1.152   9.009  19.150  0.00  0.00    +0.000 C 
ATOM      8  C   UNL     1       2.590   8.520  19.031  0.00  0.00    +0.000 C 
ENDROOT
BRANCH   1  19
ATOM      9  O   UNL     1       1.111   4.181  19.398  0.00  0.00    +0.000 OA
ATOM     10  C   UNL     1       2.085   4.580  18.784  0.00  0.00    +0.000 C 
ATOM     11  N   UNL     1       3.099   3.762  18.314  0.00  0.00    +0.000 N 
ATOM     12  C   UNL     1       3.936   4.449  17.455  0.00  0.00    +0.000 A 
ATOM     13  C   UNL     1       4.969   3.927  16.713  0.00  0.00    +0.000 A 
ATOM     14  C   UNL     1       5.625   4.804  15.852  0.00  0.00    +0.000 A 
ATOM     15 CL   UNL     1       6.915   4.216  14.874  0.00  0.00    +0.000 Cl
ATOM     16  C   UNL     1       5.245   6.156  15.756  0.00  0.00    +0.000 A 
ATOM     17  C   UNL     1       4.199   6.663  16.536  0.00  0.00    +0.000 A 
ATOM     18  C   UNL     1       3.552   5.790  17.392  0.00  0.00    +0.000 A 
ATOM     19  C   UNL     1       2.400   6.032  18.346  0.00  0.00    +0.000 C 
ATOM     20  H   UNL     1       3.108   2.765  18.478  0.00  0.00    +0.000 HD
ENDBRANCH   1  19
BRANCH   5  21
ATOM     21  C   UNL     1      -0.180  11.055  20.957  0.00  0.00    +0.000 A 
ATOM     22  C   UNL     1      -1.354  11.715  20.598  0.00  0.00    +0.000 A 
ATOM     23  C   UNL     1      -1.347  13.087  20.361  0.00  0.00    +0.000 A 
ATOM     24  C   UNL     1      -0.137  13.781  20.312  0.00  0.00    +0.000 A 
ATOM     25  C   UNL     1       1.070  13.102  20.503  0.00  0.00    +0.000 A 
ATOM     26  C   UNL     1       1.020  11.757  20.901  0.00  0.00    +0.000 A 
BRANCH  25  27
ATOM     27  N   UNL     1       2.327  13.701  20.236  0.00  0.00    +0.000 N 
ATOM     28  C   UNL     1       3.144  14.371  21.135  0.00  0.00    +0.000 C 
ATOM     29  O   UNL     1       3.033  14.554  22.340  0.00  0.00    +0.000 OA
ATOM     30  C   UNL     1       4.286  14.857  20.365  0.00  0.00    +0.000 A 
ATOM     31  C   UNL     1       5.437  15.530  20.730  0.00  0.00    +0.000 A 
ATOM     32  C   UNL     1       6.342  15.875  19.709  0.00  0.00    +0.000 A 
ATOM     33  C   UNL     1       6.074  15.573  18.358  0.00  0.00    +0.000 A 
ATOM     34  C   UNL     1       4.913  14.898  18.008  0.00  0.00    +0.000 A 
ATOM     35  C   UNL     1       4.060  14.552  19.040  0.00  0.00    +0.000 A 
ATOM     36  C   UNL     1       2.816  13.829  18.954  0.00  0.00    +0.000 C 
ATOM     37  O   UNL     1       2.377  13.502  17.865  0.00  0.00    +0.000 OA
ENDBRANCH  25  27
ENDBRANCH   5  21
TORSDOF 3
ENDMDL
