MODEL 1
REMARK VINA RESULT:      -8.8      0.000      0.000
REMARK  Name = 
REMARK  4 active torsions:
REMARK  status: ('A' for Active; 'I' for Inactive)
REMARK    1  A    between atoms: N_3  and  C_4
REMARK    2  A    between atoms: N_7  and  C_8
REMARK    3  A    between atoms: N_15  and  C_16
REMARK    4  A    between atoms: C_18  and  C_19
REMARK                            x       y       z     vdW  Elec       q    Type
REMARK                         _______ _______ _______ _____ _____    ______ ____
ROOT
ATOM      1  O   UNL     1       8.596   7.579  18.805  0.00  0.00    +0.000 OA
ATOM      2  C   UNL     1       8.012   8.145  17.884  0.00  0.00    +0.000 C 
ATOM      3  N   UNL     1       8.086   9.489  17.604  0.00  0.00    +0.000 N 
ATOM      4  N   UNL     1       7.152   7.459  17.052  0.00  0.00    +0.000 N 
ATOM      5  H   UNL     1       7.394   9.898  16.995  0.00  0.00    +0.000 HD
ATOM      6  H   UNL     1       6.949   7.862  16.150  0.00  0.00    +0.000 HD
ENDROOT
BRANCH   3   7
ATOM      7  C   UNL     1       8.862  10.353  18.363  0.00  0.00    +0.000 A 
ATOM      8  C   UNL     1       9.229  10.302  19.722  0.00  0.00    +0.000 A 
ATOM      9  N   UNL     1       9.973  11.345  20.093  0.00  0.00    +0.000 NA
ATOM     10  N   UNL     1      10.054  12.120  18.982  0.00  0.00    +0.000 N 
ATOM     11  C   UNL     1       9.445  11.509  17.899  0.00  0.00    +0.000 A 
BRANCH  10  12
ATOM     12  C   UNL     1      10.686  13.394  19.035  0.00  0.00    +0.000 A 
ATOM     13  C   UNL     1      11.038  14.042  17.839  0.00  0.00    +0.000 A 
ATOM     14  C   UNL     1      11.670  15.287  17.869  0.00  0.00    +0.000 A 
ATOM     15  C   UNL     1      11.961  15.892  19.089  0.00  0.00    +0.000 A 
ATOM     16  C   UNL     1      11.622  15.252  20.282  0.00  0.00    +0.000 A 
ATOM     17  C   UNL     1      10.986  14.007  20.258  0.00  0.00    +0.000 A 
ENDBRANCH  10  12
ENDBRANCH   3   7
BRANCH   4  18
ATOM     18  C   UNL     1       6.831   6.042  17.353  0.00  0.00    +0.000 C 
ATOM     19  C   UNL     1       5.858   5.807  18.517  0.00  0.00    +0.000 C 
ATOM     20  C   UNL     1       4.703   5.658  17.491  0.00  0.00    +0.000 C 
ATOM     21  C   UNL     1       5.790   5.395  16.416  0.00  0.00    +0.000 C 
BRANCH  20  22
ATOM     22  C   UNL     1       3.574   4.562  17.739  0.00  0.00    +0.000 A 
ATOM     23  C   UNL     1       3.806   3.187  17.520  0.00  0.00    +0.000 A 
ATOM     24  C   UNL     1       2.840   2.215  17.803  0.00  0.00    +0.000 A 
ATOM     25  C   UNL     1       1.612   2.603  18.315  0.00  0.00    +0.000 A 
ATOM     26  F   UNL     1       0.695   1.673  18.613  0.00  0.00    +0.000 F 
ATOM     27  C   UNL     1       1.329   3.943  18.530  0.00  0.00    +0.000 A 
ATOM     28  C   UNL     1       2.300   4.908  18.240  0.00  0.00    +0.000 A 
ENDBRANCH  20  22
ENDBRANCH   4  18
TORSDOF 4
ENDMDL
MODEL 2
REMARK VINA RESULT:      -8.5      3.934     11.243
REMARK  Name = 
REMARK  4 active torsions:
REMARK  status: ('A' for Active; 'I' for Inactive)
REMARK    1  A    between atoms: N_3  and  C_4
REMARK    2  A    between atoms: N_7  and  C_8
REMARK    3  A    between atoms: N_15  and  C_16
REMARK    4  A    between atoms: C_18  and  C_19
REMARK                            x       y       z     vdW  Elec       q    Type
REMARK                         _______ _______ _______ _____ _____    ______ ____
ROOT
ATOM      1  O   UNL     1       8.380   7.457  18.686  0.00  0.00    +0.000 OA
ATOM      2  C   UNL     1       7.812   8.235  17.923  0.00  0.00    +0.000 C 
ATOM      3  N   UNL     1       6.777   7.907  17.080  0.00  0.00    +0.000 N 
ATOM      4  N   UNL     1       8.221   9.548  17.804  0.00  0.00    +0.000 N 
ATOM      5  H   UNL     1       6.543   8.538  16.328  0.00  0.00    +0.000 HD
ATOM      6  H   UNL     1       7.561  10.213  17.430  0.00  0.00    +0.000 HD
ENDROOT
BRANCH   3   7
ATOM      7  C   UNL     1       6.260   6.621  17.021  0.00  0.00    +0.000 A 
ATOM      8  C   UNL     1       6.687   5.495  16.290  0.00  0.00    +0.000 A 
ATOM      9  N   UNL     1       5.904   4.432  16.481  0.00  0.00    +0.000 NA
ATOM     10  N   UNL     1       4.921   4.875  17.304  0.00  0.00    +0.000 N 
ATOM     11  C   UNL     1       5.150   6.182  17.701  0.00  0.00    +0.000 A 
BRANCH  10  12
ATOM     12  C   UNL     1       3.824   4.031  17.638  0.00  0.00    +0.000 A 
ATOM     13  C   UNL     1       2.536   4.583  17.751  0.00  0.00    +0.000 A 
ATOM     14  C   UNL     1       1.448   3.775  18.090  0.00  0.00    +0.000 A 
ATOM     15  C   UNL     1       1.636   2.415  18.324  0.00  0.00    +0.000 A 
ATOM     16  C   UNL     1       2.913   1.861  18.222  0.00  0.00    +0.000 A 
ATOM     17  C   UNL     1       4.005   2.663  17.879  0.00  0.00    +0.000 A 
ENDBRANCH  10  12
ENDBRANCH   3   7
BRANCH   4  18
ATOM     18  C   UNL     1       9.445   9.991  18.515  0.00  0.00    +0.000 C 
ATOM     19  C   UNL     1      10.176  11.196  17.905  0.00  0.00    +0.000 C 
ATOM     20  C   UNL     1       9.466  12.117  18.935  0.00  0.00    +0.000 C 
ATOM     21  C   UNL     1       9.196  10.843  19.777  0.00  0.00    +0.000 C 
BRANCH  20  22
ATOM     22  C   UNL     1      10.274  13.322  19.590  0.00  0.00    +0.000 A 
ATOM     23  C   UNL     1      11.474  13.813  19.030  0.00  0.00    +0.000 A 
ATOM     24  C   UNL     1      12.149  14.916  19.564  0.00  0.00    +0.000 A 
ATOM     25  C   UNL     1      11.633  15.557  20.679  0.00  0.00    +0.000 A 
ATOM     26  F   UNL     1      12.261  16.630  21.175  0.00  0.00    +0.000 F 
ATOM     27  C   UNL     1      10.468  15.103  21.277  0.00  0.00    +0.000 A 
ATOM     28  C   UNL     1       9.802  13.996  20.739  0.00  0.00    +0.000 A 
ENDBRANCH  20  22
ENDBRANCH   4  18
TORSDOF 4
ENDMDL
MODEL 3
REMARK VINA RESULT:      -8.5      4.034     11.193
REMARK  Name = 
REMARK  4 active torsions:
REMARK  status: ('A' for Active; 'I' for Inactive)
REMARK    1  A    between atoms: N_3  and  C_4
REMARK    2  A    between atoms: N_7  and  C_8
REMARK    3  A    between atoms: N_15  and  C_16
REMARK    4  A    between atoms: C_18  and  C_19
REMARK                            x       y       z     vdW  Elec       q    Type
REMARK                         _______ _______ _______ _____ _____    ______ ____
ROOT
ATOM      1  O   UNL     1       7.609   8.400  17.322  0.00  0.00    +0.000 OA
ATOM      2  C   UNL     1       8.221   8.047  18.327  0.00  0.00    +0.000 C 
ATOM      3  N   UNL     1       8.111   6.818  18.935  0.00  0.00    +0.000 N 
ATOM      4  N   UNL     1       9.067   8.912  18.991  0.00  0.00    +0.000 N 
ATOM      5  H   UNL     1       8.457   6.708  19.875  0.00  0.00    +0.000 HD
ATOM      6  H   UNL     1       9.769   8.512  19.594  0.00  0.00    +0.000 HD
ENDROOT
BRANCH   3   7
ATOM      7  C   UNL     1       7.270   5.831  18.441  0.00  0.00    +0.000 A 
ATOM      8  C   UNL     1       7.406   4.986  17.322  0.00  0.00    +0.000 A 
ATOM      9  N   UNL     1       6.360   4.176  17.160  0.00  0.00    +0.000 NA
ATOM     10  N   UNL     1       5.500   4.525  18.150  0.00  0.00    +0.000 N 
ATOM     11  C   UNL     1       6.056   5.482  18.983  0.00  0.00    +0.000 A 
BRANCH  10  12
ATOM     12  C   UNL     1       4.204   3.940  18.221  0.00  0.00    +0.000 A 
ATOM     13  C   UNL     1       3.108   4.615  17.657  0.00  0.00    +0.000 A 
ATOM     14  C   UNL     1       1.827   4.065  17.726  0.00  0.00    +0.000 A 
ATOM     15  C   UNL     1       1.627   2.843  18.364  0.00  0.00    +0.000 A 
ATOM     16  C   UNL     1       2.708   2.170  18.934  0.00  0.00    +0.000 A 
ATOM     17  C   UNL     1       3.994   2.714  18.864  0.00  0.00    +0.000 A 
ENDBRANCH  10  12
ENDBRANCH   3   7
BRANCH   4  18
ATOM     18  C   UNL     1       9.139  10.329  18.557  0.00  0.00    +0.000 C 
ATOM     19  C   UNL     1       8.648  11.369  19.574  0.00  0.00    +0.000 C 
ATOM     20  C   UNL     1      10.122  11.615  19.997  0.00  0.00    +0.000 C 
ATOM     21  C   UNL     1      10.539  10.970  18.650  0.00  0.00    +0.000 C 
BRANCH  20  22
ATOM     22  C   UNL     1      10.601  13.097  20.329  0.00  0.00    +0.000 A 
ATOM     23  C   UNL     1      11.556  13.771  19.537  0.00  0.00    +0.000 A 
ATOM     24  C   UNL     1      11.927  15.097  19.784  0.00  0.00    +0.000 A 
ATOM     25  C   UNL     1      11.346  15.782  20.839  0.00  0.00    +0.000 A 
ATOM     26  F   UNL     1      11.678  17.060  21.062  0.00  0.00    +0.000 F 
ATOM     27  C   UNL     1      10.416  15.159  21.658  0.00  0.00    +0.000 A 
ATOM     28  C   UNL     1      10.054  13.832  21.404  0.00  0.00    +0.000 A 
ENDBRANCH  20  22
ENDBRANCH   4  18
TORSDOF 4
ENDMDL
MODEL 4
REMARK VINA RESULT:      -8.3      4.044     11.248
REMARK  Name = 
REMARK  4 active torsions:
REMARK  status: ('A' for Active; 'I' for Inactive)
REMARK    1  A    between atoms: N_3  and  C_4
REMARK    2  A    between atoms: N_7  and  C_8
REMARK    3  A    between atoms: N_15  and  C_16
REMARK    4  A    between atoms: C_18  and  C_19
REMARK                            x       y       z     vdW  Elec       q    Type
REMARK                         _______ _______ _______ _____ _____    ______ ____
ROOT
ATOM      1  O   UNL     1       7.446   8.486  17.240  0.00  0.00    +0.000 OA
ATOM      2  C   UNL     1       8.150   8.124  18.181  0.00  0.00    +0.000 C 
ATOM      3  N   UNL     1       8.124   6.876  18.758  0.00  0.00    +0.000 N 
ATOM      4  N   UNL     1       9.024   8.995  18.798  0.00  0.00    +0.000 N 
ATOM      5  H   UNL     1       8.550   6.750  19.663  0.00  0.00    +0.000 HD
ATOM      6  H   UNL     1       9.785   8.599  19.329  0.00  0.00    +0.000 HD
ENDROOT
BRANCH   3   7
ATOM      7  C   UNL     1       7.272   5.879  18.307  0.00  0.00    +0.000 A 
ATOM      8  C   UNL     1       7.458   4.893  17.317  0.00  0.00    +0.000 A 
ATOM      9  N   UNL     1       6.382   4.123  17.151  0.00  0.00    +0.000 NA
ATOM     10  N   UNL     1       5.458   4.638  18.001  0.00  0.00    +0.000 N 
ATOM     11  C   UNL     1       5.994   5.662  18.763  0.00  0.00    +0.000 A 
BRANCH  10  12
ATOM     12  C   UNL     1       4.127   4.133  18.013  0.00  0.00    +0.000 A 
ATOM     13  C   UNL     1       3.914   2.744  18.016  0.00  0.00    +0.000 A 
ATOM     14  C   UNL     1       2.616   2.228  18.016  0.00  0.00    +0.000 A 
ATOM     15  C   UNL     1       1.523   3.091  18.005  0.00  0.00    +0.000 A 
ATOM     16  C   UNL     1       1.726   4.472  17.992  0.00  0.00    +0.000 A 
ATOM     17  C   UNL     1       3.022   4.994  17.997  0.00  0.00    +0.000 A 
ENDBRANCH  10  12
ENDBRANCH   3   7
BRANCH   4  18
ATOM     18  C   UNL     1       9.021  10.425  18.401  0.00  0.00    +0.000 C 
ATOM     19  C   UNL     1       8.713  11.431  19.519  0.00  0.00    +0.000 C 
ATOM     20  C   UNL     1      10.238  11.671  19.690  0.00  0.00    +0.000 C 
ATOM     21  C   UNL     1      10.417  11.069  18.272  0.00  0.00    +0.000 C 
BRANCH  20  22
ATOM     22  C   UNL     1      10.768  13.145  19.980  0.00  0.00    +0.000 A 
ATOM     23  C   UNL     1      10.321  13.897  21.088  0.00  0.00    +0.000 A 
ATOM     24  C   UNL     1      10.836  15.164  21.385  0.00  0.00    +0.000 A 
ATOM     25  C   UNL     1      11.817  15.708  20.571  0.00  0.00    +0.000 A 
ATOM     26  F   UNL     1      12.331  16.908  20.868  0.00  0.00    +0.000 F 
ATOM     27  C   UNL     1      12.276  15.018  19.460  0.00  0.00    +0.000 A 
ATOM     28  C   UNL     1      11.752  13.753  19.170  0.00  0.00    +0.000 A 
ENDBRANCH  20  22
ENDBRANCH   4  18
TORSDOF 4
ENDMDL
MODEL 5
REMARK VINA RESULT:      -8.3      3.916     11.216
REMARK  Name = 
REMARK  4 active torsions:
REMARK  status: ('A' for Active; 'I' for Inactive)
REMARK    1  A    between atoms: N_3  and  C_4
REMARK    2  A    between atoms: N_7  and  C_8
REMARK    3  A    between atoms: N_15  and  C_16
REMARK    4  A    between atoms: C_18  and  C_19
REMARK                            x       y       z     vdW  Elec       q    Type
REMARK                         _______ _______ _______ _____ _____    ______ ____
ROOT
ATOM      1  O   UNL     1       8.454   7.713  18.817  0.00  0.00    +0.000 OA
ATOM      2  C   UNL     1       7.927   8.412  17.954  0.00  0.00    +0.000 C 
ATOM      3  N   UNL     1       6.935   8.000  17.095  0.00  0.00    +0.000 N 
ATOM      4  N   UNL     1       8.341   9.709  17.730  0.00  0.00    +0.000 N 
ATOM      5  H   UNL     1       6.741   8.553  16.275  0.00  0.00    +0.000 HD
ATOM      6  H   UNL     1       7.702  10.332  17.260  0.00  0.00    +0.000 HD
ENDROOT
BRANCH   3   7
ATOM      7  C   UNL     1       6.422   6.711  17.134  0.00  0.00    +0.000 A 
ATOM      8  C   UNL     1       6.955   5.497  16.658  0.00  0.00    +0.000 A 
ATOM      9  N   UNL     1       6.139   4.463  16.863  0.00  0.00    +0.000 NA
ATOM     10  N   UNL     1       5.034   5.006  17.433  0.00  0.00    +0.000 N 
ATOM     11  C   UNL     1       5.206   6.360  17.671  0.00  0.00    +0.000 A 
BRANCH  10  12
ATOM     12  C   UNL     1       3.886   4.204  17.692  0.00  0.00    +0.000 A 
ATOM     13  C   UNL     1       4.019   2.807  17.756  0.00  0.00    +0.000 A 
ATOM     14  C   UNL     1       2.903   2.001  17.997  0.00  0.00    +0.000 A 
ATOM     15  C   UNL     1       1.649   2.582  18.168  0.00  0.00    +0.000 A 
ATOM     16  C   UNL     1       1.507   3.968  18.097  0.00  0.00    +0.000 A 
ATOM     17  C   UNL     1       2.620   4.780  17.861  0.00  0.00    +0.000 A 
ENDBRANCH  10  12
ENDBRANCH   3   7
BRANCH   4  18
ATOM     18  C   UNL     1       9.528  10.224  18.456  0.00  0.00    +0.000 C 
ATOM     19  C   UNL     1      10.129  11.530  17.917  0.00  0.00    +0.000 C 
ATOM     20  C   UNL     1       9.350  12.312  19.010  0.00  0.00    +0.000 C 
ATOM     21  C   UNL     1       9.217  10.967  19.771  0.00  0.00    +0.000 C 
BRANCH  20  22
ATOM     22  C   UNL     1      10.048  13.547  19.732  0.00  0.00    +0.000 A 
ATOM     23  C   UNL     1       9.631  14.006  21.001  0.00  0.00    +0.000 A 
ATOM     24  C   UNL     1      10.286  15.046  21.669  0.00  0.00    +0.000 A 
ATOM     25  C   UNL     1      11.382  15.653  21.076  0.00  0.00    +0.000 A 
ATOM     26  F   UNL     1      12.028  16.630  21.725  0.00  0.00    +0.000 F 
ATOM     27  C   UNL     1      11.819  15.252  19.824  0.00  0.00    +0.000 A 
ATOM     28  C   UNL     1      11.155  14.213  19.162  0.00  0.00    +0.000 A 
ENDBRANCH  20  22
ENDBRANCH   4  18
TORSDOF 4
ENDMDL
MODEL 6
REMARK VINA RESULT:      -8.2      6.891      9.049
REMARK  Name = 
REMARK  4 active torsions:
REMARK  status: ('A' for Active; 'I' for Inactive)
REMARK    1  A    between atoms: N_3  and  C_4
REMARK    2  A    between atoms: N_7  and  C_8
REMARK    3  A    between atoms: N_15  and  C_16
REMARK    4  A    between atoms: C_18  and  C_19
REMARK                            x       y       z     vdW  Elec       q    Type
REMARK                         _______ _______ _______ _____ _____    ______ ____
ROOT
ATOM      1  O   UNL     1       3.536   6.485  17.769  0.00  0.00    +0.000 OA
ATOM      2  C   UNL     1       3.883   5.956  18.822  0.00  0.00    +0.000 C 
ATOM      3  N   UNL     1       4.998   5.168  18.985  0.00  0.00    +0.000 N 
ATOM      4  N   UNL     1       3.119   6.067  19.966  0.00  0.00    +0.000 N 
ATOM      5  H   UNL     1       5.067   4.586  19.806  0.00  0.00    +0.000 HD
ATOM      6  H   UNL     1       3.573   5.903  20.851  0.00  0.00    +0.000 HD
ENDROOT
BRANCH   3   7
ATOM      7  C   UNL     1       5.863   4.898  17.935  0.00  0.00    +0.000 A 
ATOM      8  C   UNL     1       7.267   4.781  17.910  0.00  0.00    +0.000 A 
ATOM      9  N   UNL     1       7.740   4.537  16.687  0.00  0.00    +0.000 NA
ATOM     10  N   UNL     1       6.644   4.545  15.888  0.00  0.00    +0.000 N 
ATOM     11  C   UNL     1       5.484   4.695  16.629  0.00  0.00    +0.000 A 
BRANCH  10  12
ATOM     12  C   UNL     1       6.780   4.430  14.475  0.00  0.00    +0.000 A 
ATOM     13  C   UNL     1       7.680   5.269  13.796  0.00  0.00    +0.000 A 
ATOM     14  C   UNL     1       7.818   5.181  12.409  0.00  0.00    +0.000 A 
ATOM     15  C   UNL     1       7.058   4.262  11.690  0.00  0.00    +0.000 A 
ATOM     16  C   UNL     1       6.157   3.432  12.355  0.00  0.00    +0.000 A 
ATOM     17  C   UNL     1       6.016   3.512  13.744  0.00  0.00    +0.000 A 
ENDBRANCH  10  12
ENDBRANCH   3   7
BRANCH   4  18
ATOM     18  C   UNL     1       1.795   6.732  19.889  0.00  0.00    +0.000 C 
ATOM     19  C   UNL     1       1.085   6.969  21.229  0.00  0.00    +0.000 C 
ATOM     20  C   UNL     1       1.612   8.429  21.224  0.00  0.00    +0.000 C 
ATOM     21  C   UNL     1       1.842   8.262  19.699  0.00  0.00    +0.000 C 
BRANCH  20  22
ATOM     22  C   UNL     1       0.668   9.602  21.742  0.00  0.00    +0.000 A 
ATOM     23  C   UNL     1       0.607  10.856  21.095  0.00  0.00    +0.000 A 
ATOM     24  C   UNL     1      -0.273  11.863  21.506  0.00  0.00    +0.000 A 
ATOM     25  C   UNL     1      -1.114  11.636  22.583  0.00  0.00    +0.000 A 
ATOM     26  F   UNL     1      -1.977  12.589  22.961  0.00  0.00    +0.000 F 
ATOM     27  C   UNL     1      -1.079  10.429  23.263  0.00  0.00    +0.000 A 
ATOM     28  C   UNL     1      -0.194   9.429  22.847  0.00  0.00    +0.000 A 
ENDBRANCH  20  22
ENDBRANCH   4  18
TORSDOF 4
ENDMDL
MODEL 7
REMARK VINA RESULT:      -8.1      1.519      1.750
REMARK  Name = 
REMARK  4 active torsions:
REMARK  status: ('A' for Active; 'I' for Inactive)
REMARK    1  A    between atoms: N_3  and  C_4
REMARK    2  A    between atoms: N_7  and  C_8
REMARK    3  A    between atoms: N_15  and  C_16
REMARK    4  A    between atoms: C_18  and  C_19
REMARK                            x       y       z     vdW  Elec       q    Type
REMARK                         _______ _______ _______ _____ _____    ______ ____
ROOT
ATOM      1  O   UNL     1       7.498   9.254  17.808  0.00  0.00    +0.000 OA
ATOM      2  C   UNL     1       8.306   8.656  18.516  0.00  0.00    +0.000 C 
ATOM      3  N   UNL     1       9.261   9.251  19.306  0.00  0.00    +0.000 N 
ATOM      4  N   UNL     1       8.360   7.278  18.534  0.00  0.00    +0.000 N 
ATOM      5  H   UNL     1      10.024   8.690  19.652  0.00  0.00    +0.000 HD
ATOM      6  H   UNL     1       8.793   6.836  19.331  0.00  0.00    +0.000 HD
ENDROOT
BRANCH   3   7
ATOM      7  C   UNL     1       9.395  10.630  19.380  0.00  0.00    +0.000 A 
ATOM      8  C   UNL     1       8.994  11.537  20.380  0.00  0.00    +0.000 A 
ATOM      9  N   UNL     1       9.281  12.802  20.070  0.00  0.00    +0.000 NA
ATOM     10  N   UNL     1       9.829  12.736  18.830  0.00  0.00    +0.000 N 
ATOM     11  C   UNL     1       9.972  11.422  18.415  0.00  0.00    +0.000 A 
BRANCH  10  12
ATOM     12  C   UNL     1      10.158  13.925  18.120  0.00  0.00    +0.000 A 
ATOM     13  C   UNL     1      11.340  13.972  17.362  0.00  0.00    +0.000 A 
ATOM     14  C   UNL     1      11.688  15.134  16.668  0.00  0.00    +0.000 A 
ATOM     15  C   UNL     1      10.866  16.256  16.731  0.00  0.00    +0.000 A 
ATOM     16  C   UNL     1       9.695  16.219  17.488  0.00  0.00    +0.000 A 
ATOM     17  C   UNL     1       9.339  15.059  18.182  0.00  0.00    +0.000 A 
ENDBRANCH  10  12
ENDBRANCH   3   7
BRANCH   4  18
ATOM     18  C   UNL     1       7.514   6.508  17.589  0.00  0.00    +0.000 C 
ATOM     19  C   UNL     1       7.367   5.009  17.888  0.00  0.00    +0.000 C 
ATOM     20  C   UNL     1       6.007   5.304  18.578  0.00  0.00    +0.000 C 
ATOM     21  C   UNL     1       5.994   6.651  17.809  0.00  0.00    +0.000 C 
BRANCH  20  22
ATOM     22  C   UNL     1       4.797   4.288  18.384  0.00  0.00    +0.000 A 
ATOM     23  C   UNL     1       4.547   3.238  19.294  0.00  0.00    +0.000 A 
ATOM     24  C   UNL     1       3.445   2.386  19.165  0.00  0.00    +0.000 A 
ATOM     25  C   UNL     1       2.562   2.569  18.112  0.00  0.00    +0.000 A 
ATOM     26  F   UNL     1       1.491   1.774  18.002  0.00  0.00    +0.000 F 
ATOM     27  C   UNL     1       2.773   3.574  17.181  0.00  0.00    +0.000 A 
ATOM     28  C   UNL     1       3.880   4.419  17.317  0.00  0.00    +0.000 A 
ENDBRANCH  20  22
ENDBRANCH   4  18
TORSDOF 4
ENDMDL
MODEL 8
REMARK VINA RESULT:      -8.1      4.093     11.357
REMARK  Name = 
REMARK  4 active torsions:
REMARK  status: ('A' for Active; 'I' for Inactive)
REMARK    1  A    between atoms: N_3  and  C_4
REMARK    2  A    between atoms: N_7  and  C_8
REMARK    3  A    between atoms: N_15  and  C_16
REMARK    4  A    between atoms: C_18  and  C_19
REMARK                            x       y       z     vdW  Elec       q    Type
REMARK                         _______ _______ _______ _____ _____    ______ ____
ROOT
ATOM      1  O   UNL     1       8.599   8.262  19.100  0.00  0.00    +0.000 OA
ATOM      2  C   UNL     1       8.226   8.779  18.050  0.00  0.00    +0.000 C 
ATOM      3  N   UNL     1       7.380   8.198  17.135  0.00  0.00    +0.000 N 
ATOM      4  N   UNL     1       8.688  10.019  17.658  0.00  0.00    +0.000 N 
ATOM      5  H   UNL     1       7.327   8.586  16.206  0.00  0.00    +0.000 HD
ATOM      6  H   UNL     1       8.140  10.533  16.985  0.00  0.00    +0.000 HD
ENDROOT
BRANCH   3   7
ATOM      7  C   UNL     1       6.850   6.930  17.330  0.00  0.00    +0.000 A 
ATOM      8  C   UNL     1       7.471   5.666  17.314  0.00  0.00    +0.000 A 
ATOM      9  N   UNL     1       6.609   4.669  17.522  0.00  0.00    +0.000 NA
ATOM     10  N   UNL     1       5.400   5.276  17.623  0.00  0.00    +0.000 N 
ATOM     11  C   UNL     1       5.527   6.655  17.577  0.00  0.00    +0.000 A 
BRANCH  10  12
ATOM     12  C   UNL     1       4.210   4.503  17.735  0.00  0.00    +0.000 A 
ATOM     13  C   UNL     1       2.964   5.152  17.767  0.00  0.00    +0.000 A 
ATOM     14  C   UNL     1       1.785   4.413  17.889  0.00  0.00    +0.000 A 
ATOM     15  C   UNL     1       1.840   3.025  17.986  0.00  0.00    +0.000 A 
ATOM     16  C   UNL     1       3.073   2.373  17.963  0.00  0.00    +0.000 A 
ATOM     17  C   UNL     1       4.257   3.107  17.838  0.00  0.00    +0.000 A 
ENDBRANCH  10  12
ENDBRANCH   3   7
BRANCH   4  18
ATOM     18  C   UNL     1       9.749  10.680  18.456  0.00  0.00    +0.000 C 
ATOM     19  C   UNL     1      10.681  11.623  17.683  0.00  0.00    +0.000 C 
ATOM     20  C   UNL     1       9.825  12.826  18.164  0.00  0.00    +0.000 C 
ATOM     21  C   UNL     1       9.283  11.897  19.282  0.00  0.00    +0.000 C 
BRANCH  20  22
ATOM     22  C   UNL     1      10.548  14.186  18.569  0.00  0.00    +0.000 A 
ATOM     23  C   UNL     1      10.017  15.448  18.224  0.00  0.00    +0.000 A 
ATOM     24  C   UNL     1      10.613  16.645  18.638  0.00  0.00    +0.000 A 
ATOM     25  C   UNL     1      11.762  16.603  19.410  0.00  0.00    +0.000 A 
ATOM     26  F   UNL     1      12.319  17.746  19.831  0.00  0.00    +0.000 F 
ATOM     27  C   UNL     1      12.333  15.389  19.760  0.00  0.00    +0.000 A 
ATOM     28  C   UNL     1      11.733  14.198  19.339  0.00  0.00    +0.000 A 
ENDBRANCH  20  22
ENDBRANCH   4  18
TORSDOF 4
ENDMDL
MODEL 9
REMARK VINA RESULT:      -8.1      7.295     10.550
REMARK  Name = 
REMARK  4 active torsions:
REMARK  status: ('A' for Active; 'I' for Inactive)
REMARK    1  A    between atoms: N_3  and  C_4
REMARK    2  A    between atoms: N_7  and  C_8
REMARK    3  A    between atoms: N_15  and  C_16
REMARK    4  A    between atoms: C_18  and  C_19
REMARK                            x       y       z     vdW  Elec       q    Type
REMARK                         _______ _______ _______ _____ _____    ______ ____
ROOT
ATOM      1  O   UNL     1       0.713   9.697  19.821  0.00  0.00    +0.000 OA
ATOM      2  C   UNL     1       0.790   9.802  18.599  0.00  0.00    +0.000 C 
ATOM      3  N   UNL     1      -0.076  10.520  17.808  0.00  0.00    +0.000 N 
ATOM      4  N   UNL     1       1.761   9.135  17.882  0.00  0.00    +0.000 N 
ATOM      5  H   UNL     1      -0.080  10.351  16.814  0.00  0.00    +0.000 HD
ATOM      6  H   UNL     1       1.989   9.482  16.963  0.00  0.00    +0.000 HD
ENDROOT
BRANCH   3   7
ATOM      7  C   UNL     1      -1.148  11.219  18.343  0.00  0.00    +0.000 A 
ATOM      8  C   UNL     1      -1.181  12.268  19.283  0.00  0.00    +0.000 A 
ATOM      9  N   UNL     1      -2.422  12.663  19.568  0.00  0.00    +0.000 NA
ATOM     10  N   UNL     1      -3.220  11.834  18.849  0.00  0.00    +0.000 N 
ATOM     11  C   UNL     1      -2.470  10.990  18.045  0.00  0.00    +0.000 A 
BRANCH  10  12
ATOM     12  C   UNL     1      -4.635  11.887  18.993  0.00  0.00    +0.000 A 
ATOM     13  C   UNL     1      -5.191  12.373  20.189  0.00  0.00    +0.000 A 
ATOM     14  C   UNL     1      -6.577  12.422  20.355  0.00  0.00    +0.000 A 
ATOM     15  C   UNL     1      -7.417  11.982  19.335  0.00  0.00    +0.000 A 
ATOM     16  C   UNL     1      -6.873  11.490  18.149  0.00  0.00    +0.000 A 
ATOM     17  C   UNL     1      -5.487  11.442  17.974  0.00  0.00    +0.000 A 
ENDBRANCH  10  12
ENDBRANCH   3   7
BRANCH   4  18
ATOM     18  C   UNL     1       2.648   8.175  18.586  0.00  0.00    +0.000 C 
ATOM     19  C   UNL     1       1.949   6.987  19.262  0.00  0.00    +0.000 C 
ATOM     20  C   UNL     1       2.291   6.113  18.025  0.00  0.00    +0.000 C 
ATOM     21  C   UNL     1       3.374   7.166  17.672  0.00  0.00    +0.000 C 
BRANCH  20  22
ATOM     22  C   UNL     1       2.725   4.596  18.237  0.00  0.00    +0.000 A 
ATOM     23  C   UNL     1       2.057   3.529  17.598  0.00  0.00    +0.000 A 
ATOM     24  C   UNL     1       2.478   2.201  17.728  0.00  0.00    +0.000 A 
ATOM     25  C   UNL     1       3.587   1.911  18.507  0.00  0.00    +0.000 A 
ATOM     26  F   UNL     1       4.010   0.645  18.611  0.00  0.00    +0.000 F 
ATOM     27  C   UNL     1       4.266   2.921  19.171  0.00  0.00    +0.000 A 
ATOM     28  C   UNL     1       3.835   4.245  19.038  0.00  0.00    +0.000 A 
ENDBRANCH  20  22
ENDBRANCH   4  18
TORSDOF 4
ENDMDL
