MODEL 1
REMARK VINA RESULT:      -9.6      0.000      0.000
REMARK  Name = 
REMARK  6 active torsions:
REMARK  status: ('A' for Active; 'I' for Inactive)
REMARK    1  A    between atoms: C_1  and  C_2
REMARK    2  A    between atoms: C_9  and  C_10
REMARK    3  A    between atoms: N_12  and  C_13
REMARK    4  A    between atoms: C_16  and  O_17
REMARK    5  A    between atoms: O_17  and  C_18
REMARK    6  A    between atoms: C_24  and  C_25
REMARK                            x       y       z     vdW  Elec       q    Type
REMARK                         _______ _______ _______ _____ _____    ______ ____
ROOT
ATOM      1  C   UNL     1       1.949   8.679  18.394  0.00  0.00    +0.000 C 
ATOM      2  O   UNL     1       2.141   9.064  17.244  0.00  0.00    +0.000 OA
ATOM      3  N   UNL     1       2.401   7.499  18.952  0.00  0.00    +0.000 N 
ATOM      4  H   UNL     1       2.015   7.234  19.849  0.00  0.00    +0.000 HD
ENDROOT
BRANCH   1  13
ATOM      5  C   UNL     1      -2.820  13.136  20.726  0.00  0.00    +0.000 C 
ATOM      6  C   UNL     1      -2.443  12.417  21.989  0.00  0.00    +0.000 C 
ATOM      7  O   UNL     1      -3.039  12.690  23.036  0.00  0.00    +0.000 OA
ATOM      8  N   UNL     1      -1.455  11.457  21.959  0.00  0.00    +0.000 N 
ATOM      9  C   UNL     1      -1.192  10.681  23.183  0.00  0.00    +0.000 C 
ATOM     10  C   UNL     1      -0.010   9.757  22.904  0.00  0.00    +0.000 C 
ATOM     11  C   UNL     1       0.158   9.924  21.429  0.00  0.00    +0.000 A 
ATOM     12  C   UNL     1       1.017   9.198  20.619  0.00  0.00    +0.000 A 
ATOM     13  C   UNL     1       1.080   9.516  19.259  0.00  0.00    +0.000 A 
ATOM     14  C   UNL     1       0.295  10.561  18.743  0.00  0.00    +0.000 A 
ATOM     15  C   UNL     1      -0.574  11.281  19.579  0.00  0.00    +0.000 A 
ATOM     16  C   UNL     1      -0.652  10.946  20.923  0.00  0.00    +0.000 A 
ENDBRANCH   1  13
BRANCH   3  17
ATOM     17  C   UNL     1       3.174   6.518  18.294  0.00  0.00    +0.000 A 
ATOM     18  C   UNL     1       4.443   6.755  17.775  0.00  0.00    +0.000 A 
ATOM     19  C   UNL     1       5.103   5.761  17.049  0.00  0.00    +0.000 A 
ATOM     20  C   UNL     1       4.513   4.511  16.833  0.00  0.00    +0.000 A 
ATOM     21  C   UNL     1       3.284   4.214  17.448  0.00  0.00    +0.000 A 
ATOM     22  C   UNL     1       2.583   2.885  17.377  0.00  0.00    +0.000 C 
ATOM     23  C   UNL     1       2.620   5.241  18.152  0.00  0.00    +0.000 A 
BRANCH  20  24
ATOM     24  O   UNL     1       5.304   3.662  16.089  0.00  0.00    +0.000 OA
BRANCH  24  25
ATOM     25  C   UNL     1       5.948   4.095  14.961  0.00  0.00    +0.000 A 
ATOM     26  C   UNL     1       5.629   3.748  13.653  0.00  0.00    +0.000 A 
ATOM     27  C   UNL     1       6.495   4.113  12.623  0.00  0.00    +0.000 A 
ATOM     28  C   UNL     1       7.597   4.895  12.933  0.00  0.00    +0.000 A 
ATOM     29  N   UNL     1       7.865   5.354  14.174  0.00  0.00    +0.000 NA
ATOM     30  C   UNL     1       7.028   4.946  15.158  0.00  0.00    +0.000 A 
ENDBRANCH  24  25
ENDBRANCH  20  24
ENDBRANCH   3  17
TORSDOF 4
ENDMDL
MODEL 2
REMARK VINA RESULT:      -9.2      1.113      1.154
REMARK  Name = 
REMARK  6 active torsions:
REMARK  status: ('A' for Active; 'I' for Inactive)
REMARK    1  A    between atoms: C_1  and  C_2
REMARK    2  A    between atoms: C_9  and  C_10
REMARK    3  A    between atoms: N_12  and  C_13
REMARK    4  A    between atoms: C_16  and  O_17
REMARK    5  A    between atoms: O_17  and  C_18
REMARK    6  A    between atoms: C_24  and  C_25
REMARK                            x       y       z     vdW  Elec       q    Type
REMARK                         _______ _______ _______ _____ _____    ______ ____
ROOT
ATOM      1  C   UNL     1       2.109   7.371  19.663  0.00  0.00    +0.000 C 
ATOM      2  O   UNL     1       2.234   6.427  20.439  0.00  0.00    +0.000 OA
ATOM      3  N   UNL     1       2.685   7.489  18.413  0.00  0.00    +0.000 N 
ATOM      4  H   UNL     1       2.639   8.396  17.967  0.00  0.00    +0.000 HD
ENDROOT
BRANCH   1  13
ATOM      5  C   UNL     1      -1.693  13.159  19.967  0.00  0.00    +0.000 C 
ATOM      6  C   UNL     1      -1.794  12.662  21.380  0.00  0.00    +0.000 C 
ATOM      7  O   UNL     1      -2.503  13.278  22.182  0.00  0.00    +0.000 OA
ATOM      8  N   UNL     1      -1.112  11.526  21.755  0.00  0.00    +0.000 N 
ATOM      9  C   UNL     1      -1.327  10.992  23.111  0.00  0.00    +0.000 C 
ATOM     10  C   UNL     1      -0.401   9.794  23.293  0.00  0.00    +0.000 C 
ATOM     11  C   UNL     1       0.113   9.600  21.903  0.00  0.00    +0.000 A 
ATOM     12  C   UNL     1       0.901   8.546  21.464  0.00  0.00    +0.000 A 
ATOM     13  C   UNL     1       1.331   8.544  20.134  0.00  0.00    +0.000 A 
ATOM     14  C   UNL     1       0.977   9.600  19.277  0.00  0.00    +0.000 A 
ATOM     15  C   UNL     1       0.172  10.655  19.739  0.00  0.00    +0.000 A 
ATOM     16  C   UNL     1      -0.272  10.641  21.053  0.00  0.00    +0.000 A 
ENDBRANCH   1  13
BRANCH   3  17
ATOM     17  C   UNL     1       3.525   6.535  17.798  0.00  0.00    +0.000 A 
ATOM     18  C   UNL     1       4.707   6.858  17.139  0.00  0.00    +0.000 A 
ATOM     19  C   UNL     1       5.432   5.870  16.469  0.00  0.00    +0.000 A 
ATOM     20  C   UNL     1       4.995   4.541  16.450  0.00  0.00    +0.000 A 
ATOM     21  C   UNL     1       3.868   4.176  17.208  0.00  0.00    +0.000 A 
ATOM     22  C   UNL     1       3.343   2.774  17.351  0.00  0.00    +0.000 C 
ATOM     23  C   UNL     1       3.133   5.194  17.852  0.00  0.00    +0.000 A 
BRANCH  20  24
ATOM     24  O   UNL     1       5.829   3.709  15.735  0.00  0.00    +0.000 OA
BRANCH  24  25
ATOM     25  C   UNL     1       6.228   4.023  14.464  0.00  0.00    +0.000 A 
ATOM     26  C   UNL     1       5.739   3.461  13.289  0.00  0.00    +0.000 A 
ATOM     27  C   UNL     1       6.380   3.743  12.084  0.00  0.00    +0.000 A 
ATOM     28  C   UNL     1       7.425   4.653  12.088  0.00  0.00    +0.000 A 
ATOM     29  N   UNL     1       7.841   5.311  13.191  0.00  0.00    +0.000 NA
ATOM     30  C   UNL     1       7.226   4.983  14.353  0.00  0.00    +0.000 A 
ENDBRANCH  24  25
ENDBRANCH  20  24
ENDBRANCH   3  17
TORSDOF 4
ENDMDL
MODEL 3
REMARK VINA RESULT:      -9.2      0.746      1.715
REMARK  Name = 
REMARK  6 active torsions:
REMARK  status: ('A' for Active; 'I' for Inactive)
REMARK    1  A    between atoms: C_1  and  C_2
REMARK    2  A    between atoms: C_9  and  C_10
REMARK    3  A    between atoms: N_12  and  C_13
REMARK    4  A    between atoms: C_16  and  O_17
REMARK    5  A    between atoms: O_17  and  C_18
REMARK    6  A    between atoms: C_24  and  C_25
REMARK                            x       y       z     vdW  Elec       q    Type
REMARK                         _______ _______ _______ _____ _____    ______ ____
ROOT
ATOM      1  C   UNL     1       1.967   8.677  18.196  0.00  0.00    +0.000 C 
ATOM      2  O   UNL     1       2.436   9.196  17.187  0.00  0.00    +0.000 OA
ATOM      3  N   UNL     1       2.236   7.407  18.669  0.00  0.00    +0.000 N 
ATOM      4  H   UNL     1       1.642   7.053  19.407  0.00  0.00    +0.000 HD
ENDROOT
BRANCH   1  13
ATOM      5  C   UNL     1      -1.474  12.145  23.114  0.00  0.00    +0.000 C 
ATOM      6  C   UNL     1      -2.279  12.482  21.893  0.00  0.00    +0.000 C 
ATOM      7  O   UNL     1      -3.228  13.267  21.999  0.00  0.00    +0.000 OA
ATOM      8  N   UNL     1      -1.942  11.930  20.678  0.00  0.00    +0.000 N 
ATOM      9  C   UNL     1      -2.670  12.375  19.477  0.00  0.00    +0.000 C 
ATOM     10  C   UNL     1      -2.163  11.555  18.294  0.00  0.00    +0.000 C 
ATOM     11  C   UNL     1      -0.990  10.853  18.898  0.00  0.00    +0.000 A 
ATOM     12  C   UNL     1      -0.069  10.070  18.218  0.00  0.00    +0.000 A 
ATOM     13  C   UNL     1       0.947   9.449  18.950  0.00  0.00    +0.000 A 
ATOM     14  C   UNL     1       1.011   9.610  20.345  0.00  0.00    +0.000 A 
ATOM     15  C   UNL     1       0.072  10.413  21.014  0.00  0.00    +0.000 A 
ATOM     16  C   UNL     1      -0.920  11.047  20.281  0.00  0.00    +0.000 A 
ENDBRANCH   1  13
BRANCH   3  17
ATOM     17  C   UNL     1       3.109   6.473  18.071  0.00  0.00    +0.000 A 
ATOM     18  C   UNL     1       4.304   6.821  17.448  0.00  0.00    +0.000 A 
ATOM     19  C   UNL     1       5.065   5.851  16.792  0.00  0.00    +0.000 A 
ATOM     20  C   UNL     1       4.651   4.514  16.751  0.00  0.00    +0.000 A 
ATOM     21  C   UNL     1       3.510   4.124  17.472  0.00  0.00    +0.000 A 
ATOM     22  C   UNL     1       3.005   2.712  17.590  0.00  0.00    +0.000 C 
ATOM     23  C   UNL     1       2.739   5.124  18.103  0.00  0.00    +0.000 A 
BRANCH  20  24
ATOM     24  O   UNL     1       5.519   3.702  16.053  0.00  0.00    +0.000 OA
BRANCH  24  25
ATOM     25  C   UNL     1       6.079   4.109  14.872  0.00  0.00    +0.000 A 
ATOM     26  C   UNL     1       5.664   3.738  13.598  0.00  0.00    +0.000 A 
ATOM     27  C   UNL     1       6.452   4.077  12.500  0.00  0.00    +0.000 A 
ATOM     28  C   UNL     1       7.578   4.858  12.711  0.00  0.00    +0.000 A 
ATOM     29  N   UNL     1       7.939   5.340  13.920  0.00  0.00    +0.000 NA
ATOM     30  C   UNL     1       7.175   4.957  14.971  0.00  0.00    +0.000 A 
ENDBRANCH  24  25
ENDBRANCH  20  24
ENDBRANCH   3  17
TORSDOF 4
ENDMDL
MODEL 4
REMARK VINA RESULT:      -8.9      5.899      8.388
REMARK  Name = 
REMARK  6 active torsions:
REMARK  status: ('A' for Active; 'I' for Inactive)
REMARK    1  A    between atoms: C_1  and  C_2
REMARK    2  A    between atoms: C_9  and  C_10
REMARK    3  A    between atoms: N_12  and  C_13
REMARK    4  A    between atoms: C_16  and  O_17
REMARK    5  A    between atoms: O_17  and  C_18
REMARK    6  A    between atoms: C_24  and  C_25
REMARK                            x       y       z     vdW  Elec       q    Type
REMARK                         _______ _______ _______ _____ _____    ______ ____
ROOT
ATOM      1  C   UNL     1       8.002   8.625  18.179  0.00  0.00    +0.000 C 
ATOM      2  O   UNL     1       8.571   7.698  18.749  0.00  0.00    +0.000 OA
ATOM      3  N   UNL     1       6.855   8.540  17.414  0.00  0.00    +0.000 N 
ATOM      4  H   UNL     1       6.606   9.350  16.861  0.00  0.00    +0.000 HD
ENDROOT
BRANCH   1  13
ATOM      5  C   UNL     1       9.327  15.411  17.678  0.00  0.00    +0.000 C 
ATOM      6  C   UNL     1      10.433  14.958  18.586  0.00  0.00    +0.000 C 
ATOM      7  O   UNL     1      11.209  15.799  19.051  0.00  0.00    +0.000 OA
ATOM      8  N   UNL     1      10.557  13.623  18.900  0.00  0.00    +0.000 N 
ATOM      9  C   UNL     1      11.571  13.223  19.890  0.00  0.00    +0.000 C 
ATOM     10  C   UNL     1      11.553  11.701  19.989  0.00  0.00    +0.000 C 
ATOM     11  C   UNL     1      10.334  11.365  19.193  0.00  0.00    +0.000 A 
ATOM     12  C   UNL     1       9.764  10.107  19.066  0.00  0.00    +0.000 A 
ATOM     13  C   UNL     1       8.644   9.963  18.242  0.00  0.00    +0.000 A 
ATOM     14  C   UNL     1       8.128  11.073  17.552  0.00  0.00    +0.000 A 
ATOM     15  C   UNL     1       8.716  12.340  17.699  0.00  0.00    +0.000 A 
ATOM     16  C   UNL     1       9.813  12.484  18.536  0.00  0.00    +0.000 A 
ENDBRANCH   1  13
BRANCH   3  17
ATOM     17  C   UNL     1       6.124   7.361  17.152  0.00  0.00    +0.000 A 
ATOM     18  C   UNL     1       4.789   7.185  17.505  0.00  0.00    +0.000 A 
ATOM     19  C   UNL     1       4.164   5.954  17.302  0.00  0.00    +0.000 A 
ATOM     20  C   UNL     1       4.855   4.876  16.736  0.00  0.00    +0.000 A 
ATOM     21  C   UNL     1       6.166   5.070  16.266  0.00  0.00    +0.000 A 
ATOM     22  C   UNL     1       6.990   4.031  15.558  0.00  0.00    +0.000 C 
ATOM     23  C   UNL     1       6.790   6.313  16.508  0.00  0.00    +0.000 A 
BRANCH  20  24
ATOM     24  O   UNL     1       4.083   3.740  16.621  0.00  0.00    +0.000 OA
BRANCH  24  25
ATOM     25  C   UNL     1       3.345   3.272  17.674  0.00  0.00    +0.000 A 
ATOM     26  C   UNL     1       1.957   3.194  17.731  0.00  0.00    +0.000 A 
ATOM     27  C   UNL     1       1.344   2.878  18.942  0.00  0.00    +0.000 A 
ATOM     28  C   UNL     1       2.146   2.559  20.026  0.00  0.00    +0.000 A 
ATOM     29  N   UNL     1       3.494   2.502  19.969  0.00  0.00    +0.000 NA
ATOM     30  C   UNL     1       4.060   2.856  18.790  0.00  0.00    +0.000 A 
ENDBRANCH  24  25
ENDBRANCH  20  24
ENDBRANCH   3  17
TORSDOF 4
ENDMDL
MODEL 5
REMARK VINA RESULT:      -8.9      1.401      2.082
REMARK  Name = 
REMARK  6 active torsions:
REMARK  status: ('A' for Active; 'I' for Inactive)
REMARK    1  A    between atoms: C_1  and  C_2
REMARK    2  A    between atoms: C_9  and  C_10
REMARK    3  A    between atoms: N_12  and  C_13
REMARK    4  A    between atoms: C_16  and  O_17
REMARK    5  A    between atoms: O_17  and  C_18
REMARK    6  A    between atoms: C_24  and  C_25
REMARK                            x       y       z     vdW  Elec       q    Type
REMARK                         _______ _______ _______ _____ _____    ______ ____
ROOT
ATOM      1  C   UNL     1       1.652   9.107  18.123  0.00  0.00    +0.000 C 
ATOM      2  O   UNL     1       2.447   9.694  17.393  0.00  0.00    +0.000 OA
ATOM      3  N   UNL     1       1.689   7.772  18.475  0.00  0.00    +0.000 N 
ATOM      4  H   UNL     1       0.873   7.391  18.935  0.00  0.00    +0.000 HD
ENDROOT
BRANCH   1  13
ATOM      5  C   UNL     1      -2.419  13.642  21.427  0.00  0.00    +0.000 C 
ATOM      6  C   UNL     1      -3.362  13.091  20.397  0.00  0.00    +0.000 C 
ATOM      7  O   UNL     1      -4.504  13.555  20.320  0.00  0.00    +0.000 OA
ATOM      8  N   UNL     1      -2.939  12.094  19.547  0.00  0.00    +0.000 N 
ATOM      9  C   UNL     1      -3.841  11.660  18.467  0.00  0.00    +0.000 C 
ATOM     10  C   UNL     1      -3.169  10.502  17.734  0.00  0.00    +0.000 C 
ATOM     11  C   UNL     1      -1.799  10.527  18.330  0.00  0.00    +0.000 A 
ATOM     12  C   UNL     1      -0.718   9.761  17.921  0.00  0.00    +0.000 A 
ATOM     13  C   UNL     1       0.486   9.878  18.622  0.00  0.00    +0.000 A 
ATOM     14  C   UNL     1       0.578  10.746  19.724  0.00  0.00    +0.000 A 
ATOM     15  C   UNL     1      -0.527  11.518  20.118  0.00  0.00    +0.000 A 
ATOM     16  C   UNL     1      -1.713  11.417  19.405  0.00  0.00    +0.000 A 
ENDBRANCH   1  13
BRANCH   3  17
ATOM     17  C   UNL     1       2.659   6.836  18.054  0.00  0.00    +0.000 A 
ATOM     18  C   UNL     1       3.945   7.183  17.652  0.00  0.00    +0.000 A 
ATOM     19  C   UNL     1       4.814   6.210  17.154  0.00  0.00    +0.000 A 
ATOM     20  C   UNL     1       4.420   4.871  17.056  0.00  0.00    +0.000 A 
ATOM     21  C   UNL     1       3.169   4.483  17.566  0.00  0.00    +0.000 A 
ATOM     22  C   UNL     1       2.656   3.069  17.608  0.00  0.00    +0.000 C 
ATOM     23  C   UNL     1       2.294   5.485  18.036  0.00  0.00    +0.000 A 
BRANCH  20  24
ATOM     24  O   UNL     1       5.402   4.056  16.535  0.00  0.00    +0.000 OA
BRANCH  24  25
ATOM     25  C   UNL     1       5.970   4.316  15.317  0.00  0.00    +0.000 A 
ATOM     26  C   UNL     1       5.507   3.867  14.085  0.00  0.00    +0.000 A 
ATOM     27  C   UNL     1       6.300   4.051  12.953  0.00  0.00    +0.000 A 
ATOM     28  C   UNL     1       7.482   4.764  13.083  0.00  0.00    +0.000 A 
ATOM     29  N   UNL     1       7.896   5.322  14.241  0.00  0.00    +0.000 NA
ATOM     30  C   UNL     1       7.125   5.088  15.330  0.00  0.00    +0.000 A 
ENDBRANCH  24  25
ENDBRANCH  20  24
ENDBRANCH   3  17
TORSDOF 4
ENDMDL
MODEL 6
REMARK VINA RESULT:      -8.8      2.024      3.095
REMARK  Name = 
REMARK  6 active torsions:
REMARK  status: ('A' for Active; 'I' for Inactive)
REMARK    1  A    between atoms: C_1  and  C_2
REMARK    2  A    between atoms: C_9  and  C_10
REMARK    3  A    between atoms: N_12  and  C_13
REMARK    4  A    between atoms: C_16  and  O_17
REMARK    5  A    between atoms: O_17  and  C_18
REMARK    6  A    between atoms: C_24  and  C_25
REMARK                            x       y       z     vdW  Elec       q    Type
REMARK                         _______ _______ _______ _____ _____    ______ ____
ROOT
ATOM      1  C   UNL     1       1.063   8.904  21.614  0.00  0.00    +0.000 C 
ATOM      2  O   UNL     1       1.981   8.891  22.431  0.00  0.00    +0.000 OA
ATOM      3  N   UNL     1       0.936   8.087  20.508  0.00  0.00    +0.000 N 
ATOM      4  H   UNL     1       0.226   8.332  19.831  0.00  0.00    +0.000 HD
ENDROOT
BRANCH   1  13
ATOM      5  C   UNL     1      -3.449  13.472  24.228  0.00  0.00    +0.000 C 
ATOM      6  C   UNL     1      -3.418  13.877  22.783  0.00  0.00    +0.000 C 
ATOM      7  O   UNL     1      -4.071  14.862  22.423  0.00  0.00    +0.000 OA
ATOM      8  N   UNL     1      -2.656  13.159  21.888  0.00  0.00    +0.000 N 
ATOM      9  C   UNL     1      -2.547  13.652  20.504  0.00  0.00    +0.000 C 
ATOM     10  C   UNL     1      -1.724  12.640  19.712  0.00  0.00    +0.000 C 
ATOM     11  C   UNL     1      -1.224  11.746  20.800  0.00  0.00    +0.000 A 
ATOM     12  C   UNL     1      -0.304  10.719  20.653  0.00  0.00    +0.000 A 
ATOM     13  C   UNL     1       0.020   9.949  21.774  0.00  0.00    +0.000 A 
ATOM     14  C   UNL     1      -0.593  10.211  23.011  0.00  0.00    +0.000 A 
ATOM     15  C   UNL     1      -1.518  11.260  23.140  0.00  0.00    +0.000 A 
ATOM     16  C   UNL     1      -1.819  12.038  22.031  0.00  0.00    +0.000 A 
ENDBRANCH   1  13
BRANCH   3  17
ATOM     17  C   UNL     1       1.846   7.080  20.117  0.00  0.00    +0.000 A 
ATOM     18  C   UNL     1       2.792   7.243  19.110  0.00  0.00    +0.000 A 
ATOM     19  C   UNL     1       3.590   6.168  18.712  0.00  0.00    +0.000 A 
ATOM     20  C   UNL     1       3.464   4.912  19.318  0.00  0.00    +0.000 A 
ATOM     21  C   UNL     1       2.598   4.761  20.415  0.00  0.00    +0.000 A 
ATOM     22  C   UNL     1       2.433   3.498  21.215  0.00  0.00    +0.000 C 
ATOM     23  C   UNL     1       1.779   5.851  20.780  0.00  0.00    +0.000 A 
BRANCH  20  24
ATOM     24  O   UNL     1       4.323   3.971  18.793  0.00  0.00    +0.000 OA
BRANCH  24  25
ATOM     25  C   UNL     1       5.115   4.255  17.713  0.00  0.00    +0.000 A 
ATOM     26  C   UNL     1       4.726   4.214  16.379  0.00  0.00    +0.000 A 
ATOM     27  C   UNL     1       5.695   4.339  15.384  0.00  0.00    +0.000 A 
ATOM     28  C   UNL     1       7.003   4.597  15.765  0.00  0.00    +0.000 A 
ATOM     29  N   UNL     1       7.390   4.768  17.046  0.00  0.00    +0.000 NA
ATOM     30  C   UNL     1       6.433   4.598  17.990  0.00  0.00    +0.000 A 
ENDBRANCH  24  25
ENDBRANCH  20  24
ENDBRANCH   3  17
TORSDOF 4
ENDMDL
MODEL 7
REMARK VINA RESULT:      -8.8      3.602     10.127
REMARK  Name = 
REMARK  6 active torsions:
REMARK  status: ('A' for Active; 'I' for Inactive)
REMARK    1  A    between atoms: C_1  and  C_2
REMARK    2  A    between atoms: C_9  and  C_10
REMARK    3  A    between atoms: N_12  and  C_13
REMARK    4  A    between atoms: C_16  and  O_17
REMARK    5  A    between atoms: O_17  and  C_18
REMARK    6  A    between atoms: C_24  and  C_25
REMARK                            x       y       z     vdW  Elec       q    Type
REMARK                         _______ _______ _______ _____ _____    ______ ____
ROOT
ATOM      1  C   UNL     1       1.787   9.262  18.531  0.00  0.00    +0.000 C 
ATOM      2  O   UNL     1       2.110   9.791  17.471  0.00  0.00    +0.000 OA
ATOM      3  N   UNL     1       1.058   9.842  19.552  0.00  0.00    +0.000 N 
ATOM      4  H   UNL     1       1.024   9.349  20.434  0.00  0.00    +0.000 HD
ENDROOT
BRANCH   1  13
ATOM      5  C   UNL     1       2.725   2.876  21.060  0.00  0.00    +0.000 C 
ATOM      6  C   UNL     1       3.556   2.827  19.810  0.00  0.00    +0.000 C 
ATOM      7  O   UNL     1       4.107   1.766  19.499  0.00  0.00    +0.000 OA
ATOM      8  N   UNL     1       3.677   3.951  19.025  0.00  0.00    +0.000 N 
ATOM      9  C   UNL     1       4.393   3.840  17.743  0.00  0.00    +0.000 C 
ATOM     10  C   UNL     1       4.454   5.232  17.121  0.00  0.00    +0.000 C 
ATOM     11  C   UNL     1       3.538   6.000  18.017  0.00  0.00    +0.000 A 
ATOM     12  C   UNL     1       3.116   7.307  17.826  0.00  0.00    +0.000 A 
ATOM     13  C   UNL     1       2.289   7.889  18.791  0.00  0.00    +0.000 A 
ATOM     14  C   UNL     1       1.915   7.159  19.932  0.00  0.00    +0.000 A 
ATOM     15  C   UNL     1       2.348   5.833  20.104  0.00  0.00    +0.000 A 
ATOM     16  C   UNL     1       3.148   5.251  19.132  0.00  0.00    +0.000 A 
ENDBRANCH   1  13
BRANCH   3  17
ATOM     17  C   UNL     1       0.549  11.159  19.555  0.00  0.00    +0.000 A 
ATOM     18  C   UNL     1      -0.406  11.620  18.654  0.00  0.00    +0.000 A 
ATOM     19  C   UNL     1      -0.787  12.963  18.657  0.00  0.00    +0.000 A 
ATOM     20  C   UNL     1      -0.228  13.871  19.565  0.00  0.00    +0.000 A 
ATOM     21  C   UNL     1       0.649  13.400  20.557  0.00  0.00    +0.000 A 
ATOM     22  C   UNL     1       1.250  14.243  21.648  0.00  0.00    +0.000 C 
ATOM     23  C   UNL     1       1.045  12.045  20.517  0.00  0.00    +0.000 A 
BRANCH  20  24
ATOM     24  O   UNL     1      -0.714  15.152  19.416  0.00  0.00    +0.000 OA
BRANCH  24  25
ATOM     25  C   UNL     1      -0.042  16.086  18.676  0.00  0.00    +0.000 A 
ATOM     26  C   UNL     1       1.329  16.114  18.441  0.00  0.00    +0.000 A 
ATOM     27  C   UNL     1       1.892  17.234  17.832  0.00  0.00    +0.000 A 
ATOM     28  C   UNL     1       1.047  18.242  17.394  0.00  0.00    +0.000 A 
ATOM     29  N   UNL     1      -0.298  18.188  17.494  0.00  0.00    +0.000 NA
ATOM     30  C   UNL     1      -0.810  17.106  18.128  0.00  0.00    +0.000 A 
ENDBRANCH  24  25
ENDBRANCH  20  24
ENDBRANCH   3  17
TORSDOF 4
ENDMDL
MODEL 8
REMARK VINA RESULT:      -8.7      2.517      3.615
REMARK  Name = 
REMARK  6 active torsions:
REMARK  status: ('A' for Active; 'I' for Inactive)
REMARK    1  A    between atoms: C_1  and  C_2
REMARK    2  A    between atoms: C_9  and  C_10
REMARK    3  A    between atoms: N_12  and  C_13
REMARK    4  A    between atoms: C_16  and  O_17
REMARK    5  A    between atoms: O_17  and  C_18
REMARK    6  A    between atoms: C_24  and  C_25
REMARK                            x       y       z     vdW  Elec       q    Type
REMARK                         _______ _______ _______ _____ _____    ______ ____
ROOT
ATOM      1  C   UNL     1       0.842  10.007  21.526  0.00  0.00    +0.000 C 
ATOM      2  O   UNL     1       1.565   9.606  22.434  0.00  0.00    +0.000 OA
ATOM      3  N   UNL     1       0.773   9.498  20.244  0.00  0.00    +0.000 N 
ATOM      4  H   UNL     1       0.267  10.042  19.557  0.00  0.00    +0.000 HD
ENDROOT
BRANCH   1  13
ATOM      5  C   UNL     1      -2.045  16.304  21.268  0.00  0.00    +0.000 C 
ATOM      6  C   UNL     1      -2.979  15.586  22.198  0.00  0.00    +0.000 C 
ATOM      7  O   UNL     1      -3.981  16.177  22.615  0.00  0.00    +0.000 OA
ATOM      8  N   UNL     1      -2.717  14.283  22.559  0.00  0.00    +0.000 N 
ATOM      9  C   UNL     1      -3.713  13.564  23.371  0.00  0.00    +0.000 C 
ATOM     10  C   UNL     1      -3.145  12.186  23.695  0.00  0.00    +0.000 C 
ATOM     11  C   UNL     1      -1.934  12.150  22.820  0.00  0.00    +0.000 A 
ATOM     12  C   UNL     1      -1.108  11.055  22.615  0.00  0.00    +0.000 A 
ATOM     13  C   UNL     1       0.013  11.209  21.794  0.00  0.00    +0.000 A 
ATOM     14  C   UNL     1       0.291  12.456  21.209  0.00  0.00    +0.000 A 
ATOM     15  C   UNL     1      -0.562  13.552  21.423  0.00  0.00    +0.000 A 
ATOM     16  C   UNL     1      -1.686  13.388  22.219  0.00  0.00    +0.000 A 
ENDBRANCH   1  13
BRANCH   3  17
ATOM     17  C   UNL     1       1.526   8.413  19.746  0.00  0.00    +0.000 A 
ATOM     18  C   UNL     1       2.235   8.449  18.548  0.00  0.00    +0.000 A 
ATOM     19  C   UNL     1       2.874   7.302  18.073  0.00  0.00    +0.000 A 
ATOM     20  C   UNL     1       2.825   6.100  18.787  0.00  0.00    +0.000 A 
ATOM     21  C   UNL     1       2.215   6.075  20.053  0.00  0.00    +0.000 A 
ATOM     22  C   UNL     1       2.170   4.880  20.966  0.00  0.00    +0.000 C 
ATOM     23  C   UNL     1       1.548   7.236  20.501  0.00  0.00    +0.000 A 
BRANCH  20  24
ATOM     24  O   UNL     1       3.503   5.074  18.164  0.00  0.00    +0.000 OA
BRANCH  24  25
ATOM     25  C   UNL     1       4.861   5.114  18.000  0.00  0.00    +0.000 A 
ATOM     26  C   UNL     1       5.539   5.139  16.787  0.00  0.00    +0.000 A 
ATOM     27  C   UNL     1       6.924   4.982  16.779  0.00  0.00    +0.000 A 
ATOM     28  C   UNL     1       7.587   4.905  17.994  0.00  0.00    +0.000 A 
ATOM     29  N   UNL     1       6.971   5.005  19.191  0.00  0.00    +0.000 NA
ATOM     30  C   UNL     1       5.621   5.113  19.163  0.00  0.00    +0.000 A 
ENDBRANCH  24  25
ENDBRANCH  20  24
ENDBRANCH   3  17
TORSDOF 4
ENDMDL
MODEL 9
REMARK VINA RESULT:      -8.7      1.215      1.952
REMARK  Name = 
REMARK  6 active torsions:
REMARK  status: ('A' for Active; 'I' for Inactive)
REMARK    1  A    between atoms: C_1  and  C_2
REMARK    2  A    between atoms: C_9  and  C_10
REMARK    3  A    between atoms: N_12  and  C_13
REMARK    4  A    between atoms: C_16  and  O_17
REMARK    5  A    between atoms: O_17  and  C_18
REMARK    6  A    between atoms: C_24  and  C_25
REMARK                            x       y       z     vdW  Elec       q    Type
REMARK                         _______ _______ _______ _____ _____    ______ ____
ROOT
ATOM      1  C   UNL     1       1.683   7.899  19.909  0.00  0.00    +0.000 C 
ATOM      2  O   UNL     1       1.931   7.111  20.819  0.00  0.00    +0.000 OA
ATOM      3  N   UNL     1       2.152   7.831  18.612  0.00  0.00    +0.000 N 
ATOM      4  H   UNL     1       2.011   8.643  18.026  0.00  0.00    +0.000 HD
ENDROOT
BRANCH   1  13
ATOM      5  C   UNL     1      -1.527  13.057  23.248  0.00  0.00    +0.000 C 
ATOM      6  C   UNL     1      -1.675  13.489  21.818  0.00  0.00    +0.000 C 
ATOM      7  O   UNL     1      -2.212  14.575  21.573  0.00  0.00    +0.000 OA
ATOM      8  N   UNL     1      -1.201  12.684  20.807  0.00  0.00    +0.000 N 
ATOM      9  C   UNL     1      -1.248  13.189  19.425  0.00  0.00    +0.000 C 
ATOM     10  C   UNL     1      -0.744  12.080  18.506  0.00  0.00    +0.000 C 
ATOM     11  C   UNL     1      -0.220  11.089  19.493  0.00  0.00    +0.000 A 
ATOM     12  C   UNL     1       0.485   9.933  19.193  0.00  0.00    +0.000 A 
ATOM     13  C   UNL     1       0.865   9.092  20.243  0.00  0.00    +0.000 A 
ATOM     14  C   UNL     1       0.519   9.416  21.566  0.00  0.00    +0.000 A 
ATOM     15  C   UNL     1      -0.190  10.595  21.850  0.00  0.00    +0.000 A 
ATOM     16  C   UNL     1      -0.543  11.439  20.808  0.00  0.00    +0.000 A 
ENDBRANCH   1  13
BRANCH   3  17
ATOM     17  C   UNL     1       3.005   6.832  18.095  0.00  0.00    +0.000 A 
ATOM     18  C   UNL     1       4.310   7.071  17.675  0.00  0.00    +0.000 A 
ATOM     19  C   UNL     1       5.058   6.052  17.082  0.00  0.00    +0.000 A 
ATOM     20  C   UNL     1       4.521   4.772  16.903  0.00  0.00    +0.000 A 
ATOM     21  C   UNL     1       3.249   4.480  17.426  0.00  0.00    +0.000 A 
ATOM     22  C   UNL     1       2.590   3.129  17.386  0.00  0.00    +0.000 C 
ATOM     23  C   UNL     1       2.498   5.532  17.994  0.00  0.00    +0.000 A 
BRANCH  20  24
ATOM     24  O   UNL     1       5.396   3.900  16.293  0.00  0.00    +0.000 OA
BRANCH  24  25
ATOM     25  C   UNL     1       5.948   4.182  15.074  0.00  0.00    +0.000 A 
ATOM     26  C   UNL     1       5.514   3.696  13.846  0.00  0.00    +0.000 A 
ATOM     27  C   UNL     1       6.295   3.917  12.712  0.00  0.00    +0.000 A 
ATOM     28  C   UNL     1       7.432   4.699  12.836  0.00  0.00    +0.000 A 
ATOM     29  N   UNL     1       7.812   5.291  13.988  0.00  0.00    +0.000 NA
ATOM     30  C   UNL     1       7.056   5.021  15.079  0.00  0.00    +0.000 A 
ENDBRANCH  24  25
ENDBRANCH  20  24
ENDBRANCH   3  17
TORSDOF 4
ENDMDL
