MODEL 1
REMARK VINA RESULT:      -9.1      0.000      0.000
REMARK  Name = 
REMARK  5 active torsions:
REMARK  status: ('A' for Active; 'I' for Inactive)
REMARK    1  A    between atoms: C_1  and  C_2
REMARK    2  A    between atoms: C_6  and  C_7
REMARK    3  A    between atoms: N_13  and  C_14
REMARK    4  A    between atoms: C_18  and  C_19
REMARK    5  A    between atoms: C_19  and  N_20
REMARK                            x       y       z     vdW  Elec       q    Type
REMARK                         _______ _______ _______ _____ _____    ______ ____
ROOT
ATOM      1  C   UNL     1       1.862   5.606  20.026  0.00  0.00    +0.000 A 
ATOM      2  C   UNL     1       0.974   4.675  20.584  0.00  0.00    +0.000 A 
ATOM      3  C   UNL     1       1.261   3.312  20.607  0.00  0.00    +0.000 A 
ATOM      4  C   UNL     1       2.463   2.854  20.088  0.00  0.00    +0.000 A 
ATOM      5  C   UNL     1       3.370   3.755  19.514  0.00  0.00    +0.000 A 
ATOM      6  C   UNL     1       3.025   5.122  19.420  0.00  0.00    +0.000 A 
ENDROOT
BRANCH   1  15
ATOM      7  C   UNL     1       0.853  12.852  18.823  0.00  0.00    +0.000 C 
ATOM      8  C   UNL     1       0.850  11.529  19.533  0.00  0.00    +0.000 A 
ATOM      9  C   UNL     1       1.393  10.405  18.917  0.00  0.00    +0.000 A 
ATOM     10  C   UNL     1       1.368   9.213  19.612  0.00  0.00    +0.000 A 
ATOM     11  C   UNL     1       0.810   9.060  20.879  0.00  0.00    +0.000 A 
ATOM     12  C   UNL     1       0.282  10.173  21.528  0.00  0.00    +0.000 A 
ATOM     13  C   UNL     1       0.311  11.409  20.834  0.00  0.00    +0.000 A 
ATOM     14  C   UNL     1       0.890   7.611  21.272  0.00  0.00    +0.000 C 
ATOM     15  N   UNL     1       1.620   7.001  20.167  0.00  0.00    +0.000 N 
ATOM     16  C   UNL     1       1.887   7.930  19.163  0.00  0.00    +0.000 C 
ATOM     17  O   UNL     1       2.408   7.811  18.067  0.00  0.00    +0.000 OA
BRANCH  12  18
ATOM     18  C   UNL     1      -0.293  10.124  22.919  0.00  0.00    +0.000 C 
ATOM     19  F   UNL     1      -0.748  11.327  23.366  0.00  0.00    +0.000 F 
ATOM     20  F   UNL     1      -1.350   9.270  23.010  0.00  0.00    +0.000 F 
ATOM     21  F   UNL     1       0.612   9.700  23.843  0.00  0.00    +0.000 F 
ENDBRANCH  12  18
ENDBRANCH   1  15
BRANCH   5  22
ATOM     22  C   UNL     1       4.767   3.278  19.148  0.00  0.00    +0.000 C 
BRANCH  22  23
ATOM     23  N   UNL     1       5.463   4.083  18.093  0.00  0.00    +0.000 NA
ATOM     24  C   UNL     1       5.004   3.699  16.745  0.00  0.00    +0.000 C 
ATOM     25  C   UNL     1       5.305   4.698  15.616  0.00  0.00    +0.000 C 
ATOM     26  C   UNL     1       5.196   6.165  16.019  0.00  0.00    +0.000 C 
ATOM     27  N   UNL     1       6.251   6.754  16.817  0.00  0.00    +0.000 N 
ATOM     28  C   UNL     1       6.275   8.080  17.155  0.00  0.00    +0.000 A 
ATOM     29  N   UNL     1       7.348   8.343  17.859  0.00  0.00    +0.000 NA
ATOM     30  N   UNL     1       8.033   7.166  18.018  0.00  0.00    +0.000 NA
ATOM     31  C   UNL     1       7.360   6.207  17.404  0.00  0.00    +0.000 A 
ATOM     32  C   UNL     1       7.744   4.772  17.395  0.00  0.00    +0.000 C 
ATOM     33  N   UNL     1       6.919   3.932  18.277  0.00  0.00    +0.000 NA
ATOM     34  H   UNL     1       7.158   4.233  19.229  0.00  0.00    +0.000 HD
ENDBRANCH  22  23
ENDBRANCH   5  22
TORSDOF 4
ENDMDL
MODEL 2
REMARK VINA RESULT:      -9.0      4.188      8.290
REMARK  Name = 
REMARK  5 active torsions:
REMARK  status: ('A' for Active; 'I' for Inactive)
REMARK    1  A    between atoms: C_1  and  C_2
REMARK    2  A    between atoms: C_6  and  C_7
REMARK    3  A    between atoms: N_13  and  C_14
REMARK    4  A    between atoms: C_18  and  C_19
REMARK    5  A    between atoms: C_19  and  N_20
REMARK                            x       y       z     vdW  Elec       q    Type
REMARK                         _______ _______ _______ _____ _____    ______ ____
ROOT
ATOM      1  C   UNL     1       1.792   7.918  19.602  0.00  0.00    +0.000 A 
ATOM      2  C   UNL     1       1.492   7.758  20.963  0.00  0.00    +0.000 A 
ATOM      3  C   UNL     1       0.739   8.698  21.662  0.00  0.00    +0.000 A 
ATOM      4  C   UNL     1       0.247   9.814  21.001  0.00  0.00    +0.000 A 
ATOM      5  C   UNL     1       0.535  10.011  19.644  0.00  0.00    +0.000 A 
ATOM      6  C   UNL     1       1.372   9.093  18.972  0.00  0.00    +0.000 A 
ENDROOT
BRANCH   1  15
ATOM      7  C   UNL     1       6.251   3.870  15.278  0.00  0.00    +0.000 C 
ATOM      8  C   UNL     1       5.200   4.201  16.299  0.00  0.00    +0.000 A 
ATOM      9  C   UNL     1       4.849   5.527  16.533  0.00  0.00    +0.000 A 
ATOM     10  C   UNL     1       3.877   5.779  17.480  0.00  0.00    +0.000 A 
ATOM     11  C   UNL     1       3.246   4.792  18.232  0.00  0.00    +0.000 A 
ATOM     12  C   UNL     1       3.562   3.455  18.001  0.00  0.00    +0.000 A 
ATOM     13  C   UNL     1       4.549   3.177  17.022  0.00  0.00    +0.000 A 
ATOM     14  C   UNL     1       2.318   5.450  19.215  0.00  0.00    +0.000 C 
ATOM     15  N   UNL     1       2.416   6.865  18.877  0.00  0.00    +0.000 N 
ATOM     16  C   UNL     1       3.355   7.081  17.870  0.00  0.00    +0.000 C 
ATOM     17  O   UNL     1       3.773   8.105  17.358  0.00  0.00    +0.000 OA
BRANCH  12  18
ATOM     18  C   UNL     1       2.898   2.311  18.721  0.00  0.00    +0.000 C 
ATOM     19  F   UNL     1       1.551   2.255  18.533  0.00  0.00    +0.000 F 
ATOM     20  F   UNL     1       3.380   1.101  18.323  0.00  0.00    +0.000 F 
ATOM     21  F   UNL     1       3.085   2.364  20.068  0.00  0.00    +0.000 F 
ENDBRANCH  12  18
ENDBRANCH   1  15
BRANCH   5  22
ATOM     22  C   UNL     1      -0.183  11.113  18.880  0.00  0.00    +0.000 C 
BRANCH  22  23
ATOM     23  N   UNL     1       0.408  12.482  19.024  0.00  0.00    +0.000 NA
ATOM     24  C   UNL     1      -0.445  13.499  18.381  0.00  0.00    +0.000 C 
ATOM     25  C   UNL     1      -0.194  14.957  18.798  0.00  0.00    +0.000 C 
ATOM     26  C   UNL     1       0.159  15.146  20.271  0.00  0.00    +0.000 C 
ATOM     27  N   UNL     1       1.488  14.791  20.724  0.00  0.00    +0.000 N 
ATOM     28  C   UNL     1       1.917  15.002  22.007  0.00  0.00    +0.000 A 
ATOM     29  N   UNL     1       3.160  14.609  22.133  0.00  0.00    +0.000 NA
ATOM     30  N   UNL     1       3.555  14.099  20.924  0.00  0.00    +0.000 NA
ATOM     31  C   UNL     1       2.539  14.194  20.081  0.00  0.00    +0.000 A 
ATOM     32  C   UNL     1       2.547  13.697  18.682  0.00  0.00    +0.000 C 
ATOM     33  N   UNL     1       1.783  12.454  18.489  0.00  0.00    +0.000 NA
ATOM     34  H   UNL     1       2.313  11.736  18.997  0.00  0.00    +0.000 HD
ENDBRANCH  22  23
ENDBRANCH   5  22
TORSDOF 4
ENDMDL
MODEL 3
REMARK VINA RESULT:      -8.8      4.678      9.537
REMARK  Name = 
REMARK  5 active torsions:
REMARK  status: ('A' for Active; 'I' for Inactive)
REMARK    1  A    between atoms: C_1  and  C_2
REMARK    2  A    between atoms: C_6  and  C_7
REMARK    3  A    between atoms: N_13  and  C_14
REMARK    4  A    between atoms: C_18  and  C_19
REMARK    5  A    between atoms: C_19  and  N_20
REMARK                            x       y       z     vdW  Elec       q    Type
REMARK                         _______ _______ _______ _____ _____    ______ ____
ROOT
ATOM      1  C   UNL     1       0.852   9.001  20.737  0.00  0.00    +0.000 A 
ATOM      2  C   UNL     1       0.676   9.083  22.125  0.00  0.00    +0.000 A 
ATOM      3  C   UNL     1      -0.031  10.130  22.713  0.00  0.00    +0.000 A 
ATOM      4  C   UNL     1      -0.599  11.110  21.912  0.00  0.00    +0.000 A 
ATOM      5  C   UNL     1      -0.435  11.065  20.521  0.00  0.00    +0.000 A 
ATOM      6  C   UNL     1       0.357  10.045  19.949  0.00  0.00    +0.000 A 
ENDROOT
BRANCH   1  15
ATOM      7  C   UNL     1       4.892   4.268  16.706  0.00  0.00    +0.000 C 
ATOM      8  C   UNL     1       3.978   4.775  17.784  0.00  0.00    +0.000 A 
ATOM      9  C   UNL     1       3.584   6.110  17.794  0.00  0.00    +0.000 A 
ATOM     10  C   UNL     1       2.741   6.527  18.805  0.00  0.00    +0.000 A 
ATOM     11  C   UNL     1       2.283   5.701  19.827  0.00  0.00    +0.000 A 
ATOM     12  C   UNL     1       2.641   4.355  19.827  0.00  0.00    +0.000 A 
ATOM     13  C   UNL     1       3.496   3.906  18.789  0.00  0.00    +0.000 A 
ATOM     14  C   UNL     1       1.464   6.523  20.784  0.00  0.00    +0.000 C 
ATOM     15  N   UNL     1       1.430   7.838  20.155  0.00  0.00    +0.000 N 
ATOM     16  C   UNL     1       2.203   7.865  18.996  0.00  0.00    +0.000 C 
ATOM     17  O   UNL     1       2.484   8.772  18.230  0.00  0.00    +0.000 OA
BRANCH  12  18
ATOM     18  C   UNL     1       2.153   3.369  20.855  0.00  0.00    +0.000 C 
ATOM     19  F   UNL     1       0.802   3.208  20.862  0.00  0.00    +0.000 F 
ATOM     20  F   UNL     1       2.675   2.125  20.665  0.00  0.00    +0.000 F 
ATOM     21  F   UNL     1       2.493   3.727  22.123  0.00  0.00    +0.000 F 
ENDBRANCH  12  18
ENDBRANCH   1  15
BRANCH   5  22
ATOM     22  C   UNL     1      -1.237  12.012  19.643  0.00  0.00    +0.000 C 
BRANCH  22  23
ATOM     23  N   UNL     1      -2.275  12.823  20.358  0.00  0.00    +0.000 NA
ATOM     24  C   UNL     1      -3.631  12.486  19.884  0.00  0.00    +0.000 C 
ATOM     25  C   UNL     1      -4.794  12.914  20.792  0.00  0.00    +0.000 C 
ATOM     26  C   UNL     1      -4.510  12.799  22.287  0.00  0.00    +0.000 C 
ATOM     27  N   UNL     1      -3.658  13.787  22.917  0.00  0.00    +0.000 N 
ATOM     28  C   UNL     1      -3.415  13.808  24.263  0.00  0.00    +0.000 A 
ATOM     29  N   UNL     1      -2.632  14.815  24.561  0.00  0.00    +0.000 NA
ATOM     30  N   UNL     1      -2.324  15.456  23.389  0.00  0.00    +0.000 NA
ATOM     31  C   UNL     1      -2.929  14.823  22.397  0.00  0.00    +0.000 A 
ATOM     32  C   UNL     1      -2.799  15.175  20.960  0.00  0.00    +0.000 C 
ATOM     33  N   UNL     1      -1.943  14.252  20.199  0.00  0.00    +0.000 NA
ATOM     34  H   UNL     1      -0.996  14.406  20.566  0.00  0.00    +0.000 HD
ENDBRANCH  22  23
ENDBRANCH   5  22
TORSDOF 4
ENDMDL
MODEL 4
REMARK VINA RESULT:      -8.8      3.197      4.476
REMARK  Name = 
REMARK  5 active torsions:
REMARK  status: ('A' for Active; 'I' for Inactive)
REMARK    1  A    between atoms: C_1  and  C_2
REMARK    2  A    between atoms: C_6  and  C_7
REMARK    3  A    between atoms: N_13  and  C_14
REMARK    4  A    between atoms: C_18  and  C_19
REMARK    5  A    between atoms: C_19  and  N_20
REMARK                            x       y       z     vdW  Elec       q    Type
REMARK                         _______ _______ _______ _____ _____    ______ ____
ROOT
ATOM      1  C   UNL     1       1.029   9.530  19.094  0.00  0.00    +0.000 A 
ATOM      2  C   UNL     1       1.719   9.876  17.923  0.00  0.00    +0.000 A 
ATOM      3  C   UNL     1       2.706   9.053  17.385  0.00  0.00    +0.000 A 
ATOM      4  C   UNL     1       3.007   7.847  18.002  0.00  0.00    +0.000 A 
ATOM      5  C   UNL     1       2.344   7.474  19.179  0.00  0.00    +0.000 A 
ATOM      6  C   UNL     1       1.408   8.360  19.759  0.00  0.00    +0.000 A 
ENDROOT
BRANCH   1  15
ATOM      7  C   UNL     1      -3.424  14.397  22.478  0.00  0.00    +0.000 C 
ATOM      8  C   UNL     1      -2.950  13.380  21.479  0.00  0.00    +0.000 A 
ATOM      9  C   UNL     1      -1.704  12.779  21.635  0.00  0.00    +0.000 A 
ATOM     10  C   UNL     1      -1.315  11.850  20.692  0.00  0.00    +0.000 A 
ATOM     11  C   UNL     1      -2.080  11.496  19.584  0.00  0.00    +0.000 A 
ATOM     12  C   UNL     1      -3.340  12.064  19.418  0.00  0.00    +0.000 A 
ATOM     13  C   UNL     1      -3.762  13.012  20.384  0.00  0.00    +0.000 A 
ATOM     14  C   UNL     1      -1.295  10.527  18.743  0.00  0.00    +0.000 C 
ATOM     15  N   UNL     1      -0.085  10.304  19.525  0.00  0.00    +0.000 N 
ATOM     16  C   UNL     1      -0.068  11.100  20.669  0.00  0.00    +0.000 C 
ATOM     17  O   UNL     1       0.777  11.257  21.534  0.00  0.00    +0.000 OA
BRANCH  12  18
ATOM     18  C   UNL     1      -4.266  11.707  18.284  0.00  0.00    +0.000 C 
ATOM     19  F   UNL     1      -5.414  12.438  18.266  0.00  0.00    +0.000 F 
ATOM     20  F   UNL     1      -3.686  11.894  17.066  0.00  0.00    +0.000 F 
ATOM     21  F   UNL     1      -4.653  10.403  18.318  0.00  0.00    +0.000 F 
ENDBRANCH  12  18
ENDBRANCH   1  15
BRANCH   5  22
ATOM     22  C   UNL     1       2.522   6.065  19.722  0.00  0.00    +0.000 C 
BRANCH  22  23
ATOM     23  N   UNL     1       3.583   5.249  19.048  0.00  0.00    +0.000 NA
ATOM     24  C   UNL     1       3.119   3.869  18.809  0.00  0.00    +0.000 C 
ATOM     25  C   UNL     1       3.915   3.055  17.777  0.00  0.00    +0.000 C 
ATOM     26  C   UNL     1       4.416   3.860  16.581  0.00  0.00    +0.000 C 
ATOM     27  N   UNL     1       5.550   4.743  16.754  0.00  0.00    +0.000 N 
ATOM     28  C   UNL     1       6.115   5.439  15.720  0.00  0.00    +0.000 A 
ATOM     29  N   UNL     1       7.133   6.139  16.156  0.00  0.00    +0.000 NA
ATOM     30  N   UNL     1       7.228   5.929  17.507  0.00  0.00    +0.000 NA
ATOM     31  C   UNL     1       6.261   5.101  17.868  0.00  0.00    +0.000 A 
ATOM     32  C   UNL     1       5.988   4.670  19.263  0.00  0.00    +0.000 C 
ATOM     33  N   UNL     1       4.811   5.316  19.864  0.00  0.00    +0.000 NA
ATOM     34  H   UNL     1       5.075   6.303  19.969  0.00  0.00    +0.000 HD
ENDBRANCH  22  23
ENDBRANCH   5  22
TORSDOF 4
ENDMDL
MODEL 5
REMARK VINA RESULT:      -8.8      3.579      5.842
REMARK  Name = 
REMARK  5 active torsions:
REMARK  status: ('A' for Active; 'I' for Inactive)
REMARK    1  A    between atoms: C_1  and  C_2
REMARK    2  A    between atoms: C_6  and  C_7
REMARK    3  A    between atoms: N_13  and  C_14
REMARK    4  A    between atoms: C_18  and  C_19
REMARK    5  A    between atoms: C_19  and  N_20
REMARK                            x       y       z     vdW  Elec       q    Type
REMARK                         _______ _______ _______ _____ _____    ______ ____
ROOT
ATOM      1  C   UNL     1       1.253   9.996  19.437  0.00  0.00    +0.000 A 
ATOM      2  C   UNL     1       0.936   9.490  20.706  0.00  0.00    +0.000 A 
ATOM      3  C   UNL     1       1.217   8.172  21.058  0.00  0.00    +0.000 A 
ATOM      4  C   UNL     1       1.847   7.336  20.148  0.00  0.00    +0.000 A 
ATOM      5  C   UNL     1       2.169   7.806  18.867  0.00  0.00    +0.000 A 
ATOM      6  C   UNL     1       1.799   9.117  18.496  0.00  0.00    +0.000 A 
ENDROOT
BRANCH   1  15
ATOM      7  C   UNL     1      -1.120  17.011  19.075  0.00  0.00    +0.000 C 
ATOM      8  C   UNL     1      -0.202  15.828  18.962  0.00  0.00    +0.000 A 
ATOM      9  C   UNL     1      -0.673  14.550  19.252  0.00  0.00    +0.000 A 
ATOM     10  C   UNL     1       0.209  13.495  19.132  0.00  0.00    +0.000 A 
ATOM     11  C   UNL     1       1.544  13.634  18.764  0.00  0.00    +0.000 A 
ATOM     12  C   UNL     1       2.034  14.897  18.444  0.00  0.00    +0.000 A 
ATOM     13  C   UNL     1       1.139  15.991  18.550  0.00  0.00    +0.000 A 
ATOM     14  C   UNL     1       2.206  12.284  18.827  0.00  0.00    +0.000 C 
ATOM     15  N   UNL     1       1.109  11.385  19.162  0.00  0.00    +0.000 N 
ATOM     16  C   UNL     1      -0.076  12.089  19.373  0.00  0.00    +0.000 C 
ATOM     17  O   UNL     1      -1.184  11.723  19.728  0.00  0.00    +0.000 OA
BRANCH  12  18
ATOM     18  C   UNL     1       3.446  15.145  17.983  0.00  0.00    +0.000 C 
ATOM     19  F   UNL     1       4.216  14.022  17.949  0.00  0.00    +0.000 F 
ATOM     20  F   UNL     1       3.494  15.666  16.725  0.00  0.00    +0.000 F 
ATOM     21  F   UNL     1       4.108  16.028  18.779  0.00  0.00    +0.000 F 
ENDBRANCH  12  18
ENDBRANCH   1  15
BRANCH   5  22
ATOM     22  C   UNL     1       3.047   6.959  17.960  0.00  0.00    +0.000 C 
BRANCH  22  23
ATOM     23  N   UNL     1       3.000   5.484  18.219  0.00  0.00    +0.000 NA
ATOM     24  C   UNL     1       4.086   4.784  17.507  0.00  0.00    +0.000 C 
ATOM     25  C   UNL     1       4.416   3.365  17.996  0.00  0.00    +0.000 C 
ATOM     26  C   UNL     1       4.310   3.173  19.507  0.00  0.00    +0.000 C 
ATOM     27  N   UNL     1       2.998   3.073  20.110  0.00  0.00    +0.000 N 
ATOM     28  C   UNL     1       2.810   2.820  21.442  0.00  0.00    +0.000 A 
ATOM     29  N   UNL     1       1.529   2.761  21.710  0.00  0.00    +0.000 NA
ATOM     30  N   UNL     1       0.854   3.011  20.544  0.00  0.00    +0.000 NA
ATOM     31  C   UNL     1       1.742   3.217  19.585  0.00  0.00    +0.000 A 
ATOM     32  C   UNL     1       1.410   3.576  18.183  0.00  0.00    +0.000 C 
ATOM     33  N   UNL     1       1.657   4.990  17.859  0.00  0.00    +0.000 NA
ATOM     34  H   UNL     1       0.963   5.512  18.406  0.00  0.00    +0.000 HD
ENDBRANCH  22  23
ENDBRANCH   5  22
TORSDOF 4
ENDMDL
MODEL 6
REMARK VINA RESULT:      -8.8      4.721      9.360
REMARK  Name = 
REMARK  5 active torsions:
REMARK  status: ('A' for Active; 'I' for Inactive)
REMARK    1  A    between atoms: C_1  and  C_2
REMARK    2  A    between atoms: C_6  and  C_7
REMARK    3  A    between atoms: N_13  and  C_14
REMARK    4  A    between atoms: C_18  and  C_19
REMARK    5  A    between atoms: C_19  and  N_20
REMARK                            x       y       z     vdW  Elec       q    Type
REMARK                         _______ _______ _______ _____ _____    ______ ____
ROOT
ATOM      1  C   UNL     1       1.540   8.409  20.210  0.00  0.00    +0.000 A 
ATOM      2  C   UNL     1       1.457   8.499  21.607  0.00  0.00    +0.000 A 
ATOM      3  C   UNL     1       0.657   9.452  22.232  0.00  0.00    +0.000 A 
ATOM      4  C   UNL     1      -0.099  10.325  21.465  0.00  0.00    +0.000 A 
ATOM      5  C   UNL     1      -0.034  10.270  20.066  0.00  0.00    +0.000 A 
ATOM      6  C   UNL     1       0.848   9.356  19.448  0.00  0.00    +0.000 A 
ENDROOT
BRANCH   1  15
ATOM      7  C   UNL     1       3.687   1.717  17.846  0.00  0.00    +0.000 C 
ATOM      8  C   UNL     1       3.611   3.213  17.959  0.00  0.00    +0.000 A 
ATOM      9  C   UNL     1       2.792   3.799  18.921  0.00  0.00    +0.000 A 
ATOM     10  C   UNL     1       2.758   5.177  18.986  0.00  0.00    +0.000 A 
ATOM     11  C   UNL     1       3.471   6.015  18.134  0.00  0.00    +0.000 A 
ATOM     12  C   UNL     1       4.317   5.456  17.179  0.00  0.00    +0.000 A 
ATOM     13  C   UNL     1       4.374   4.041  17.106  0.00  0.00    +0.000 A 
ATOM     14  C   UNL     1       3.115   7.442  18.449  0.00  0.00    +0.000 C 
ATOM     15  N   UNL     1       2.230   7.323  19.601  0.00  0.00    +0.000 N 
ATOM     16  C   UNL     1       1.986   5.987  19.915  0.00  0.00    +0.000 C 
ATOM     17  O   UNL     1       1.262   5.471  20.750  0.00  0.00    +0.000 OA
BRANCH  12  18
ATOM     18  C   UNL     1       5.171   6.275  16.248  0.00  0.00    +0.000 C 
ATOM     19  F   UNL     1       4.464   7.159  15.492  0.00  0.00    +0.000 F 
ATOM     20  F   UNL     1       6.099   7.015  16.917  0.00  0.00    +0.000 F 
ATOM     21  F   UNL     1       5.869   5.506  15.369  0.00  0.00    +0.000 F 
ENDBRANCH  12  18
ENDBRANCH   1  15
BRANCH   5  22
ATOM     22  C   UNL     1      -1.023  11.077  19.240  0.00  0.00    +0.000 C 
BRANCH  22  23
ATOM     23  N   UNL     1      -1.620  12.262  19.934  0.00  0.00    +0.000 NA
ATOM     24  C   UNL     1      -3.068  12.360  19.667  0.00  0.00    +0.000 C 
ATOM     25  C   UNL     1      -3.876  13.252  20.623  0.00  0.00    +0.000 C 
ATOM     26  C   UNL     1      -3.417  13.204  22.078  0.00  0.00    +0.000 C 
ATOM     27  N   UNL     1      -2.206  13.902  22.455  0.00  0.00    +0.000 N 
ATOM     28  C   UNL     1      -1.765  13.980  23.749  0.00  0.00    +0.000 A 
ATOM     29  N   UNL     1      -0.663  14.685  23.804  0.00  0.00    +0.000 NA
ATOM     30  N   UNL     1      -0.348  15.056  22.523  0.00  0.00    +0.000 NA
ATOM     31  C   UNL     1      -1.270  14.567  21.710  0.00  0.00    +0.000 A 
ATOM     32  C   UNL     1      -1.256  14.701  20.231  0.00  0.00    +0.000 C 
ATOM     33  N   UNL     1      -0.872  13.467  19.527  0.00  0.00    +0.000 NA
ATOM     34  H   UNL     1       0.118  13.327  19.761  0.00  0.00    +0.000 HD
ENDBRANCH  22  23
ENDBRANCH   5  22
TORSDOF 4
ENDMDL
MODEL 7
REMARK VINA RESULT:      -8.7      4.457      8.498
REMARK  Name = 
REMARK  5 active torsions:
REMARK  status: ('A' for Active; 'I' for Inactive)
REMARK    1  A    between atoms: C_1  and  C_2
REMARK    2  A    between atoms: C_6  and  C_7
REMARK    3  A    between atoms: N_13  and  C_14
REMARK    4  A    between atoms: C_18  and  C_19
REMARK    5  A    between atoms: C_19  and  N_20
REMARK                            x       y       z     vdW  Elec       q    Type
REMARK                         _______ _______ _______ _____ _____    ______ ____
ROOT
ATOM      1  C   UNL     1       1.645   8.268  19.997  0.00  0.00    +0.000 A 
ATOM      2  C   UNL     1       1.178   8.222  21.319  0.00  0.00    +0.000 A 
ATOM      3  C   UNL     1       0.371   9.228  21.846  0.00  0.00    +0.000 A 
ATOM      4  C   UNL     1      -0.005  10.297  21.045  0.00  0.00    +0.000 A 
ATOM      5  C   UNL     1       0.450  10.380  19.723  0.00  0.00    +0.000 A 
ATOM      6  C   UNL     1       1.337   9.397  19.231  0.00  0.00    +0.000 A 
ENDROOT
BRANCH   1  15
ATOM      7  C   UNL     1       3.735   1.457  17.947  0.00  0.00    +0.000 C 
ATOM      8  C   UNL     1       3.669   2.956  17.988  0.00  0.00    +0.000 A 
ATOM      9  C   UNL     1       2.860   3.593  18.925  0.00  0.00    +0.000 A 
ATOM     10  C   UNL     1       2.835   4.973  18.924  0.00  0.00    +0.000 A 
ATOM     11  C   UNL     1       3.547   5.765  18.027  0.00  0.00    +0.000 A 
ATOM     12  C   UNL     1       4.383   5.154  17.096  0.00  0.00    +0.000 A 
ATOM     13  C   UNL     1       4.431   3.737  17.091  0.00  0.00    +0.000 A 
ATOM     14  C   UNL     1       3.202   7.208  18.275  0.00  0.00    +0.000 C 
ATOM     15  N   UNL     1       2.323   7.150  19.437  0.00  0.00    +0.000 N 
ATOM     16  C   UNL     1       2.074   5.833  19.818  0.00  0.00    +0.000 C 
ATOM     17  O   UNL     1       1.353   5.362  20.682  0.00  0.00    +0.000 OA
BRANCH  12  18
ATOM     18  C   UNL     1       5.236   5.922  16.120  0.00  0.00    +0.000 C 
ATOM     19  F   UNL     1       4.583   6.951  15.515  0.00  0.00    +0.000 F 
ATOM     20  F   UNL     1       6.330   6.474  16.715  0.00  0.00    +0.000 F 
ATOM     21  F   UNL     1       5.712   5.139  15.115  0.00  0.00    +0.000 F 
ENDBRANCH  12  18
ENDBRANCH   1  15
BRANCH   5  22
ATOM     22  C   UNL     1      -0.139  11.430  18.794  0.00  0.00    +0.000 C 
BRANCH  22  23
ATOM     23  N   UNL     1       0.469  12.795  18.904  0.00  0.00    +0.000 NA
ATOM     24  C   UNL     1      -0.476  13.835  18.454  0.00  0.00    +0.000 C 
ATOM     25  C   UNL     1      -0.161  15.274  18.892  0.00  0.00    +0.000 C 
ATOM     26  C   UNL     1       0.427  15.398  20.295  0.00  0.00    +0.000 C 
ATOM     27  N   UNL     1       1.811  15.032  20.511  0.00  0.00    +0.000 N 
ATOM     28  C   UNL     1       2.441  15.187  21.716  0.00  0.00    +0.000 A 
ATOM     29  N   UNL     1       3.688  14.797  21.622  0.00  0.00    +0.000 NA
ATOM     30  N   UNL     1       3.882  14.346  20.342  0.00  0.00    +0.000 NA
ATOM     31  C   UNL     1       2.743  14.471  19.680  0.00  0.00    +0.000 A 
ATOM     32  C   UNL     1       2.525  14.039  18.276  0.00  0.00    +0.000 C 
ATOM     33  N   UNL     1       1.739  12.801  18.153  0.00  0.00    +0.000 NA
ATOM     34  H   UNL     1       2.344  12.064  18.535  0.00  0.00    +0.000 HD
ENDBRANCH  22  23
ENDBRANCH   5  22
TORSDOF 4
ENDMDL
MODEL 8
REMARK VINA RESULT:      -8.7      4.519      9.254
REMARK  Name = 
REMARK  5 active torsions:
REMARK  status: ('A' for Active; 'I' for Inactive)
REMARK    1  A    between atoms: C_1  and  C_2
REMARK    2  A    between atoms: C_6  and  C_7
REMARK    3  A    between atoms: N_13  and  C_14
REMARK    4  A    between atoms: C_18  and  C_19
REMARK    5  A    between atoms: C_19  and  N_20
REMARK                            x       y       z     vdW  Elec       q    Type
REMARK                         _______ _______ _______ _____ _____    ______ ____
ROOT
ATOM      1  C   UNL     1       1.165   8.680  20.443  0.00  0.00    +0.000 A 
ATOM      2  C   UNL     1       1.129   8.760  21.843  0.00  0.00    +0.000 A 
ATOM      3  C   UNL     1       0.456   9.788  22.500  0.00  0.00    +0.000 A 
ATOM      4  C   UNL     1      -0.220  10.749  21.762  0.00  0.00    +0.000 A 
ATOM      5  C   UNL     1      -0.197  10.705  20.361  0.00  0.00    +0.000 A 
ATOM      6  C   UNL     1       0.562   9.707  19.711  0.00  0.00    +0.000 A 
ENDROOT
BRANCH   1  15
ATOM      7  C   UNL     1       5.150   4.045  16.248  0.00  0.00    +0.000 C 
ATOM      8  C   UNL     1       4.217   4.520  17.325  0.00  0.00    +0.000 A 
ATOM      9  C   UNL     1       3.881   5.868  17.411  0.00  0.00    +0.000 A 
ATOM     10  C   UNL     1       3.019   6.255  18.417  0.00  0.00    +0.000 A 
ATOM     11  C   UNL     1       2.486   5.385  19.364  0.00  0.00    +0.000 A 
ATOM     12  C   UNL     1       2.786   4.028  19.286  0.00  0.00    +0.000 A 
ATOM     13  C   UNL     1       3.661   3.610  18.251  0.00  0.00    +0.000 A 
ATOM     14  C   UNL     1       1.668   6.179  20.345  0.00  0.00    +0.000 C 
ATOM     15  N   UNL     1       1.714   7.533  19.805  0.00  0.00    +0.000 N 
ATOM     16  C   UNL     1       2.532   7.601  18.679  0.00  0.00    +0.000 C 
ATOM     17  O   UNL     1       2.881   8.542  17.987  0.00  0.00    +0.000 OA
BRANCH  12  18
ATOM     18  C   UNL     1       2.218   2.999  20.228  0.00  0.00    +0.000 C 
ATOM     19  F   UNL     1       2.732   3.066  21.486  0.00  0.00    +0.000 F 
ATOM     20  F   UNL     1       0.869   3.120  20.370  0.00  0.00    +0.000 F 
ATOM     21  F   UNL     1       2.436   1.725  19.802  0.00  0.00    +0.000 F 
ENDBRANCH  12  18
ENDBRANCH   1  15
BRANCH   5  22
ATOM     22  C   UNL     1      -1.112  11.626  19.570  0.00  0.00    +0.000 C 
BRANCH  22  23
ATOM     23  N   UNL     1      -1.735  12.739  20.356  0.00  0.00    +0.000 NA
ATOM     24  C   UNL     1      -3.204  12.607  20.392  0.00  0.00    +0.000 C 
ATOM     25  C   UNL     1      -3.931  13.410  21.482  0.00  0.00    +0.000 C 
ATOM     26  C   UNL     1      -3.187  13.498  22.812  0.00  0.00    +0.000 C 
ATOM     27  N   UNL     1      -2.049  14.386  22.921  0.00  0.00    +0.000 N 
ATOM     28  C   UNL     1      -1.374  14.588  24.095  0.00  0.00    +0.000 A 
ATOM     29  N   UNL     1      -0.407  15.452  23.912  0.00  0.00    +0.000 NA
ATOM     30  N   UNL     1      -0.419  15.807  22.588  0.00  0.00    +0.000 NA
ATOM     31  C   UNL     1      -1.398  15.149  21.989  0.00  0.00    +0.000 A 
ATOM     32  C   UNL     1      -1.703  15.216  20.537  0.00  0.00    +0.000 C 
ATOM     33  N   UNL     1      -1.281  14.023  19.787  0.00  0.00    +0.000 NA
ATOM     34  H   UNL     1      -0.255  14.043  19.814  0.00  0.00    +0.000 HD
ENDBRANCH  22  23
ENDBRANCH   5  22
TORSDOF 4
ENDMDL
MODEL 9
REMARK VINA RESULT:      -8.7      4.435      9.130
REMARK  Name = 
REMARK  5 active torsions:
REMARK  status: ('A' for Active; 'I' for Inactive)
REMARK    1  A    between atoms: C_1  and  C_2
REMARK    2  A    between atoms: C_6  and  C_7
REMARK    3  A    between atoms: N_13  and  C_14
REMARK    4  A    between atoms: C_18  and  C_19
REMARK    5  A    between atoms: C_19  and  N_20
REMARK                            x       y       z     vdW  Elec       q    Type
REMARK                         _______ _______ _______ _____ _____    ______ ____
ROOT
ATOM      1  C   UNL     1       1.479   8.407  19.893  0.00  0.00    +0.000 A 
ATOM      2  C   UNL     1       1.312   8.378  21.285  0.00  0.00    +0.000 A 
ATOM      3  C   UNL     1       0.540   9.329  21.949  0.00  0.00    +0.000 A 
ATOM      4  C   UNL     1      -0.103  10.322  21.224  0.00  0.00    +0.000 A 
ATOM      5  C   UNL     1       0.050  10.387  19.833  0.00  0.00    +0.000 A 
ATOM      6  C   UNL     1       0.904   9.468  19.185  0.00  0.00    +0.000 A 
ENDROOT
BRANCH   1  15
ATOM      7  C   UNL     1       5.867   4.264  15.587  0.00  0.00    +0.000 C 
ATOM      8  C   UNL     1       4.895   4.625  16.674  0.00  0.00    +0.000 A 
ATOM      9  C   UNL     1       4.438   5.934  16.794  0.00  0.00    +0.000 A 
ATOM     10  C   UNL     1       3.545   6.214  17.808  0.00  0.00    +0.000 A 
ATOM     11  C   UNL     1       3.094   5.275  18.731  0.00  0.00    +0.000 A 
ATOM     12  C   UNL     1       3.516   3.953  18.618  0.00  0.00    +0.000 A 
ATOM     13  C   UNL     1       4.424   3.644  17.575  0.00  0.00    +0.000 A 
ATOM     14  C   UNL     1       2.207   5.966  19.730  0.00  0.00    +0.000 C 
ATOM     15  N   UNL     1       2.129   7.332  19.226  0.00  0.00    +0.000 N 
ATOM     16  C   UNL     1       2.938   7.504  18.104  0.00  0.00    +0.000 C 
ATOM     17  O   UNL     1       3.199   8.490  17.437  0.00  0.00    +0.000 OA
BRANCH  12  18
ATOM     18  C   UNL     1       3.044   2.853  19.532  0.00  0.00    +0.000 C 
ATOM     19  F   UNL     1       1.696   2.665  19.511  0.00  0.00    +0.000 F 
ATOM     20  F   UNL     1       3.592   1.647  19.214  0.00  0.00    +0.000 F 
ATOM     21  F   UNL     1       3.369   3.080  20.834  0.00  0.00    +0.000 F 
ENDBRANCH  12  18
ENDBRANCH   1  15
BRANCH   5  22
ATOM     22  C   UNL     1      -0.826  11.335  19.029  0.00  0.00    +0.000 C 
BRANCH  22  23
ATOM     23  N   UNL     1      -1.527  12.391  19.828  0.00  0.00    +0.000 NA
ATOM     24  C   UNL     1      -2.991  12.282  19.683  0.00  0.00    +0.000 C 
ATOM     25  C   UNL     1      -3.835  13.005  20.745  0.00  0.00    +0.000 C 
ATOM     26  C   UNL     1      -3.250  12.971  22.154  0.00  0.00    +0.000 C 
ATOM     27  N   UNL     1      -2.125  13.827  22.468  0.00  0.00    +0.000 N 
ATOM     28  C   UNL     1      -1.590  13.920  23.724  0.00  0.00    +0.000 A 
ATOM     29  N   UNL     1      -0.602  14.780  23.727  0.00  0.00    +0.000 NA
ATOM     30  N   UNL     1      -0.456  15.243  22.444  0.00  0.00    +0.000 NA
ATOM     31  C   UNL     1      -1.364  14.653  21.684  0.00  0.00    +0.000 A 
ATOM     32  C   UNL     1      -1.498  14.844  20.218  0.00  0.00    +0.000 C 
ATOM     33  N   UNL     1      -1.000  13.709  19.424  0.00  0.00    +0.000 NA
ATOM     34  H   UNL     1       0.016  13.709  19.570  0.00  0.00    +0.000 HD
ENDBRANCH  22  23
ENDBRANCH   5  22
TORSDOF 4
ENDMDL
