MODEL 1
REMARK VINA RESULT:      -8.8      0.000      0.000
REMARK  Name = 
REMARK  6 active torsions:
REMARK  status: ('A' for Active; 'I' for Inactive)
REMARK    1  A    between atoms: C_2  and  C_9
REMARK    2  A    between atoms: C_13  and  S_14
REMARK    3  A    between atoms: S_14  and  N_17
REMARK    4  A    between atoms: N_17  and  C_18
REMARK    5  A    between atoms: N_17  and  C_25
REMARK    6  A    between atoms: C_18  and  C_19
REMARK                            x       y       z     vdW  Elec       q    Type
REMARK                         _______ _______ _______ _____ _____    ______ ____
ROOT
ATOM      1  S   UNL     1       4.253   3.279  18.122  0.00  0.00    +0.000 S 
ATOM      2  O   UNL     1       5.301   2.668  18.918  0.00  0.00    +0.000 OA
ATOM      3  O   UNL     1       3.297   2.460  17.408  0.00  0.00    +0.000 OA
ENDROOT
BRANCH   1   8
ATOM      4  C   UNL     1       2.137   6.295  19.899  0.00  0.00    +0.000 A 
ATOM      5  C   UNL     1       1.469   5.571  20.904  0.00  0.00    +0.000 A 
ATOM      6  C   UNL     1       1.775   4.246  21.176  0.00  0.00    +0.000 A 
ATOM      7  C   UNL     1       2.718   3.590  20.403  0.00  0.00    +0.000 A 
ATOM      8  C   UNL     1       3.268   4.217  19.291  0.00  0.00    +0.000 A 
ATOM      9  C   UNL     1       3.024   5.599  19.058  0.00  0.00    +0.000 A 
BRANCH   4  11
ATOM     10  O   UNL     1       2.082   8.392  18.887  0.00  0.00    +0.000 OA
ATOM     11  C   UNL     1       1.844   7.770  19.923  0.00  0.00    +0.000 C 
ATOM     12  N   UNL     1       1.326   8.355  21.060  0.00  0.00    +0.000 N 
ATOM     13  C   UNL     1       0.870   9.670  21.089  0.00  0.00    +0.000 A 
ATOM     14  N   UNL     1       0.680  10.348  22.200  0.00  0.00    +0.000 NA
ATOM     15  N   UNL     1       0.242  11.648  21.945  0.00  0.00    +0.000 NA
ATOM     16  C   UNL     1       0.062  11.862  20.660  0.00  0.00    +0.000 A 
ATOM     17  S   UNL     1       0.383  10.510  19.674  0.00  0.00    +0.000 S 
ATOM     18  H   UNL     1       1.418   7.920  21.965  0.00  0.00    +0.000 HD
ENDBRANCH   4  11
ENDBRANCH   1   8
BRANCH   1  19
ATOM     19  N   UNL     1       4.981   4.346  17.000  0.00  0.00    +0.000 N 
BRANCH  19  20
ATOM     20  C   UNL     1       5.957   5.312  17.466  0.00  0.00    +0.000 A 
ATOM     21  C   UNL     1       7.048   4.816  18.188  0.00  0.00    +0.000 A 
ATOM     22  C   UNL     1       8.064   5.667  18.644  0.00  0.00    +0.000 A 
ATOM     23  C   UNL     1       8.005   7.031  18.380  0.00  0.00    +0.000 A 
ATOM     24  C   UNL     1       6.929   7.545  17.665  0.00  0.00    +0.000 A 
ATOM     25  C   UNL     1       5.913   6.697  17.205  0.00  0.00    +0.000 A 
ATOM     26 CL   UNL     1       4.680   7.474  16.292  0.00  0.00    +0.000 Cl
ENDBRANCH  19  20
BRANCH  19  27
ATOM     27  C   UNL     1       4.563   4.379  15.578  0.00  0.00    +0.000 C 
BRANCH  27  28
ATOM     28  C   UNL     1       5.607   4.210  14.483  0.00  0.00    +0.000 A 
ATOM     29  C   UNL     1       5.387   3.422  13.348  0.00  0.00    +0.000 A 
ATOM     30  C   UNL     1       6.272   3.466  12.262  0.00  0.00    +0.000 A 
ATOM     31  C   UNL     1       7.396   4.284  12.291  0.00  0.00    +0.000 A 
ATOM     32  C   UNL     1       7.648   5.055  13.421  0.00  0.00    +0.000 A 
ATOM     33  C   UNL     1       6.761   5.018  14.504  0.00  0.00    +0.000 A 
ENDBRANCH  27  28
ENDBRANCH  19  27
ENDBRANCH   1  19
TORSDOF 6
ENDMDL
MODEL 2
REMARK VINA RESULT:      -8.7      4.328      9.669
REMARK  Name = 
REMARK  6 active torsions:
REMARK  status: ('A' for Active; 'I' for Inactive)
REMARK    1  A    between atoms: C_2  and  C_9
REMARK    2  A    between atoms: C_13  and  S_14
REMARK    3  A    between atoms: S_14  and  N_17
REMARK    4  A    between atoms: N_17  and  C_18
REMARK    5  A    between atoms: N_17  and  C_25
REMARK    6  A    between atoms: C_18  and  C_19
REMARK                            x       y       z     vdW  Elec       q    Type
REMARK                         _______ _______ _______ _____ _____    ______ ____
ROOT
ATOM      1  S   UNL     1       0.351  11.614  21.120  0.00  0.00    +0.000 S 
ATOM      2  O   UNL     1      -0.085  10.891  22.300  0.00  0.00    +0.000 OA
ATOM      3  O   UNL     1       1.344  12.662  21.223  0.00  0.00    +0.000 OA
ENDROOT
BRANCH   1   8
ATOM      4  C   UNL     1       1.782   8.057  19.695  0.00  0.00    +0.000 A 
ATOM      5  C   UNL     1       1.940   8.380  18.335  0.00  0.00    +0.000 A 
ATOM      6  C   UNL     1       1.804   9.680  17.871  0.00  0.00    +0.000 A 
ATOM      7  C   UNL     1       1.441  10.685  18.752  0.00  0.00    +0.000 A 
ATOM      8  C   UNL     1       1.104  10.375  20.065  0.00  0.00    +0.000 A 
ATOM      9  C   UNL     1       1.325   9.062  20.567  0.00  0.00    +0.000 A 
BRANCH   4  11
ATOM     10  O   UNL     1       1.498   6.045  20.833  0.00  0.00    +0.000 OA
ATOM     11  C   UNL     1       2.211   6.656  20.036  0.00  0.00    +0.000 C 
ATOM     12  N   UNL     1       3.341   6.118  19.458  0.00  0.00    +0.000 N 
ATOM     13  C   UNL     1       3.690   4.777  19.592  0.00  0.00    +0.000 A 
ATOM     14  N   UNL     1       4.894   4.310  19.340  0.00  0.00    +0.000 NA
ATOM     15  N   UNL     1       4.979   2.938  19.577  0.00  0.00    +0.000 NA
ATOM     16  C   UNL     1       3.820   2.429  19.934  0.00  0.00    +0.000 A 
ATOM     17  S   UNL     1       2.545   3.560  19.984  0.00  0.00    +0.000 S 
ATOM     18  H   UNL     1       4.060   6.703  19.061  0.00  0.00    +0.000 HD
ENDBRANCH   4  11
ENDBRANCH   1   8
BRANCH   1  19
ATOM     19  N   UNL     1      -1.029  12.265  20.346  0.00  0.00    +0.000 N 
BRANCH  19  20
ATOM     20  C   UNL     1      -1.115  13.697  20.131  0.00  0.00    +0.000 A 
ATOM     21  C   UNL     1      -1.944  14.420  20.996  0.00  0.00    +0.000 A 
ATOM     22  C   UNL     1      -2.059  15.814  20.894  0.00  0.00    +0.000 A 
ATOM     23  C   UNL     1      -1.342  16.506  19.924  0.00  0.00    +0.000 A 
ATOM     24  C   UNL     1      -0.512  15.806  19.055  0.00  0.00    +0.000 A 
ATOM     25  C   UNL     1      -0.392  14.414  19.157  0.00  0.00    +0.000 A 
ATOM     26 CL   UNL     1       0.712  13.701  18.047  0.00  0.00    +0.000 Cl
ENDBRANCH  19  20
BRANCH  19  27
ATOM     27  C   UNL     1      -2.187  11.414  19.983  0.00  0.00    +0.000 C 
BRANCH  27  28
ATOM     28  C   UNL     1      -2.513  11.175  18.515  0.00  0.00    +0.000 A 
ATOM     29  C   UNL     1      -1.789  10.283  17.719  0.00  0.00    +0.000 A 
ATOM     30  C   UNL     1      -2.249   9.921  16.445  0.00  0.00    +0.000 A 
ATOM     31  C   UNL     1      -3.432  10.449  15.938  0.00  0.00    +0.000 A 
ATOM     32  C   UNL     1      -4.154  11.359  16.703  0.00  0.00    +0.000 A 
ATOM     33  C   UNL     1      -3.699  11.717  17.978  0.00  0.00    +0.000 A 
ENDBRANCH  27  28
ENDBRANCH  19  27
ENDBRANCH   1  19
TORSDOF 6
ENDMDL
MODEL 3
REMARK VINA RESULT:      -8.7      4.411      6.357
REMARK  Name = 
REMARK  6 active torsions:
REMARK  status: ('A' for Active; 'I' for Inactive)
REMARK    1  A    between atoms: C_2  and  C_9
REMARK    2  A    between atoms: C_13  and  S_14
REMARK    3  A    between atoms: S_14  and  N_17
REMARK    4  A    between atoms: N_17  and  C_18
REMARK    5  A    between atoms: N_17  and  C_25
REMARK    6  A    between atoms: C_18  and  C_19
REMARK                            x       y       z     vdW  Elec       q    Type
REMARK                         _______ _______ _______ _____ _____    ______ ____
ROOT
ATOM      1  S   UNL     1       4.867   6.521  16.627  0.00  0.00    +0.000 S 
ATOM      2  O   UNL     1       3.830   7.161  17.415  0.00  0.00    +0.000 OA
ATOM      3  O   UNL     1       5.051   6.865  15.234  0.00  0.00    +0.000 OA
ENDROOT
BRANCH   1   8
ATOM      4  C   UNL     1       7.952   8.727  18.158  0.00  0.00    +0.000 A 
ATOM      5  C   UNL     1       8.597   7.747  18.935  0.00  0.00    +0.000 A 
ATOM      6  C   UNL     1       8.240   6.408  18.866  0.00  0.00    +0.000 A 
ATOM      7  C   UNL     1       7.180   6.024  18.062  0.00  0.00    +0.000 A 
ATOM      8  C   UNL     1       6.407   6.985  17.420  0.00  0.00    +0.000 A 
ATOM      9  C   UNL     1       6.820   8.346  17.416  0.00  0.00    +0.000 A 
BRANCH   4  11
ATOM     10  O   UNL     1       8.173  10.934  17.448  0.00  0.00    +0.000 OA
ATOM     11  C   UNL     1       8.639  10.065  18.185  0.00  0.00    +0.000 C 
ATOM     12  N   UNL     1       9.725  10.270  19.011  0.00  0.00    +0.000 N 
ATOM     13  C   UNL     1      10.291  11.525  19.213  0.00  0.00    +0.000 A 
ATOM     14  N   UNL     1      11.491  11.709  19.719  0.00  0.00    +0.000 NA
ATOM     15  N   UNL     1      11.822  13.062  19.792  0.00  0.00    +0.000 NA
ATOM     16  C   UNL     1      10.830  13.831  19.400  0.00  0.00    +0.000 A 
ATOM     17  S   UNL     1       9.426  12.983  18.939  0.00  0.00    +0.000 S 
ATOM     18  H   UNL     1      10.269   9.500  19.366  0.00  0.00    +0.000 HD
ENDBRANCH   4  11
ENDBRANCH   1   8
BRANCH   1  19
ATOM     19  N   UNL     1       4.655   4.827  16.733  0.00  0.00    +0.000 N 
BRANCH  19  20
ATOM     20  C   UNL     1       3.604   4.292  17.578  0.00  0.00    +0.000 A 
ATOM     21  C   UNL     1       2.310   4.270  17.045  0.00  0.00    +0.000 A 
ATOM     22  C   UNL     1       1.237   3.733  17.769  0.00  0.00    +0.000 A 
ATOM     23  C   UNL     1       1.444   3.207  19.040  0.00  0.00    +0.000 A 
ATOM     24  C   UNL     1       2.722   3.219  19.588  0.00  0.00    +0.000 A 
ATOM     25  C   UNL     1       3.798   3.752  18.865  0.00  0.00    +0.000 A 
ATOM     26 CL   UNL     1       5.322   3.647  19.655  0.00  0.00    +0.000 Cl
ENDBRANCH  19  20
BRANCH  19  27
ATOM     27  C   UNL     1       5.586   3.887  16.064  0.00  0.00    +0.000 C 
BRANCH  27  28
ATOM     28  C   UNL     1       6.035   4.161  14.635  0.00  0.00    +0.000 A 
ATOM     29  C   UNL     1       7.201   4.871  14.336  0.00  0.00    +0.000 A 
ATOM     30  C   UNL     1       7.700   4.913  13.027  0.00  0.00    +0.000 A 
ATOM     31  C   UNL     1       7.040   4.259  11.991  0.00  0.00    +0.000 A 
ATOM     32  C   UNL     1       5.863   3.569  12.263  0.00  0.00    +0.000 A 
ATOM     33  C   UNL     1       5.367   3.521  13.572  0.00  0.00    +0.000 A 
ENDBRANCH  27  28
ENDBRANCH  19  27
ENDBRANCH   1  19
TORSDOF 6
ENDMDL
MODEL 4
REMARK VINA RESULT:      -8.7      4.181      9.756
REMARK  Name = 
REMARK  6 active torsions:
REMARK  status: ('A' for Active; 'I' for Inactive)
REMARK    1  A    between atoms: C_2  and  C_9
REMARK    2  A    between atoms: C_13  and  S_14
REMARK    3  A    between atoms: S_14  and  N_17
REMARK    4  A    between atoms: N_17  and  C_18
REMARK    5  A    between atoms: N_17  and  C_25
REMARK    6  A    between atoms: C_18  and  C_19
REMARK                            x       y       z     vdW  Elec       q    Type
REMARK                         _______ _______ _______ _____ _____    ______ ____
ROOT
ATOM      1  S   UNL     1       0.140  10.051  21.333  0.00  0.00    +0.000 S 
ATOM      2  O   UNL     1      -0.912   9.073  21.536  0.00  0.00    +0.000 OA
ATOM      3  O   UNL     1       1.080  10.353  22.392  0.00  0.00    +0.000 OA
ENDROOT
BRANCH   1   8
ATOM      4  C   UNL     1       2.233   7.470  18.947  0.00  0.00    +0.000 A 
ATOM      5  C   UNL     1       2.397   8.269  17.801  0.00  0.00    +0.000 A 
ATOM      6  C   UNL     1       2.059   9.615  17.793  0.00  0.00    +0.000 A 
ATOM      7  C   UNL     1       1.486  10.182  18.919  0.00  0.00    +0.000 A 
ATOM      8  C   UNL     1       1.146   9.385  20.006  0.00  0.00    +0.000 A 
ATOM      9  C   UNL     1       1.567   8.027  20.054  0.00  0.00    +0.000 A 
BRANCH   4  11
ATOM     10  O   UNL     1       4.008   6.009  19.322  0.00  0.00    +0.000 OA
ATOM     11  C   UNL     1       2.881   6.117  18.837  0.00  0.00    +0.000 C 
ATOM     12  N   UNL     1       2.212   5.077  18.226  0.00  0.00    +0.000 N 
ATOM     13  C   UNL     1       2.679   3.766  18.248  0.00  0.00    +0.000 A 
ATOM     14  N   UNL     1       2.256   2.830  17.426  0.00  0.00    +0.000 NA
ATOM     15  N   UNL     1       2.903   1.614  17.648  0.00  0.00    +0.000 NA
ATOM     16  C   UNL     1       3.732   1.678  18.667  0.00  0.00    +0.000 A 
ATOM     17  S   UNL     1       3.771   3.195  19.443  0.00  0.00    +0.000 S 
ATOM     18  H   UNL     1       1.451   5.243  17.586  0.00  0.00    +0.000 HD
ENDBRANCH   4  11
ENDBRANCH   1   8
BRANCH   1  19
ATOM     19  N   UNL     1      -0.578  11.518  20.827  0.00  0.00    +0.000 N 
BRANCH  19  20
ATOM     20  C   UNL     1      -1.041  12.465  21.824  0.00  0.00    +0.000 A 
ATOM     21  C   UNL     1      -2.244  12.166  22.473  0.00  0.00    +0.000 A 
ATOM     22  C   UNL     1      -2.751  12.998  23.481  0.00  0.00    +0.000 A 
ATOM     23  C   UNL     1      -2.057  14.144  23.857  0.00  0.00    +0.000 A 
ATOM     24  C   UNL     1      -0.860  14.459  23.224  0.00  0.00    +0.000 A 
ATOM     25  C   UNL     1      -0.349  13.627  22.219  0.00  0.00    +0.000 A 
ATOM     26 CL   UNL     1       1.165  14.123  21.571  0.00  0.00    +0.000 Cl
ENDBRANCH  19  20
BRANCH  19  27
ATOM     27  C   UNL     1      -0.836  11.802  19.395  0.00  0.00    +0.000 C 
BRANCH  27  28
ATOM     28  C   UNL     1      -2.105  11.274  18.740  0.00  0.00    +0.000 A 
ATOM     29  C   UNL     1      -3.339  11.919  18.861  0.00  0.00    +0.000 A 
ATOM     30  C   UNL     1      -4.430  11.535  18.070  0.00  0.00    +0.000 A 
ATOM     31  C   UNL     1      -4.316  10.496  17.154  0.00  0.00    +0.000 A 
ATOM     32  C   UNL     1      -3.104   9.823  17.036  0.00  0.00    +0.000 A 
ATOM     33  C   UNL     1      -2.011  10.209  17.821  0.00  0.00    +0.000 A 
ENDBRANCH  27  28
ENDBRANCH  19  27
ENDBRANCH   1  19
TORSDOF 6
ENDMDL
MODEL 5
REMARK VINA RESULT:      -8.7      3.453      9.307
REMARK  Name = 
REMARK  6 active torsions:
REMARK  status: ('A' for Active; 'I' for Inactive)
REMARK    1  A    between atoms: C_2  and  C_9
REMARK    2  A    between atoms: C_13  and  S_14
REMARK    3  A    between atoms: S_14  and  N_17
REMARK    4  A    between atoms: N_17  and  C_18
REMARK    5  A    between atoms: N_17  and  C_25
REMARK    6  A    between atoms: C_18  and  C_19
REMARK                            x       y       z     vdW  Elec       q    Type
REMARK                         _______ _______ _______ _____ _____    ______ ____
ROOT
ATOM      1  S   UNL     1       1.001  10.481  19.157  0.00  0.00    +0.000 S 
ATOM      2  O   UNL     1       1.769  11.238  20.127  0.00  0.00    +0.000 OA
ATOM      3  O   UNL     1       1.137  10.745  17.740  0.00  0.00    +0.000 OA
ENDROOT
BRANCH   1   8
ATOM      4  C   UNL     1       2.991   6.940  18.675  0.00  0.00    +0.000 A 
ATOM      5  C   UNL     1       2.631   6.288  19.868  0.00  0.00    +0.000 A 
ATOM      6  C   UNL     1       1.667   6.805  20.722  0.00  0.00    +0.000 A 
ATOM      7  C   UNL     1       1.082   8.026  20.432  0.00  0.00    +0.000 A 
ATOM      8  C   UNL     1       1.540   8.782  19.358  0.00  0.00    +0.000 A 
ATOM      9  C   UNL     1       2.463   8.221  18.433  0.00  0.00    +0.000 A 
BRANCH   4  11
ATOM     10  O   UNL     1       3.427   4.997  17.466  0.00  0.00    +0.000 OA
ATOM     11  C   UNL     1       3.861   6.108  17.772  0.00  0.00    +0.000 C 
ATOM     12  N   UNL     1       5.068   6.603  17.326  0.00  0.00    +0.000 N 
ATOM     13  C   UNL     1       5.832   5.962  16.354  0.00  0.00    +0.000 A 
ATOM     14  N   UNL     1       7.105   6.219  16.144  0.00  0.00    +0.000 NA
ATOM     15  N   UNL     1       7.634   5.421  15.130  0.00  0.00    +0.000 NA
ATOM     16  C   UNL     1       6.719   4.649  14.584  0.00  0.00    +0.000 A 
ATOM     17  S   UNL     1       5.157   4.849  15.235  0.00  0.00    +0.000 S 
ATOM     18  H   UNL     1       5.540   7.354  17.805  0.00  0.00    +0.000 HD
ENDBRANCH   4  11
ENDBRANCH   1   8
BRANCH   1  19
ATOM     19  N   UNL     1      -0.656  10.608  19.563  0.00  0.00    +0.000 N 
BRANCH  19  20
ATOM     20  C   UNL     1      -1.079  11.615  20.519  0.00  0.00    +0.000 A 
ATOM     21  C   UNL     1      -1.516  12.839  20.001  0.00  0.00    +0.000 A 
ATOM     22  C   UNL     1      -1.983  13.858  20.843  0.00  0.00    +0.000 A 
ATOM     23  C   UNL     1      -2.023  13.664  22.220  0.00  0.00    +0.000 A 
ATOM     24  C   UNL     1      -1.594  12.454  22.755  0.00  0.00    +0.000 A 
ATOM     25  C   UNL     1      -1.129  11.433  21.915  0.00  0.00    +0.000 A 
ATOM     26 CL   UNL     1      -0.685   9.981  22.722  0.00  0.00    +0.000 Cl
ENDBRANCH  19  20
BRANCH  19  27
ATOM     27  C   UNL     1      -1.658   9.648  19.043  0.00  0.00    +0.000 C 
BRANCH  27  28
ATOM     28  C   UNL     1      -2.541  10.045  17.867  0.00  0.00    +0.000 A 
ATOM     29  C   UNL     1      -3.731  10.761  18.027  0.00  0.00    +0.000 A 
ATOM     30  C   UNL     1      -4.399  11.300  16.920  0.00  0.00    +0.000 A 
ATOM     31  C   UNL     1      -3.901  11.125  15.633  0.00  0.00    +0.000 A 
ATOM     32  C   UNL     1      -2.733  10.394  15.449  0.00  0.00    +0.000 A 
ATOM     33  C   UNL     1      -2.061   9.860  16.555  0.00  0.00    +0.000 A 
ENDBRANCH  27  28
ENDBRANCH  19  27
ENDBRANCH   1  19
TORSDOF 6
ENDMDL
MODEL 6
REMARK VINA RESULT:      -8.7      4.902      9.505
REMARK  Name = 
REMARK  6 active torsions:
REMARK  status: ('A' for Active; 'I' for Inactive)
REMARK    1  A    between atoms: C_2  and  C_9
REMARK    2  A    between atoms: C_13  and  S_14
REMARK    3  A    between atoms: S_14  and  N_17
REMARK    4  A    between atoms: N_17  and  C_18
REMARK    5  A    between atoms: N_17  and  C_25
REMARK    6  A    between atoms: C_18  and  C_19
REMARK                            x       y       z     vdW  Elec       q    Type
REMARK                         _______ _______ _______ _____ _____    ______ ____
ROOT
ATOM      1  S   UNL     1       0.677  11.424  21.065  0.00  0.00    +0.000 S 
ATOM      2  O   UNL     1       0.240  10.581  22.162  0.00  0.00    +0.000 OA
ATOM      3  O   UNL     1       1.721  12.407  21.260  0.00  0.00    +0.000 OA
ENDROOT
BRANCH   1   8
ATOM      4  C   UNL     1       1.834   8.002  19.145  0.00  0.00    +0.000 A 
ATOM      5  C   UNL     1       2.033   8.502  17.845  0.00  0.00    +0.000 A 
ATOM      6  C   UNL     1       2.007   9.862  17.572  0.00  0.00    +0.000 A 
ATOM      7  C   UNL     1       1.716  10.757  18.589  0.00  0.00    +0.000 A 
ATOM      8  C   UNL     1       1.339  10.291  19.843  0.00  0.00    +0.000 A 
ATOM      9  C   UNL     1       1.448   8.906  20.151  0.00  0.00    +0.000 A 
BRANCH   4  11
ATOM     10  O   UNL     1       2.459   5.946  18.248  0.00  0.00    +0.000 OA
ATOM     11  C   UNL     1       2.144   6.537  19.281  0.00  0.00    +0.000 C 
ATOM     12  N   UNL     1       2.076   5.927  20.516  0.00  0.00    +0.000 N 
ATOM     13  C   UNL     1       2.519   4.626  20.739  0.00  0.00    +0.000 A 
ATOM     14  N   UNL     1       2.182   3.913  21.792  0.00  0.00    +0.000 NA
ATOM     15  N   UNL     1       2.745   2.638  21.757  0.00  0.00    +0.000 NA
ATOM     16  C   UNL     1       3.529   2.476  20.714  0.00  0.00    +0.000 A 
ATOM     17  S   UNL     1       3.662   3.852  19.718  0.00  0.00    +0.000 S 
ATOM     18  H   UNL     1       1.542   6.325  21.273  0.00  0.00    +0.000 HD
ENDBRANCH   4  11
ENDBRANCH   1   8
BRANCH   1  19
ATOM     19  N   UNL     1      -0.692  12.224  20.422  0.00  0.00    +0.000 N 
BRANCH  19  20
ATOM     20  C   UNL     1      -0.614  13.643  20.129  0.00  0.00    +0.000 A 
ATOM     21  C   UNL     1      -0.160  14.005  18.856  0.00  0.00    +0.000 A 
ATOM     22  C   UNL     1      -0.090  15.350  18.466  0.00  0.00    +0.000 A 
ATOM     23  C   UNL     1      -0.479  16.354  19.346  0.00  0.00    +0.000 A 
ATOM     24  C   UNL     1      -0.934  16.015  20.616  0.00  0.00    +0.000 A 
ATOM     25  C   UNL     1      -1.007  14.672  21.008  0.00  0.00    +0.000 A 
ATOM     26 CL   UNL     1      -1.639  14.413  22.586  0.00  0.00    +0.000 Cl
ENDBRANCH  19  20
BRANCH  19  27
ATOM     27  C   UNL     1      -1.989  11.527  20.254  0.00  0.00    +0.000 C 
BRANCH  27  28
ATOM     28  C   UNL     1      -2.441  11.105  18.863  0.00  0.00    +0.000 A 
ATOM     29  C   UNL     1      -3.495  11.731  18.191  0.00  0.00    +0.000 A 
ATOM     30  C   UNL     1      -3.739  11.469  16.836  0.00  0.00    +0.000 A 
ATOM     31  C   UNL     1      -2.946  10.571  16.129  0.00  0.00    +0.000 A 
ATOM     32  C   UNL     1      -1.909   9.917  16.786  0.00  0.00    +0.000 A 
ATOM     33  C   UNL     1      -1.660  10.182  18.138  0.00  0.00    +0.000 A 
ENDBRANCH  27  28
ENDBRANCH  19  27
ENDBRANCH   1  19
TORSDOF 6
ENDMDL
MODEL 7
REMARK VINA RESULT:      -8.6      3.421      9.215
REMARK  Name = 
REMARK  6 active torsions:
REMARK  status: ('A' for Active; 'I' for Inactive)
REMARK    1  A    between atoms: C_2  and  C_9
REMARK    2  A    between atoms: C_13  and  S_14
REMARK    3  A    between atoms: S_14  and  N_17
REMARK    4  A    between atoms: N_17  and  C_18
REMARK    5  A    between atoms: N_17  and  C_25
REMARK    6  A    between atoms: C_18  and  C_19
REMARK                            x       y       z     vdW  Elec       q    Type
REMARK                         _______ _______ _______ _____ _____    ______ ____
ROOT
ATOM      1  S   UNL     1       1.147  10.524  19.261  0.00  0.00    +0.000 S 
ATOM      2  O   UNL     1       1.943  11.228  20.248  0.00  0.00    +0.000 OA
ATOM      3  O   UNL     1       1.289  10.822  17.852  0.00  0.00    +0.000 OA
ENDROOT
BRANCH   1   8
ATOM      4  C   UNL     1       3.021   6.935  18.680  0.00  0.00    +0.000 A 
ATOM      5  C   UNL     1       2.638   6.262  19.854  0.00  0.00    +0.000 A 
ATOM      6  C   UNL     1       1.690   6.785  20.721  0.00  0.00    +0.000 A 
ATOM      7  C   UNL     1       1.146   8.033  20.466  0.00  0.00    +0.000 A 
ATOM      8  C   UNL     1       1.630   8.804  19.414  0.00  0.00    +0.000 A 
ATOM      9  C   UNL     1       2.536   8.239  18.475  0.00  0.00    +0.000 A 
BRANCH   4  11
ATOM     10  O   UNL     1       3.387   5.023  17.402  0.00  0.00    +0.000 OA
ATOM     11  C   UNL     1       3.865   6.101  17.755  0.00  0.00    +0.000 C 
ATOM     12  N   UNL     1       5.098   6.559  17.340  0.00  0.00    +0.000 N 
ATOM     13  C   UNL     1       5.845   5.923  16.353  0.00  0.00    +0.000 A 
ATOM     14  N   UNL     1       7.130   6.132  16.165  0.00  0.00    +0.000 NA
ATOM     15  N   UNL     1       7.636   5.351  15.127  0.00  0.00    +0.000 NA
ATOM     16  C   UNL     1       6.695   4.642  14.542  0.00  0.00    +0.000 A 
ATOM     17  S   UNL     1       5.136   4.884  15.185  0.00  0.00    +0.000 S 
ATOM     18  H   UNL     1       5.596   7.270  17.853  0.00  0.00    +0.000 HD
ENDBRANCH   4  11
ENDBRANCH   1   8
BRANCH   1  19
ATOM     19  N   UNL     1      -0.503  10.696  19.677  0.00  0.00    +0.000 N 
BRANCH  19  20
ATOM     20  C   UNL     1      -0.879  11.616  20.734  0.00  0.00    +0.000 A 
ATOM     21  C   UNL     1      -1.068  11.074  22.010  0.00  0.00    +0.000 A 
ATOM     22  C   UNL     1      -1.390  11.889  23.104  0.00  0.00    +0.000 A 
ATOM     23  C   UNL     1      -1.526  13.263  22.936  0.00  0.00    +0.000 A 
ATOM     24  C   UNL     1      -1.342  13.822  21.676  0.00  0.00    +0.000 A 
ATOM     25  C   UNL     1      -1.016  13.010  20.581  0.00  0.00    +0.000 A 
ATOM     26 CL   UNL     1      -0.769  13.854  19.104  0.00  0.00    +0.000 Cl
ENDBRANCH  19  20
BRANCH  19  27
ATOM     27  C   UNL     1      -1.551   9.851  19.057  0.00  0.00    +0.000 C 
BRANCH  27  28
ATOM     28  C   UNL     1      -2.285  10.349  17.819  0.00  0.00    +0.000 A 
ATOM     29  C   UNL     1      -2.018   9.859  16.537  0.00  0.00    +0.000 A 
ATOM     30  C   UNL     1      -2.856  10.173  15.459  0.00  0.00    +0.000 A 
ATOM     31  C   UNL     1      -3.969  10.990  15.636  0.00  0.00    +0.000 A 
ATOM     32  C   UNL     1      -4.238  11.509  16.898  0.00  0.00    +0.000 A 
ATOM     33  C   UNL     1      -3.404  11.191  17.977  0.00  0.00    +0.000 A 
ENDBRANCH  27  28
ENDBRANCH  19  27
ENDBRANCH   1  19
TORSDOF 6
ENDMDL
MODEL 8
REMARK VINA RESULT:      -8.5      3.565      9.064
REMARK  Name = 
REMARK  6 active torsions:
REMARK  status: ('A' for Active; 'I' for Inactive)
REMARK    1  A    between atoms: C_2  and  C_9
REMARK    2  A    between atoms: C_13  and  S_14
REMARK    3  A    between atoms: S_14  and  N_17
REMARK    4  A    between atoms: N_17  and  C_18
REMARK    5  A    between atoms: N_17  and  C_25
REMARK    6  A    between atoms: C_18  and  C_19
REMARK                            x       y       z     vdW  Elec       q    Type
REMARK                         _______ _______ _______ _____ _____    ______ ____
ROOT
ATOM      1  S   UNL     1       0.261  12.982  21.175  0.00  0.00    +0.000 S 
ATOM      2  O   UNL     1      -0.954  13.416  21.838  0.00  0.00    +0.000 OA
ATOM      3  O   UNL     1       1.559  13.323  21.719  0.00  0.00    +0.000 OA
ENDROOT
BRANCH   1   8
ATOM      4  C   UNL     1       1.088   9.037  20.481  0.00  0.00    +0.000 A 
ATOM      5  C   UNL     1       0.365   8.443  21.531  0.00  0.00    +0.000 A 
ATOM      6  C   UNL     1      -0.507   9.175  22.325  0.00  0.00    +0.000 A 
ATOM      7  C   UNL     1      -0.627  10.541  22.127  0.00  0.00    +0.000 A 
ATOM      8  C   UNL     1       0.203  11.191  21.220  0.00  0.00    +0.000 A 
ATOM      9  C   UNL     1       1.033  10.436  20.345  0.00  0.00    +0.000 A 
BRANCH   4  11
ATOM     10  O   UNL     1       1.803   8.312  18.387  0.00  0.00    +0.000 OA
ATOM     11  C   UNL     1       1.780   8.044  19.588  0.00  0.00    +0.000 C 
ATOM     12  N   UNL     1       2.353   6.910  20.126  0.00  0.00    +0.000 N 
ATOM     13  C   UNL     1       3.155   6.048  19.385  0.00  0.00    +0.000 A 
ATOM     14  N   UNL     1       3.443   4.820  19.761  0.00  0.00    +0.000 NA
ATOM     15  N   UNL     1       4.245   4.166  18.825  0.00  0.00    +0.000 NA
ATOM     16  C   UNL     1       4.574   4.954  17.825  0.00  0.00    +0.000 A 
ATOM     17  S   UNL     1       3.963   6.539  17.953  0.00  0.00    +0.000 S 
ATOM     18  H   UNL     1       2.075   6.557  21.029  0.00  0.00    +0.000 HD
ENDBRANCH   4  11
ENDBRANCH   1   8
BRANCH   1  19
ATOM     19  N   UNL     1       0.209  13.518  19.551  0.00  0.00    +0.000 N 
BRANCH  19  20
ATOM     20  C   UNL     1       1.376  14.158  18.975  0.00  0.00    +0.000 A 
ATOM     21  C   UNL     1       1.493  15.542  19.150  0.00  0.00    +0.000 A 
ATOM     22  C   UNL     1       2.606  16.243  18.667  0.00  0.00    +0.000 A 
ATOM     23  C   UNL     1       3.624  15.567  18.002  0.00  0.00    +0.000 A 
ATOM     24  C   UNL     1       3.528  14.192  17.818  0.00  0.00    +0.000 A 
ATOM     25  C   UNL     1       2.418  13.488  18.303  0.00  0.00    +0.000 A 
ATOM     26 CL   UNL     1       2.470  11.788  18.044  0.00  0.00    +0.000 Cl
ENDBRANCH  19  20
BRANCH  19  27
ATOM     27  C   UNL     1      -1.034  13.439  18.748  0.00  0.00    +0.000 C 
BRANCH  27  28
ATOM     28  C   UNL     1      -1.680  12.083  18.494  0.00  0.00    +0.000 A 
ATOM     29  C   UNL     1      -3.031  11.833  18.752  0.00  0.00    +0.000 A 
ATOM     30  C   UNL     1      -3.642  10.655  18.302  0.00  0.00    +0.000 A 
ATOM     31  C   UNL     1      -2.916   9.700  17.598  0.00  0.00    +0.000 A 
ATOM     32  C   UNL     1      -1.565   9.917  17.353  0.00  0.00    +0.000 A 
ATOM     33  C   UNL     1      -0.955  11.097  17.796  0.00  0.00    +0.000 A 
ENDBRANCH  27  28
ENDBRANCH  19  27
ENDBRANCH   1  19
TORSDOF 6
ENDMDL
MODEL 9
REMARK VINA RESULT:      -8.5      4.202     10.179
REMARK  Name = 
REMARK  6 active torsions:
REMARK  status: ('A' for Active; 'I' for Inactive)
REMARK    1  A    between atoms: C_2  and  C_9
REMARK    2  A    between atoms: C_13  and  S_14
REMARK    3  A    between atoms: S_14  and  N_17
REMARK    4  A    between atoms: N_17  and  C_18
REMARK    5  A    between atoms: N_17  and  C_25
REMARK    6  A    between atoms: C_18  and  C_19
REMARK                            x       y       z     vdW  Elec       q    Type
REMARK                         _______ _______ _______ _____ _____    ______ ____
ROOT
ATOM      1  S   UNL     1       0.189  12.900  21.190  0.00  0.00    +0.000 S 
ATOM      2  O   UNL     1       0.206  13.473  22.523  0.00  0.00    +0.000 OA
ATOM      3  O   UNL     1       1.261  13.172  20.257  0.00  0.00    +0.000 OA
ENDROOT
BRANCH   1   8
ATOM      4  C   UNL     1       1.142   8.939  20.829  0.00  0.00    +0.000 A 
ATOM      5  C   UNL     1       0.619   8.446  22.038  0.00  0.00    +0.000 A 
ATOM      6  C   UNL     1      -0.168   9.231  22.869  0.00  0.00    +0.000 A 
ATOM      7  C   UNL     1      -0.399  10.556  22.538  0.00  0.00    +0.000 A 
ATOM      8  C   UNL     1       0.247  11.126  21.446  0.00  0.00    +0.000 A 
ATOM      9  C   UNL     1       0.982  10.307  20.546  0.00  0.00    +0.000 A 
BRANCH   4  11
ATOM     10  O   UNL     1       1.898   8.158  18.769  0.00  0.00    +0.000 OA
ATOM     11  C   UNL     1       1.752   7.875  19.958  0.00  0.00    +0.000 C 
ATOM     12  N   UNL     1       2.124   6.663  20.503  0.00  0.00    +0.000 N 
ATOM     13  C   UNL     1       2.851   5.711  19.795  0.00  0.00    +0.000 A 
ATOM     14  N   UNL     1       2.940   4.449  20.156  0.00  0.00    +0.000 NA
ATOM     15  N   UNL     1       3.709   3.706  19.260  0.00  0.00    +0.000 NA
ATOM     16  C   UNL     1       4.214   4.458  18.306  0.00  0.00    +0.000 A 
ATOM     17  S   UNL     1       3.819   6.111  18.435  0.00  0.00    +0.000 S 
ATOM     18  H   UNL     1       1.737   6.336  21.375  0.00  0.00    +0.000 HD
ENDBRANCH   4  11
ENDBRANCH   1   8
BRANCH   1  19
ATOM     19  N   UNL     1      -1.289  13.323  20.440  0.00  0.00    +0.000 N 
BRANCH  19  20
ATOM     20  C   UNL     1      -2.402  13.763  21.260  0.00  0.00    +0.000 A 
ATOM     21  C   UNL     1      -3.136  12.772  21.921  0.00  0.00    +0.000 A 
ATOM     22  C   UNL     1      -4.202  13.101  22.768  0.00  0.00    +0.000 A 
ATOM     23  C   UNL     1      -4.550  14.433  22.971  0.00  0.00    +0.000 A 
ATOM     24  C   UNL     1      -3.833  15.434  22.324  0.00  0.00    +0.000 A 
ATOM     25  C   UNL     1      -2.764  15.108  21.478  0.00  0.00    +0.000 A 
ATOM     26 CL   UNL     1      -1.946  16.457  20.795  0.00  0.00    +0.000 Cl
ENDBRANCH  19  20
BRANCH  19  27
ATOM     27  C   UNL     1      -1.496  13.153  18.983  0.00  0.00    +0.000 C 
BRANCH  27  28
ATOM     28  C   UNL     1      -2.104  11.860  18.456  0.00  0.00    +0.000 A 
ATOM     29  C   UNL     1      -3.485  11.653  18.381  0.00  0.00    +0.000 A 
ATOM     30  C   UNL     1      -4.010  10.553  17.690  0.00  0.00    +0.000 A 
ATOM     31  C   UNL     1      -3.170   9.633  17.071  0.00  0.00    +0.000 A 
ATOM     32  C   UNL     1      -1.792   9.806  17.156  0.00  0.00    +0.000 A 
ATOM     33  C   UNL     1      -1.266  10.908  17.841  0.00  0.00    +0.000 A 
ENDBRANCH  27  28
ENDBRANCH  19  27
ENDBRANCH   1  19
TORSDOF 6
ENDMDL
