MODEL 1
REMARK VINA RESULT:      -8.9      0.000      0.000
REMARK  Name = 
REMARK  3 active torsions:
REMARK  status: ('A' for Active; 'I' for Inactive)
REMARK    1  A    between atoms: C_1  and  C_2
REMARK    2  A    between atoms: C_12  and  C_13
REMARK    3  A    between atoms: C_18  and  C_19
REMARK                            x       y       z     vdW  Elec       q    Type
REMARK                         _______ _______ _______ _____ _____    ______ ____
ROOT
ATOM      1  C   UNL     1       2.473   6.511  19.692  0.00  0.00    +0.000 C 
ATOM      2  O   UNL     1       2.349   5.918  20.764  0.00  0.00    +0.000 OA
ATOM      3  N   UNL     1       1.971   7.821  19.517  0.00  0.00    +0.000 N 
ATOM      4  C   UNL     1       1.466   8.510  20.708  0.00  0.00    +0.000 C 
ATOM      5  C   UNL     1       0.167   9.254  20.410  0.00  0.00    +0.000 C 
ATOM      6  C   UNL     1       0.322  10.248  19.253  0.00  0.00    +0.000 C 
ATOM      7  C   UNL     1       0.917   9.547  18.036  0.00  0.00    +0.000 C 
ATOM      8  C   UNL     1       2.138   8.687  18.344  0.00  0.00    +0.000 C 
ENDROOT
BRANCH   1  20
ATOM      9  C   UNL     1       1.371   3.933  18.498  0.00  0.00    +0.000 C 
ATOM     10  C   UNL     1       2.627   4.606  18.019  0.00  0.00    +0.000 A 
ATOM     11  N   UNL     1       3.252   3.930  17.008  0.00  0.00    +0.000 NA
ATOM     12  C   UNL     1       4.420   4.381  16.531  0.00  0.00    +0.000 A 
ATOM     13  C   UNL     1       5.047   3.705  15.498  0.00  0.00    +0.000 A 
ATOM     14  C   UNL     1       6.257   4.159  14.985  0.00  0.00    +0.000 A 
ATOM     15  F   UNL     1       6.850   3.480  13.994  0.00  0.00    +0.000 F 
ATOM     16  C   UNL     1       6.862   5.305  15.481  0.00  0.00    +0.000 A 
ATOM     17  C   UNL     1       6.257   5.990  16.528  0.00  0.00    +0.000 A 
ATOM     18  C   UNL     1       5.045   5.521  17.066  0.00  0.00    +0.000 A 
ATOM     19  C   UNL     1       4.424   6.166  18.142  0.00  0.00    +0.000 A 
ATOM     20  C   UNL     1       3.162   5.770  18.592  0.00  0.00    +0.000 A 
ENDBRANCH   1  20
BRANCH   6  21
ATOM     21  C   UNL     1       1.049  11.483  19.690  0.00  0.00    +0.000 A 
ATOM     22  N   UNL     1       1.140  12.086  20.867  0.00  0.00    +0.000 NA
ATOM     23  C   UNL     1       1.955  13.172  20.604  0.00  0.00    +0.000 A 
ATOM     24  C   UNL     1       2.434  14.205  21.423  0.00  0.00    +0.000 A 
ATOM     25  C   UNL     1       3.236  15.204  20.837  0.00  0.00    +0.000 A 
ATOM     26  C   UNL     1       3.565  15.168  19.476  0.00  0.00    +0.000 A 
ATOM     27  C   UNL     1       3.112  14.134  18.651  0.00  0.00    +0.000 A 
ATOM     28  C   UNL     1       2.315  13.177  19.269  0.00  0.00    +0.000 A 
ATOM     29  O   UNL     1       1.752  12.093  18.679  0.00  0.00    +0.000 OA
ENDBRANCH   6  21
TORSDOF 2
ENDMDL
MODEL 2
REMARK VINA RESULT:      -8.6      1.777      2.011
REMARK  Name = 
REMARK  3 active torsions:
REMARK  status: ('A' for Active; 'I' for Inactive)
REMARK    1  A    between atoms: C_1  and  C_2
REMARK    2  A    between atoms: C_12  and  C_13
REMARK    3  A    between atoms: C_18  and  C_19
REMARK                            x       y       z     vdW  Elec       q    Type
REMARK                         _______ _______ _______ _____ _____    ______ ____
ROOT
ATOM      1  C   UNL     1       1.857   7.743  20.129  0.00  0.00    +0.000 C 
ATOM      2  O   UNL     1       1.858   7.505  21.337  0.00  0.00    +0.000 OA
ATOM      3  N   UNL     1       1.239   8.905  19.611  0.00  0.00    +0.000 N 
ATOM      4  C   UNL     1       0.764   9.899  20.578  0.00  0.00    +0.000 C 
ATOM      5  C   UNL     1      -0.609  10.440  20.189  0.00  0.00    +0.000 C 
ATOM      6  C   UNL     1      -0.618  11.035  18.776  0.00  0.00    +0.000 C 
ATOM      7  C   UNL     1      -0.055  10.025  17.780  0.00  0.00    +0.000 C 
ATOM      8  C   UNL     1       1.251   9.373  18.220  0.00  0.00    +0.000 C 
ENDROOT
BRANCH   1  20
ATOM      9  C   UNL     1       1.395   4.743  20.403  0.00  0.00    +0.000 C 
ATOM     10  C   UNL     1       2.275   5.361  19.352  0.00  0.00    +0.000 A 
ATOM     11  N   UNL     1       2.880   4.440  18.543  0.00  0.00    +0.000 NA
ATOM     12  C   UNL     1       3.746   4.848  17.606  0.00  0.00    +0.000 A 
ATOM     13  C   UNL     1       4.348   3.917  16.776  0.00  0.00    +0.000 A 
ATOM     14  C   UNL     1       5.247   4.319  15.794  0.00  0.00    +0.000 A 
ATOM     15  F   UNL     1       5.826   3.398  15.013  0.00  0.00    +0.000 F 
ATOM     16  C   UNL     1       5.554   5.659  15.606  0.00  0.00    +0.000 A 
ATOM     17  C   UNL     1       4.971   6.609  16.439  0.00  0.00    +0.000 A 
ATOM     18  C   UNL     1       4.080   6.204  17.450  0.00  0.00    +0.000 A 
ATOM     19  C   UNL     1       3.501   7.128  18.327  0.00  0.00    +0.000 A 
ATOM     20  C   UNL     1       2.525   6.738  19.247  0.00  0.00    +0.000 A 
ENDBRANCH   1  20
BRANCH   6  21
ATOM     21  C   UNL     1       0.035  12.383  18.748  0.00  0.00    +0.000 A 
ATOM     22  N   UNL     1       1.296  12.751  18.575  0.00  0.00    +0.000 NA
ATOM     23  C   UNL     1       1.237  14.131  18.658  0.00  0.00    +0.000 A 
ATOM     24  C   UNL     1       2.228  15.119  18.562  0.00  0.00    +0.000 A 
ATOM     25  C   UNL     1       1.846  16.465  18.728  0.00  0.00    +0.000 A 
ATOM     26  C   UNL     1       0.512  16.819  18.967  0.00  0.00    +0.000 A 
ATOM     27  C   UNL     1      -0.489  15.847  19.044  0.00  0.00    +0.000 A 
ATOM     28  C   UNL     1      -0.066  14.532  18.886  0.00  0.00    +0.000 A 
ATOM     29  O   UNL     1      -0.845  13.422  18.931  0.00  0.00    +0.000 OA
ENDBRANCH   6  21
TORSDOF 2
ENDMDL
MODEL 3
REMARK VINA RESULT:      -8.6      0.761      1.186
REMARK  Name = 
REMARK  3 active torsions:
REMARK  status: ('A' for Active; 'I' for Inactive)
REMARK    1  A    between atoms: C_1  and  C_2
REMARK    2  A    between atoms: C_12  and  C_13
REMARK    3  A    between atoms: C_18  and  C_19
REMARK                            x       y       z     vdW  Elec       q    Type
REMARK                         _______ _______ _______ _____ _____    ______ ____
ROOT
ATOM      1  C   UNL     1       2.469   6.606  19.626  0.00  0.00    +0.000 C 
ATOM      2  O   UNL     1       2.370   6.042  20.716  0.00  0.00    +0.000 OA
ATOM      3  N   UNL     1       1.922   7.892  19.413  0.00  0.00    +0.000 N 
ATOM      4  C   UNL     1       1.396   8.599  20.584  0.00  0.00    +0.000 C 
ATOM      5  C   UNL     1       0.071   9.288  20.269  0.00  0.00    +0.000 C 
ATOM      6  C   UNL     1       0.188  10.251  19.082  0.00  0.00    +0.000 C 
ATOM      7  C   UNL     1       0.803   9.534  17.884  0.00  0.00    +0.000 C 
ATOM      8  C   UNL     1       2.054   8.727  18.213  0.00  0.00    +0.000 C 
ENDROOT
BRANCH   1  20
ATOM      9  C   UNL     1       1.428   3.981  18.480  0.00  0.00    +0.000 C 
ATOM     10  C   UNL     1       2.672   4.670  17.994  0.00  0.00    +0.000 A 
ATOM     11  N   UNL     1       3.317   3.985  17.001  0.00  0.00    +0.000 NA
ATOM     12  C   UNL     1       4.479   4.450  16.522  0.00  0.00    +0.000 A 
ATOM     13  C   UNL     1       5.125   3.765  15.507  0.00  0.00    +0.000 A 
ATOM     14  C   UNL     1       6.329   4.232  14.991  0.00  0.00    +0.000 A 
ATOM     15  F   UNL     1       6.942   3.544  14.019  0.00  0.00    +0.000 F 
ATOM     16  C   UNL     1       6.908   5.401  15.466  0.00  0.00    +0.000 A 
ATOM     17  C   UNL     1       6.282   6.096  16.495  0.00  0.00    +0.000 A 
ATOM     18  C   UNL     1       5.077   5.613  17.036  0.00  0.00    +0.000 A 
ATOM     19  C   UNL     1       4.436   6.268  18.094  0.00  0.00    +0.000 A 
ATOM     20  C   UNL     1       3.180   5.856  18.546  0.00  0.00    +0.000 A 
ENDBRANCH   1  20
BRANCH   6  21
ATOM     21  C   UNL     1       0.873  11.524  19.478  0.00  0.00    +0.000 A 
ATOM     22  N   UNL     1       1.914  12.163  18.966  0.00  0.00    +0.000 NA
ATOM     23  C   UNL     1       2.042  13.269  19.787  0.00  0.00    +0.000 A 
ATOM     24  C   UNL     1       2.951  14.338  19.786  0.00  0.00    +0.000 A 
ATOM     25  C   UNL     1       2.836  15.311  20.798  0.00  0.00    +0.000 A 
ATOM     26  C   UNL     1       1.836  15.231  21.776  0.00  0.00    +0.000 A 
ATOM     27  C   UNL     1       0.911  14.183  21.777  0.00  0.00    +0.000 A 
ATOM     28  C   UNL     1       1.068  13.240  20.768  0.00  0.00    +0.000 A 
ATOM     29  O   UNL     1       0.306  12.135  20.570  0.00  0.00    +0.000 OA
ENDBRANCH   6  21
TORSDOF 2
ENDMDL
MODEL 4
REMARK VINA RESULT:      -8.5      1.514      1.696
REMARK  Name = 
REMARK  3 active torsions:
REMARK  status: ('A' for Active; 'I' for Inactive)
REMARK    1  A    between atoms: C_1  and  C_2
REMARK    2  A    between atoms: C_12  and  C_13
REMARK    3  A    between atoms: C_18  and  C_19
REMARK                            x       y       z     vdW  Elec       q    Type
REMARK                         _______ _______ _______ _____ _____    ______ ____
ROOT
ATOM      1  C   UNL     1       1.861   7.730  20.137  0.00  0.00    +0.000 C 
ATOM      2  O   UNL     1       1.888   7.494  21.346  0.00  0.00    +0.000 OA
ATOM      3  N   UNL     1       1.212   8.879  19.629  0.00  0.00    +0.000 N 
ATOM      4  C   UNL     1       0.736   9.866  20.603  0.00  0.00    +0.000 C 
ATOM      5  C   UNL     1      -0.654  10.381  20.238  0.00  0.00    +0.000 C 
ATOM      6  C   UNL     1      -0.698  10.973  18.824  0.00  0.00    +0.000 C 
ATOM      7  C   UNL     1      -0.135   9.972  17.820  0.00  0.00    +0.000 C 
ATOM      8  C   UNL     1       1.191   9.345  18.237  0.00  0.00    +0.000 C 
ENDROOT
BRANCH   1  20
ATOM      9  C   UNL     1       1.410   4.726  20.383  0.00  0.00    +0.000 C 
ATOM     10  C   UNL     1       2.286   5.357  19.337  0.00  0.00    +0.000 A 
ATOM     11  N   UNL     1       2.894   4.446  18.518  0.00  0.00    +0.000 NA
ATOM     12  C   UNL     1       3.757   4.866  17.584  0.00  0.00    +0.000 A 
ATOM     13  C   UNL     1       4.362   3.946  16.745  0.00  0.00    +0.000 A 
ATOM     14  C   UNL     1       5.258   4.360  15.765  0.00  0.00    +0.000 A 
ATOM     15  F   UNL     1       5.840   3.449  14.975  0.00  0.00    +0.000 F 
ATOM     16  C   UNL     1       5.559   5.703  15.591  0.00  0.00    +0.000 A 
ATOM     17  C   UNL     1       4.974   6.643  16.433  0.00  0.00    +0.000 A 
ATOM     18  C   UNL     1       4.086   6.225  17.441  0.00  0.00    +0.000 A 
ATOM     19  C   UNL     1       3.505   7.139  18.327  0.00  0.00    +0.000 A 
ATOM     20  C   UNL     1       2.532   6.736  19.245  0.00  0.00    +0.000 A 
ENDBRANCH   1  20
BRANCH   6  21
ATOM     21  C   UNL     1      -0.071  12.333  18.782  0.00  0.00    +0.000 A 
ATOM     22  N   UNL     1      -0.562  13.540  19.022  0.00  0.00    +0.000 NA
ATOM     23  C   UNL     1       0.523  14.371  18.810  0.00  0.00    +0.000 A 
ATOM     24  C   UNL     1       0.669  15.764  18.895  0.00  0.00    +0.000 A 
ATOM     25  C   UNL     1       1.922  16.323  18.579  0.00  0.00    +0.000 A 
ATOM     26  C   UNL     1       3.006  15.519  18.203  0.00  0.00    +0.000 A 
ATOM     27  C   UNL     1       2.881  14.128  18.135  0.00  0.00    +0.000 A 
ATOM     28  C   UNL     1       1.625  13.620  18.444  0.00  0.00    +0.000 A 
ATOM     29  O   UNL     1       1.258  12.314  18.437  0.00  0.00    +0.000 OA
ENDBRANCH   6  21
TORSDOF 2
ENDMDL
MODEL 5
REMARK VINA RESULT:      -8.1      2.553      4.414
REMARK  Name = 
REMARK  3 active torsions:
REMARK  status: ('A' for Active; 'I' for Inactive)
REMARK    1  A    between atoms: C_1  and  C_2
REMARK    2  A    between atoms: C_12  and  C_13
REMARK    3  A    between atoms: C_18  and  C_19
REMARK                            x       y       z     vdW  Elec       q    Type
REMARK                         _______ _______ _______ _____ _____    ______ ____
ROOT
ATOM      1  C   UNL     1       5.587   4.698  18.281  0.00  0.00    +0.000 C 
ATOM      2  O   UNL     1       6.326   4.157  19.103  0.00  0.00    +0.000 OA
ATOM      3  N   UNL     1       4.304   5.168  18.645  0.00  0.00    +0.000 N 
ATOM      4  C   UNL     1       3.965   5.153  20.071  0.00  0.00    +0.000 C 
ATOM      5  C   UNL     1       2.539   4.658  20.298  0.00  0.00    +0.000 C 
ATOM      6  C   UNL     1       1.509   5.487  19.521  0.00  0.00    +0.000 C 
ATOM      7  C   UNL     1       1.901   5.564  18.049  0.00  0.00    +0.000 C 
ATOM      8  C   UNL     1       3.364   5.925  17.809  0.00  0.00    +0.000 C 
ENDROOT
BRANCH   1  20
ATOM      9  C   UNL     1       7.683   6.757  17.472  0.00  0.00    +0.000 C 
ATOM     10  C   UNL     1       7.105   5.738  16.530  0.00  0.00    +0.000 A 
ATOM     11  N   UNL     1       7.589   5.844  15.255  0.00  0.00    +0.000 NA
ATOM     12  C   UNL     1       7.109   5.043  14.295  0.00  0.00    +0.000 A 
ATOM     13  C   UNL     1       7.609   5.138  13.008  0.00  0.00    +0.000 A 
ATOM     14  C   UNL     1       7.128   4.313  11.997  0.00  0.00    +0.000 A 
ATOM     15  F   UNL     1       7.618   4.435  10.756  0.00  0.00    +0.000 F 
ATOM     16  C   UNL     1       6.149   3.363  12.251  0.00  0.00    +0.000 A 
ATOM     17  C   UNL     1       5.623   3.260  13.534  0.00  0.00    +0.000 A 
ATOM     18  C   UNL     1       6.089   4.110  14.553  0.00  0.00    +0.000 A 
ATOM     19  C   UNL     1       5.560   4.057  15.848  0.00  0.00    +0.000 A 
ATOM     20  C   UNL     1       6.109   4.815  16.885  0.00  0.00    +0.000 A 
ENDBRANCH   1  20
BRANCH   6  21
ATOM     21  C   UNL     1       1.264   6.809  20.181  0.00  0.00    +0.000 A 
ATOM     22  N   UNL     1       0.960   7.131  21.430  0.00  0.00    +0.000 NA
ATOM     23  C   UNL     1       0.868   8.510  21.388  0.00  0.00    +0.000 A 
ATOM     24  C   UNL     1       0.573   9.461  22.377  0.00  0.00    +0.000 A 
ATOM     25  C   UNL     1       0.522  10.818  22.002  0.00  0.00    +0.000 A 
ATOM     26  C   UNL     1       0.771  11.221  20.684  0.00  0.00    +0.000 A 
ATOM     27  C   UNL     1       1.087  10.286  19.693  0.00  0.00    +0.000 A 
ATOM     28  C   UNL     1       1.115   8.959  20.104  0.00  0.00    +0.000 A 
ATOM     29  O   UNL     1       1.384   7.879  19.327  0.00  0.00    +0.000 OA
ENDBRANCH   6  21
TORSDOF 2
ENDMDL
MODEL 6
REMARK VINA RESULT:      -8.0      2.739      4.507
REMARK  Name = 
REMARK  3 active torsions:
REMARK  status: ('A' for Active; 'I' for Inactive)
REMARK    1  A    between atoms: C_1  and  C_2
REMARK    2  A    between atoms: C_12  and  C_13
REMARK    3  A    between atoms: C_18  and  C_19
REMARK                            x       y       z     vdW  Elec       q    Type
REMARK                         _______ _______ _______ _____ _____    ______ ____
ROOT
ATOM      1  C   UNL     1       5.478   4.932  18.449  0.00  0.00    +0.000 C 
ATOM      2  O   UNL     1       6.202   4.444  19.318  0.00  0.00    +0.000 OA
ATOM      3  N   UNL     1       4.190   5.424  18.759  0.00  0.00    +0.000 N 
ATOM      4  C   UNL     1       3.824   5.499  20.177  0.00  0.00    +0.000 C 
ATOM      5  C   UNL     1       2.394   5.019  20.407  0.00  0.00    +0.000 C 
ATOM      6  C   UNL     1       1.379   5.796  19.561  0.00  0.00    +0.000 C 
ATOM      7  C   UNL     1       1.799   5.780  18.095  0.00  0.00    +0.000 C 
ATOM      8  C   UNL     1       3.265   6.125  17.860  0.00  0.00    +0.000 C 
ENDROOT
BRANCH   1  20
ATOM      9  C   UNL     1       7.733   6.800  17.604  0.00  0.00    +0.000 C 
ATOM     10  C   UNL     1       7.093   5.794  16.688  0.00  0.00    +0.000 A 
ATOM     11  N   UNL     1       7.601   5.819  15.418  0.00  0.00    +0.000 NA
ATOM     12  C   UNL     1       7.075   5.021  14.479  0.00  0.00    +0.000 A 
ATOM     13  C   UNL     1       7.598   5.034  13.197  0.00  0.00    +0.000 A 
ATOM     14  C   UNL     1       7.070   4.212  12.207  0.00  0.00    +0.000 A 
ATOM     15  F   UNL     1       7.585   4.253  10.971  0.00  0.00    +0.000 F 
ATOM     16  C   UNL     1       6.019   3.347  12.478  0.00  0.00    +0.000 A 
ATOM     17  C   UNL     1       5.470   3.329  13.755  0.00  0.00    +0.000 A 
ATOM     18  C   UNL     1       5.985   4.177  14.752  0.00  0.00    +0.000 A 
ATOM     19  C   UNL     1       5.436   4.209  16.040  0.00  0.00    +0.000 A 
ATOM     20  C   UNL     1       6.026   4.961  17.059  0.00  0.00    +0.000 A 
ENDBRANCH   1  20
BRANCH   6  21
ATOM     21  C   UNL     1       1.123   7.158  20.131  0.00  0.00    +0.000 A 
ATOM     22  N   UNL     1       1.543   8.361  19.770  0.00  0.00    +0.000 NA
ATOM     23  C   UNL     1       0.953   9.196  20.701  0.00  0.00    +0.000 A 
ATOM     24  C   UNL     1       0.999  10.588  20.876  0.00  0.00    +0.000 A 
ATOM     25  C   UNL     1       0.300  11.146  21.964  0.00  0.00    +0.000 A 
ATOM     26  C   UNL     1      -0.438  10.345  22.844  0.00  0.00    +0.000 A 
ATOM     27  C   UNL     1      -0.511   8.960  22.670  0.00  0.00    +0.000 A 
ATOM     28  C   UNL     1       0.203   8.450  21.591  0.00  0.00    +0.000 A 
ATOM     29  O   UNL     1       0.294   7.147  21.227  0.00  0.00    +0.000 OA
ENDBRANCH   6  21
TORSDOF 2
ENDMDL
MODEL 7
REMARK VINA RESULT:      -8.0      5.546     10.262
REMARK  Name = 
REMARK  3 active torsions:
REMARK  status: ('A' for Active; 'I' for Inactive)
REMARK    1  A    between atoms: C_1  and  C_2
REMARK    2  A    between atoms: C_12  and  C_13
REMARK    3  A    between atoms: C_18  and  C_19
REMARK                            x       y       z     vdW  Elec       q    Type
REMARK                         _______ _______ _______ _____ _____    ______ ____
ROOT
ATOM      1  C   UNL     1      -0.256  12.788  21.532  0.00  0.00    +0.000 C 
ATOM      2  O   UNL     1       0.553  13.633  21.917  0.00  0.00    +0.000 OA
ATOM      3  N   UNL     1       0.086  11.843  20.538  0.00  0.00    +0.000 N 
ATOM      4  C   UNL     1       1.490  11.789  20.119  0.00  0.00    +0.000 C 
ATOM      5  C   UNL     1       1.613  11.651  18.604  0.00  0.00    +0.000 C 
ATOM      6  C   UNL     1       0.858  10.427  18.073  0.00  0.00    +0.000 C 
ATOM      7  C   UNL     1      -0.584  10.444  18.569  0.00  0.00    +0.000 C 
ATOM      8  C   UNL     1      -0.729  10.719  20.062  0.00  0.00    +0.000 C 
ENDROOT
BRANCH   1  20
ATOM      9  C   UNL     1      -1.286  10.594  23.380  0.00  0.00    +0.000 C 
ATOM     10  C   UNL     1      -2.065  11.835  23.040  0.00  0.00    +0.000 A 
ATOM     11  N   UNL     1      -3.303  11.871  23.618  0.00  0.00    +0.000 NA
ATOM     12  C   UNL     1      -4.132  12.888  23.345  0.00  0.00    +0.000 A 
ATOM     13  C   UNL     1      -5.381  12.934  23.941  0.00  0.00    +0.000 A 
ATOM     14  C   UNL     1      -6.256  13.982  23.676  0.00  0.00    +0.000 A 
ATOM     15  F   UNL     1      -7.464  13.996  24.254  0.00  0.00    +0.000 F 
ATOM     16  C   UNL     1      -5.899  15.016  22.822  0.00  0.00    +0.000 A 
ATOM     17  C   UNL     1      -4.654  14.982  22.202  0.00  0.00    +0.000 A 
ATOM     18  C   UNL     1      -3.777  13.911  22.449  0.00  0.00    +0.000 A 
ATOM     19  C   UNL     1      -2.531  13.826  21.817  0.00  0.00    +0.000 A 
ATOM     20  C   UNL     1      -1.614  12.828  22.156  0.00  0.00    +0.000 A 
ENDBRANCH   1  20
BRANCH   6  21
ATOM     21  C   UNL     1       1.608   9.160  18.352  0.00  0.00    +0.000 A 
ATOM     22  N   UNL     1       1.550   8.302  19.360  0.00  0.00    +0.000 NA
ATOM     23  C   UNL     1       2.495   7.351  19.021  0.00  0.00    +0.000 A 
ATOM     24  C   UNL     1       2.923   6.181  19.668  0.00  0.00    +0.000 A 
ATOM     25  C   UNL     1       3.949   5.425  19.069  0.00  0.00    +0.000 A 
ATOM     26  C   UNL     1       4.524   5.813  17.852  0.00  0.00    +0.000 A 
ATOM     27  C   UNL     1       4.093   6.964  17.185  0.00  0.00    +0.000 A 
ATOM     28  C   UNL     1       3.087   7.685  17.817  0.00  0.00    +0.000 A 
ATOM     29  O   UNL     1       2.516   8.834  17.374  0.00  0.00    +0.000 OA
ENDBRANCH   6  21
TORSDOF 2
ENDMDL
MODEL 8
REMARK VINA RESULT:      -8.0      3.456      8.848
REMARK  Name = 
REMARK  3 active torsions:
REMARK  status: ('A' for Active; 'I' for Inactive)
REMARK    1  A    between atoms: C_1  and  C_2
REMARK    2  A    between atoms: C_12  and  C_13
REMARK    3  A    between atoms: C_18  and  C_19
REMARK                            x       y       z     vdW  Elec       q    Type
REMARK                         _______ _______ _______ _____ _____    ______ ____
ROOT
ATOM      1  C   UNL     1       2.286   5.588  18.218  0.00  0.00    +0.000 C 
ATOM      2  O   UNL     1       1.391   4.752  18.095  0.00  0.00    +0.000 OA
ATOM      3  N   UNL     1       3.591   5.344  17.730  0.00  0.00    +0.000 N 
ATOM      4  C   UNL     1       3.787   4.142  16.915  0.00  0.00    +0.000 C 
ATOM      5  C   UNL     1       5.079   3.422  17.290  0.00  0.00    +0.000 C 
ATOM      6  C   UNL     1       6.305   4.337  17.181  0.00  0.00    +0.000 C 
ATOM      7  C   UNL     1       6.071   5.621  17.971  0.00  0.00    +0.000 C 
ATOM      8  C   UNL     1       4.721   6.281  17.708  0.00  0.00    +0.000 C 
ENDROOT
BRANCH   1  20
ATOM      9  C   UNL     1       1.643   5.701  21.195  0.00  0.00    +0.000 C 
ATOM     10  C   UNL     1       1.671   6.908  20.300  0.00  0.00    +0.000 A 
ATOM     11  N   UNL     1       1.347   8.069  20.946  0.00  0.00    +0.000 NA
ATOM     12  C   UNL     1       1.266   9.213  20.254  0.00  0.00    +0.000 A 
ATOM     13  C   UNL     1       0.951  10.391  20.909  0.00  0.00    +0.000 A 
ATOM     14  C   UNL     1       0.866  11.590  20.211  0.00  0.00    +0.000 A 
ATOM     15  F   UNL     1       0.547  12.714  20.866  0.00  0.00    +0.000 F 
ATOM     16  C   UNL     1       1.108  11.645  18.845  0.00  0.00    +0.000 A 
ATOM     17  C   UNL     1       1.411  10.470  18.165  0.00  0.00    +0.000 A 
ATOM     18  C   UNL     1       1.473   9.251  18.864  0.00  0.00    +0.000 A 
ATOM     19  C   UNL     1       1.743   8.045  18.207  0.00  0.00    +0.000 A 
ATOM     20  C   UNL     1       1.925   6.858  18.920  0.00  0.00    +0.000 A 
ENDBRANCH   1  20
BRANCH   6  21
ATOM     21  C   UNL     1       6.710   4.538  15.753  0.00  0.00    +0.000 A 
ATOM     22  N   UNL     1       7.529   5.409  15.180  0.00  0.00    +0.000 NA
ATOM     23  C   UNL     1       7.468   5.067  13.841  0.00  0.00    +0.000 A 
ATOM     24  C   UNL     1       8.098   5.602  12.707  0.00  0.00    +0.000 A 
ATOM     25  C   UNL     1       7.798   5.041  11.451  0.00  0.00    +0.000 A 
ATOM     26  C   UNL     1       6.907   3.967  11.326  0.00  0.00    +0.000 A 
ATOM     27  C   UNL     1       6.288   3.410  12.450  0.00  0.00    +0.000 A 
ATOM     28  C   UNL     1       6.605   4.002  13.667  0.00  0.00    +0.000 A 
ATOM     29  O   UNL     1       6.126   3.647  14.886  0.00  0.00    +0.000 OA
ENDBRANCH   6  21
TORSDOF 2
ENDMDL
MODEL 9
REMARK VINA RESULT:      -7.9      3.801      8.996
REMARK  Name = 
REMARK  3 active torsions:
REMARK  status: ('A' for Active; 'I' for Inactive)
REMARK    1  A    between atoms: C_1  and  C_2
REMARK    2  A    between atoms: C_12  and  C_13
REMARK    3  A    between atoms: C_18  and  C_19
REMARK                            x       y       z     vdW  Elec       q    Type
REMARK                         _______ _______ _______ _____ _____    ______ ____
ROOT
ATOM      1  C   UNL     1       2.331   5.738  18.938  0.00  0.00    +0.000 C 
ATOM      2  O   UNL     1       1.540   4.800  19.030  0.00  0.00    +0.000 OA
ATOM      3  N   UNL     1       3.623   5.558  18.393  0.00  0.00    +0.000 N 
ATOM      4  C   UNL     1       3.916   4.260  17.778  0.00  0.00    +0.000 C 
ATOM      5  C   UNL     1       5.307   3.764  18.162  0.00  0.00    +0.000 C 
ATOM      6  C   UNL     1       6.402   4.776  17.801  0.00  0.00    +0.000 C 
ATOM      7  C   UNL     1       6.060   6.145  18.381  0.00  0.00    +0.000 C 
ATOM      8  C   UNL     1       4.627   6.594  18.122  0.00  0.00    +0.000 C 
ENDROOT
BRANCH   1  20
ATOM      9  C   UNL     1       2.459   8.282  17.264  0.00  0.00    +0.000 C 
ATOM     10  C   UNL     1       1.883   8.222  18.652  0.00  0.00    +0.000 A 
ATOM     11  N   UNL     1       1.448   9.435  19.110  0.00  0.00    +0.000 NA
ATOM     12  C   UNL     1       0.974   9.541  20.358  0.00  0.00    +0.000 A 
ATOM     13  C   UNL     1       0.519  10.765  20.818  0.00  0.00    +0.000 A 
ATOM     14  C   UNL     1       0.019  10.897  22.109  0.00  0.00    +0.000 A 
ATOM     15  F   UNL     1      -0.402  12.095  22.534  0.00  0.00    +0.000 F 
ATOM     16  C   UNL     1      -0.052   9.808  22.966  0.00  0.00    +0.000 A 
ATOM     17  C   UNL     1       0.413   8.572  22.529  0.00  0.00    +0.000 A 
ATOM     18  C   UNL     1       0.942   8.441  21.232  0.00  0.00    +0.000 A 
ATOM     19  C   UNL     1       1.450   7.221  20.770  0.00  0.00    +0.000 A 
ATOM     20  C   UNL     1       1.860   7.064  19.444  0.00  0.00    +0.000 A 
ENDBRANCH   1  20
BRANCH   6  21
ATOM     21  C   UNL     1       6.691   4.765  16.332  0.00  0.00    +0.000 A 
ATOM     22  N   UNL     1       7.511   5.493  15.587  0.00  0.00    +0.000 NA
ATOM     23  C   UNL     1       7.310   4.992  14.313  0.00  0.00    +0.000 A 
ATOM     24  C   UNL     1       7.871   5.332  13.073  0.00  0.00    +0.000 A 
ATOM     25  C   UNL     1       7.424   4.643  11.928  0.00  0.00    +0.000 A 
ATOM     26  C   UNL     1       6.457   3.633  12.016  0.00  0.00    +0.000 A 
ATOM     27  C   UNL     1       5.905   3.270  13.248  0.00  0.00    +0.000 A 
ATOM     28  C   UNL     1       6.366   3.982  14.349  0.00  0.00    +0.000 A 
ATOM     29  O   UNL     1       5.975   3.820  15.638  0.00  0.00    +0.000 OA
ENDBRANCH   6  21
TORSDOF 2
ENDMDL
