MODEL 1
REMARK VINA RESULT:      -8.7      0.000      0.000
REMARK  Name = 
REMARK  4 active torsions:
REMARK  status: ('A' for Active; 'I' for Inactive)
REMARK    1  A    between atoms: C_5  and  C_6
REMARK    2  A    between atoms: C_10  and  N_11
REMARK    3  A    between atoms: N_11  and  S_12
REMARK    4  A    between atoms: S_12  and  C_15
REMARK                            x       y       z     vdW  Elec       q    Type
REMARK                         _______ _______ _______ _____ _____    ______ ____
ROOT
ATOM      1  C   UNL     1       6.154   4.597  16.881  0.00  0.00    +0.000 A 
ATOM      2  C   UNL     1       6.764   5.450  17.812  0.00  0.00    +0.000 A 
ATOM      3  C   UNL     1       6.378   5.425  19.149  0.00  0.00    +0.000 A 
ATOM      4  C   UNL     1       5.357   4.574  19.563  0.00  0.00    +0.000 A 
ATOM      5  C   UNL     1       4.734   3.732  18.641  0.00  0.00    +0.000 A 
ATOM      6  C   UNL     1       5.134   3.729  17.303  0.00  0.00    +0.000 A 
ENDROOT
BRANCH   1  11
ATOM      7  O   UNL     1       7.630   4.652  11.608  0.00  0.00    +0.000 OA
ATOM      8  C   UNL     1       7.251   4.672  12.772  0.00  0.00    +0.000 A 
ATOM      9  C   UNL     1       6.133   3.818  13.213  0.00  0.00    +0.000 A 
ATOM     10  C   UNL     1       5.748   3.825  14.489  0.00  0.00    +0.000 A 
ATOM     11  C   UNL     1       6.507   4.692  15.431  0.00  0.00    +0.000 A 
ATOM     12  N   UNL     1       7.466   5.485  15.061  0.00  0.00    +0.000 NA
ATOM     13  N   UNL     1       7.804   5.473  13.737  0.00  0.00    +0.000 N 
ATOM     14  H   UNL     1       8.583   6.062  13.462  0.00  0.00    +0.000 HD
ENDBRANCH   1  11
BRANCH   5  15
ATOM     15  N   UNL     1       3.659   2.910  19.061  0.00  0.00    +0.000 N 
ATOM     16  H   UNL     1       3.820   1.914  19.200  0.00  0.00    +0.000 HD
BRANCH  15  17
ATOM     17  S   UNL     1       2.074   3.326  18.693  0.00  0.00    +0.000 S 
ATOM     18  O   UNL     1       1.936   3.190  17.258  0.00  0.00    +0.000 OA
ATOM     19  O   UNL     1       1.180   2.647  19.605  0.00  0.00    +0.000 OA
BRANCH  17  20
ATOM     20  C   UNL     1       2.000   5.067  19.056  0.00  0.00    +0.000 A 
ATOM     21  C   UNL     1       1.781   5.497  20.374  0.00  0.00    +0.000 A 
ATOM     22  C   UNL     1       1.814   6.862  20.671  0.00  0.00    +0.000 A 
ATOM     23  C   UNL     1       2.081   7.786  19.661  0.00  0.00    +0.000 A 
ATOM     24  C   UNL     1       2.316   7.341  18.362  0.00  0.00    +0.000 A 
ATOM     25  F   UNL     1       2.605   8.231  17.405  0.00  0.00    +0.000 F 
ATOM     26  C   UNL     1       2.275   5.989  18.045  0.00  0.00    +0.000 A 
ENDBRANCH  17  20
ENDBRANCH  15  17
ENDBRANCH   5  15
TORSDOF 4
ENDMDL
MODEL 2
REMARK VINA RESULT:      -8.6      0.915      1.345
REMARK  Name = 
REMARK  4 active torsions:
REMARK  status: ('A' for Active; 'I' for Inactive)
REMARK    1  A    between atoms: C_5  and  C_6
REMARK    2  A    between atoms: C_10  and  N_11
REMARK    3  A    between atoms: N_11  and  S_12
REMARK    4  A    between atoms: S_12  and  C_15
REMARK                            x       y       z     vdW  Elec       q    Type
REMARK                         _______ _______ _______ _____ _____    ______ ____
ROOT
ATOM      1  C   UNL     1       6.137   4.637  16.972  0.00  0.00    +0.000 A 
ATOM      2  C   UNL     1       6.763   5.480  17.903  0.00  0.00    +0.000 A 
ATOM      3  C   UNL     1       6.379   5.461  19.240  0.00  0.00    +0.000 A 
ATOM      4  C   UNL     1       5.342   4.628  19.655  0.00  0.00    +0.000 A 
ATOM      5  C   UNL     1       4.703   3.798  18.734  0.00  0.00    +0.000 A 
ATOM      6  C   UNL     1       5.102   3.789  17.396  0.00  0.00    +0.000 A 
ENDROOT
BRANCH   1  11
ATOM      7  O   UNL     1       7.610   4.668  11.698  0.00  0.00    +0.000 OA
ATOM      8  C   UNL     1       7.231   4.694  12.862  0.00  0.00    +0.000 A 
ATOM      9  C   UNL     1       6.103   3.856  13.305  0.00  0.00    +0.000 A 
ATOM     10  C   UNL     1       5.719   3.869  14.581  0.00  0.00    +0.000 A 
ATOM     11  C   UNL     1       6.490   4.727  15.522  0.00  0.00    +0.000 A 
ATOM     12  N   UNL     1       7.459   5.507  15.150  0.00  0.00    +0.000 NA
ATOM     13  N   UNL     1       7.796   5.489  13.826  0.00  0.00    +0.000 N 
ATOM     14  H   UNL     1       8.582   6.067  13.549  0.00  0.00    +0.000 HD
ENDBRANCH   1  11
BRANCH   5  15
ATOM     15  N   UNL     1       3.614   2.996  19.155  0.00  0.00    +0.000 N 
ATOM     16  H   UNL     1       3.737   1.987  19.224  0.00  0.00    +0.000 HD
BRANCH  15  17
ATOM     17  S   UNL     1       2.033   3.499  18.891  0.00  0.00    +0.000 S 
ATOM     18  O   UNL     1       1.744   3.228  17.498  0.00  0.00    +0.000 OA
ATOM     19  O   UNL     1       1.189   2.991  19.950  0.00  0.00    +0.000 OA
BRANCH  17  20
ATOM     20  C   UNL     1       2.118   5.268  19.067  0.00  0.00    +0.000 A 
ATOM     21  C   UNL     1       2.361   6.070  17.941  0.00  0.00    +0.000 A 
ATOM     22  C   UNL     1       2.336   7.462  18.065  0.00  0.00    +0.000 A 
ATOM     23  C   UNL     1       2.053   8.044  19.300  0.00  0.00    +0.000 A 
ATOM     24  C   UNL     1       1.796   7.233  20.403  0.00  0.00    +0.000 A 
ATOM     25  F   UNL     1       1.491   7.799  21.577  0.00  0.00    +0.000 F 
ATOM     26  C   UNL     1       1.827   5.848  20.302  0.00  0.00    +0.000 A 
ENDBRANCH  17  20
ENDBRANCH  15  17
ENDBRANCH   5  15
TORSDOF 4
ENDMDL
MODEL 3
REMARK VINA RESULT:      -8.3      3.518      6.493
REMARK  Name = 
REMARK  4 active torsions:
REMARK  status: ('A' for Active; 'I' for Inactive)
REMARK    1  A    between atoms: C_5  and  C_6
REMARK    2  A    between atoms: C_10  and  N_11
REMARK    3  A    between atoms: N_11  and  S_12
REMARK    4  A    between atoms: S_12  and  C_15
REMARK                            x       y       z     vdW  Elec       q    Type
REMARK                         _______ _______ _______ _____ _____    ______ ____
ROOT
ATOM      1  C   UNL     1       2.937   5.762  18.807  0.00  0.00    +0.000 A 
ATOM      2  C   UNL     1       2.248   4.745  18.128  0.00  0.00    +0.000 A 
ATOM      3  C   UNL     1       2.881   3.541  17.832  0.00  0.00    +0.000 A 
ATOM      4  C   UNL     1       4.217   3.353  18.179  0.00  0.00    +0.000 A 
ATOM      5  C   UNL     1       4.915   4.364  18.840  0.00  0.00    +0.000 A 
ATOM      6  C   UNL     1       4.280   5.564  19.167  0.00  0.00    +0.000 A 
ENDROOT
BRANCH   1  11
ATOM      7  O   UNL     1       0.860  10.749  19.699  0.00  0.00    +0.000 OA
ATOM      8  C   UNL     1       1.274   9.620  19.468  0.00  0.00    +0.000 A 
ATOM      9  C   UNL     1       1.772   9.261  18.129  0.00  0.00    +0.000 A 
ATOM     10  C   UNL     1       2.248   8.038  17.897  0.00  0.00    +0.000 A 
ATOM     11  C   UNL     1       2.283   7.086  19.040  0.00  0.00    +0.000 A 
ATOM     12  N   UNL     1       1.811   7.362  20.218  0.00  0.00    +0.000 NA
ATOM     13  N   UNL     1       1.299   8.616  20.402  0.00  0.00    +0.000 N 
ATOM     14  H   UNL     1       0.972   8.841  21.335  0.00  0.00    +0.000 HD
ENDBRANCH   1  11
BRANCH   5  15
ATOM     15  N   UNL     1       6.288   4.185  19.139  0.00  0.00    +0.000 N 
ATOM     16  H   UNL     1       6.566   3.989  20.099  0.00  0.00    +0.000 HD
BRANCH  15  17
ATOM     17  S   UNL     1       7.468   4.919  18.196  0.00  0.00    +0.000 S 
ATOM     18  O   UNL     1       7.619   6.267  18.704  0.00  0.00    +0.000 OA
ATOM     19  O   UNL     1       8.601   4.028  18.072  0.00  0.00    +0.000 OA
BRANCH  17  20
ATOM     20  C   UNL     1       6.705   5.053  16.593  0.00  0.00    +0.000 A 
ATOM     21  C   UNL     1       6.762   3.972  15.701  0.00  0.00    +0.000 A 
ATOM     22  C   UNL     1       6.085   4.046  14.481  0.00  0.00    +0.000 A 
ATOM     23  C   UNL     1       5.344   5.185  14.166  0.00  0.00    +0.000 A 
ATOM     24  C   UNL     1       5.283   6.241  15.072  0.00  0.00    +0.000 A 
ATOM     25  F   UNL     1       4.543   7.317  14.777  0.00  0.00    +0.000 F 
ATOM     26  C   UNL     1       5.959   6.191  16.284  0.00  0.00    +0.000 A 
ENDBRANCH  17  20
ENDBRANCH  15  17
ENDBRANCH   5  15
TORSDOF 4
ENDMDL
MODEL 4
REMARK VINA RESULT:      -8.3      4.135      8.047
REMARK  Name = 
REMARK  4 active torsions:
REMARK  status: ('A' for Active; 'I' for Inactive)
REMARK    1  A    between atoms: C_5  and  C_6
REMARK    2  A    between atoms: C_10  and  N_11
REMARK    3  A    between atoms: N_11  and  S_12
REMARK    4  A    between atoms: S_12  and  C_15
REMARK                            x       y       z     vdW  Elec       q    Type
REMARK                         _______ _______ _______ _____ _____    ______ ____
ROOT
ATOM      1  C   UNL     1       1.311   8.721  19.876  0.00  0.00    +0.000 A 
ATOM      2  C   UNL     1       1.547   9.188  18.574  0.00  0.00    +0.000 A 
ATOM      3  C   UNL     1       2.358   8.467  17.703  0.00  0.00    +0.000 A 
ATOM      4  C   UNL     1       2.969   7.291  18.133  0.00  0.00    +0.000 A 
ATOM      5  C   UNL     1       2.753   6.827  19.431  0.00  0.00    +0.000 A 
ATOM      6  C   UNL     1       1.918   7.529  20.303  0.00  0.00    +0.000 A 
ENDROOT
BRANCH   1  11
ATOM      7  O   UNL     1      -1.853  11.497  23.378  0.00  0.00    +0.000 OA
ATOM      8  C   UNL     1      -1.097  10.903  22.620  0.00  0.00    +0.000 A 
ATOM      9  C   UNL     1      -0.281   9.775  23.103  0.00  0.00    +0.000 A 
ATOM     10  C   UNL     1       0.516   9.117  22.262  0.00  0.00    +0.000 A 
ATOM     11  C   UNL     1       0.516   9.545  20.837  0.00  0.00    +0.000 A 
ATOM     12  N   UNL     1      -0.160  10.562  20.394  0.00  0.00    +0.000 NA
ATOM     13  N   UNL     1      -0.936  11.231  21.298  0.00  0.00    +0.000 N 
ATOM     14  H   UNL     1      -1.495  11.997  20.938  0.00  0.00    +0.000 HD
ENDBRANCH   1  11
BRANCH   5  15
ATOM     15  N   UNL     1       3.423   5.661  19.876  0.00  0.00    +0.000 N 
ATOM     16  H   UNL     1       4.225   5.755  20.497  0.00  0.00    +0.000 HD
BRANCH  15  17
ATOM     17  S   UNL     1       3.407   4.262  18.947  0.00  0.00    +0.000 S 
ATOM     18  O   UNL     1       3.643   3.161  19.859  0.00  0.00    +0.000 OA
ATOM     19  O   UNL     1       2.255   4.283  18.073  0.00  0.00    +0.000 OA
BRANCH  17  20
ATOM     20  C   UNL     1       4.862   4.413  17.932  0.00  0.00    +0.000 A 
ATOM     21  C   UNL     1       6.063   4.868  18.498  0.00  0.00    +0.000 A 
ATOM     22  C   UNL     1       7.225   4.899  17.722  0.00  0.00    +0.000 A 
ATOM     23  C   UNL     1       7.187   4.461  16.399  0.00  0.00    +0.000 A 
ATOM     24  C   UNL     1       5.991   3.994  15.859  0.00  0.00    +0.000 A 
ATOM     25  F   UNL     1       5.971   3.544  14.599  0.00  0.00    +0.000 F 
ATOM     26  C   UNL     1       4.824   3.967  16.611  0.00  0.00    +0.000 A 
ENDBRANCH  17  20
ENDBRANCH  15  17
ENDBRANCH   5  15
TORSDOF 4
ENDMDL
MODEL 5
REMARK VINA RESULT:      -8.2      3.725      6.611
REMARK  Name = 
REMARK  4 active torsions:
REMARK  status: ('A' for Active; 'I' for Inactive)
REMARK    1  A    between atoms: C_5  and  C_6
REMARK    2  A    between atoms: C_10  and  N_11
REMARK    3  A    between atoms: N_11  and  S_12
REMARK    4  A    between atoms: S_12  and  C_15
REMARK                            x       y       z     vdW  Elec       q    Type
REMARK                         _______ _______ _______ _____ _____    ______ ____
ROOT
ATOM      1  C   UNL     1       2.912   5.641  18.988  0.00  0.00    +0.000 A 
ATOM      2  C   UNL     1       2.204   4.592  18.384  0.00  0.00    +0.000 A 
ATOM      3  C   UNL     1       2.840   3.389  18.094  0.00  0.00    +0.000 A 
ATOM      4  C   UNL     1       4.195   3.233  18.370  0.00  0.00    +0.000 A 
ATOM      5  C   UNL     1       4.912   4.276  18.957  0.00  0.00    +0.000 A 
ATOM      6  C   UNL     1       4.276   5.477  19.279  0.00  0.00    +0.000 A 
ENDROOT
BRANCH   1  11
ATOM      7  O   UNL     1       0.804  10.622  19.846  0.00  0.00    +0.000 OA
ATOM      8  C   UNL     1       1.225   9.493  19.624  0.00  0.00    +0.000 A 
ATOM      9  C   UNL     1       1.709   9.122  18.283  0.00  0.00    +0.000 A 
ATOM     10  C   UNL     1       2.193   7.900  18.060  0.00  0.00    +0.000 A 
ATOM     11  C   UNL     1       2.250   6.963  19.214  0.00  0.00    +0.000 A 
ATOM     12  N   UNL     1       1.791   7.250  20.394  0.00  0.00    +0.000 NA
ATOM     13  N   UNL     1       1.270   8.502  20.569  0.00  0.00    +0.000 N 
ATOM     14  H   UNL     1       0.953   8.735  21.504  0.00  0.00    +0.000 HD
ENDBRANCH   1  11
BRANCH   5  15
ATOM     15  N   UNL     1       6.303   4.128  19.184  0.00  0.00    +0.000 N 
ATOM     16  H   UNL     1       6.634   3.925  20.125  0.00  0.00    +0.000 HD
BRANCH  15  17
ATOM     17  S   UNL     1       7.415   4.906  18.195  0.00  0.00    +0.000 S 
ATOM     18  O   UNL     1       7.596   6.233  18.746  0.00  0.00    +0.000 OA
ATOM     19  O   UNL     1       8.540   4.026  17.959  0.00  0.00    +0.000 OA
BRANCH  17  20
ATOM     20  C   UNL     1       6.546   5.101  16.654  0.00  0.00    +0.000 A 
ATOM     21  C   UNL     1       5.828   6.280  16.402  0.00  0.00    +0.000 A 
ATOM     22  C   UNL     1       5.224   6.469  15.157  0.00  0.00    +0.000 A 
ATOM     23  C   UNL     1       5.352   5.495  14.167  0.00  0.00    +0.000 A 
ATOM     24  C   UNL     1       6.085   4.339  14.427  0.00  0.00    +0.000 A 
ATOM     25  F   UNL     1       6.232   3.424  13.462  0.00  0.00    +0.000 F 
ATOM     26  C   UNL     1       6.683   4.128  15.663  0.00  0.00    +0.000 A 
ENDBRANCH  17  20
ENDBRANCH  15  17
ENDBRANCH   5  15
TORSDOF 4
ENDMDL
MODEL 6
REMARK VINA RESULT:      -8.1      3.455      6.440
REMARK  Name = 
REMARK  4 active torsions:
REMARK  status: ('A' for Active; 'I' for Inactive)
REMARK    1  A    between atoms: C_5  and  C_6
REMARK    2  A    between atoms: C_10  and  N_11
REMARK    3  A    between atoms: N_11  and  S_12
REMARK    4  A    between atoms: S_12  and  C_15
REMARK                            x       y       z     vdW  Elec       q    Type
REMARK                         _______ _______ _______ _____ _____    ______ ____
ROOT
ATOM      1  C   UNL     1       2.938   6.245  18.850  0.00  0.00    +0.000 A 
ATOM      2  C   UNL     1       2.930   5.334  19.916  0.00  0.00    +0.000 A 
ATOM      3  C   UNL     1       3.511   4.077  19.774  0.00  0.00    +0.000 A 
ATOM      4  C   UNL     1       4.072   3.704  18.556  0.00  0.00    +0.000 A 
ATOM      5  C   UNL     1       4.071   4.597  17.484  0.00  0.00    +0.000 A 
ATOM      6  C   UNL     1       3.517   5.871  17.626  0.00  0.00    +0.000 A 
ENDROOT
BRANCH   1  11
ATOM      7  O   UNL     1       0.669  11.204  19.346  0.00  0.00    +0.000 OA
ATOM      8  C   UNL     1       1.127  10.077  19.204  0.00  0.00    +0.000 A 
ATOM      9  C   UNL     1       1.656   9.639  17.901  0.00  0.00    +0.000 A 
ATOM     10  C   UNL     1       2.179   8.420  17.766  0.00  0.00    +0.000 A 
ATOM     11  C   UNL     1       2.233   7.557  18.977  0.00  0.00    +0.000 A 
ATOM     12  N   UNL     1       1.735   7.902  20.125  0.00  0.00    +0.000 NA
ATOM     13  N   UNL     1       1.175   9.146  20.210  0.00  0.00    +0.000 N 
ATOM     14  H   UNL     1       0.827   9.427  21.121  0.00  0.00    +0.000 HD
ENDBRANCH   1  11
BRANCH   5  15
ATOM     15  N   UNL     1       4.594   4.187  16.233  0.00  0.00    +0.000 N 
ATOM     16  H   UNL     1       4.516   3.210  15.957  0.00  0.00    +0.000 HD
BRANCH  15  17
ATOM     17  S   UNL     1       5.872   5.020  15.530  0.00  0.00    +0.000 S 
ATOM     18  O   UNL     1       6.738   4.021  14.939  0.00  0.00    +0.000 OA
ATOM     19  O   UNL     1       5.352   6.123  14.753  0.00  0.00    +0.000 OA
BRANCH  17  20
ATOM     20  C   UNL     1       6.747   5.703  16.922  0.00  0.00    +0.000 A 
ATOM     21  C   UNL     1       7.294   4.846  17.890  0.00  0.00    +0.000 A 
ATOM     22  C   UNL     1       8.058   5.379  18.932  0.00  0.00    +0.000 A 
ATOM     23  C   UNL     1       8.287   6.753  18.993  0.00  0.00    +0.000 A 
ATOM     24  C   UNL     1       7.753   7.587  18.013  0.00  0.00    +0.000 A 
ATOM     25  F   UNL     1       8.005   8.900  18.059  0.00  0.00    +0.000 F 
ATOM     26  C   UNL     1       6.981   7.077  16.977  0.00  0.00    +0.000 A 
ENDBRANCH  17  20
ENDBRANCH  15  17
ENDBRANCH   5  15
TORSDOF 4
ENDMDL
MODEL 7
REMARK VINA RESULT:      -8.1      3.872      7.424
REMARK  Name = 
REMARK  4 active torsions:
REMARK  status: ('A' for Active; 'I' for Inactive)
REMARK    1  A    between atoms: C_5  and  C_6
REMARK    2  A    between atoms: C_10  and  N_11
REMARK    3  A    between atoms: N_11  and  S_12
REMARK    4  A    between atoms: S_12  and  C_15
REMARK                            x       y       z     vdW  Elec       q    Type
REMARK                         _______ _______ _______ _____ _____    ______ ____
ROOT
ATOM      1  C   UNL     1       2.827   6.564  19.014  0.00  0.00    +0.000 A 
ATOM      2  C   UNL     1       2.749   5.575  20.006  0.00  0.00    +0.000 A 
ATOM      3  C   UNL     1       3.367   4.342  19.820  0.00  0.00    +0.000 A 
ATOM      4  C   UNL     1       4.038   4.071  18.630  0.00  0.00    +0.000 A 
ATOM      5  C   UNL     1       4.107   5.043  17.632  0.00  0.00    +0.000 A 
ATOM      6  C   UNL     1       3.515   6.294  17.821  0.00  0.00    +0.000 A 
ENDROOT
BRANCH   1  11
ATOM      7  O   UNL     1       0.418  11.441  19.645  0.00  0.00    +0.000 OA
ATOM      8  C   UNL     1       0.907  10.332  19.474  0.00  0.00    +0.000 A 
ATOM      9  C   UNL     1       1.435   9.939  18.155  0.00  0.00    +0.000 A 
ATOM     10  C   UNL     1       1.993   8.740  17.987  0.00  0.00    +0.000 A 
ATOM     11  C   UNL     1       2.085   7.852  19.178  0.00  0.00    +0.000 A 
ATOM     12  N   UNL     1       1.589   8.156  20.339  0.00  0.00    +0.000 NA
ATOM     13  N   UNL     1       0.993   9.381  20.457  0.00  0.00    +0.000 N 
ATOM     14  H   UNL     1       0.647   9.631  21.377  0.00  0.00    +0.000 HD
ENDBRANCH   1  11
BRANCH   5  15
ATOM     15  N   UNL     1       4.744   4.739  16.403  0.00  0.00    +0.000 N 
ATOM     16  H   UNL     1       4.429   3.932  15.867  0.00  0.00    +0.000 HD
BRANCH  15  17
ATOM     17  S   UNL     1       6.340   5.187  16.136  0.00  0.00    +0.000 S 
ATOM     18  O   UNL     1       6.388   6.629  16.263  0.00  0.00    +0.000 OA
ATOM     19  O   UNL     1       7.211   4.331  16.912  0.00  0.00    +0.000 OA
BRANCH  17  20
ATOM     20  C   UNL     1       6.602   4.810  14.416  0.00  0.00    +0.000 A 
ATOM     21  C   UNL     1       7.622   5.463  13.707  0.00  0.00    +0.000 A 
ATOM     22  C   UNL     1       7.885   5.101  12.383  0.00  0.00    +0.000 A 
ATOM     23  C   UNL     1       7.146   4.082  11.783  0.00  0.00    +0.000 A 
ATOM     24  C   UNL     1       6.150   3.431  12.508  0.00  0.00    +0.000 A 
ATOM     25  F   UNL     1       5.469   2.431  11.936  0.00  0.00    +0.000 F 
ATOM     26  C   UNL     1       5.867   3.785  13.820  0.00  0.00    +0.000 A 
ENDBRANCH  17  20
ENDBRANCH  15  17
ENDBRANCH   5  15
TORSDOF 4
ENDMDL
MODEL 8
REMARK VINA RESULT:      -8.1      3.870      7.845
REMARK  Name = 
REMARK  4 active torsions:
REMARK  status: ('A' for Active; 'I' for Inactive)
REMARK    1  A    between atoms: C_5  and  C_6
REMARK    2  A    between atoms: C_10  and  N_11
REMARK    3  A    between atoms: N_11  and  S_12
REMARK    4  A    between atoms: S_12  and  C_15
REMARK                            x       y       z     vdW  Elec       q    Type
REMARK                         _______ _______ _______ _____ _____    ______ ____
ROOT
ATOM      1  C   UNL     1       1.544   8.365  19.854  0.00  0.00    +0.000 A 
ATOM      2  C   UNL     1       1.773   8.838  18.554  0.00  0.00    +0.000 A 
ATOM      3  C   UNL     1       2.589   8.128  17.679  0.00  0.00    +0.000 A 
ATOM      4  C   UNL     1       3.212   6.957  18.104  0.00  0.00    +0.000 A 
ATOM      5  C   UNL     1       3.003   6.486  19.400  0.00  0.00    +0.000 A 
ATOM      6  C   UNL     1       2.163   7.177  20.276  0.00  0.00    +0.000 A 
ENDROOT
BRANCH   1  11
ATOM      7  O   UNL     1      -1.146  11.590  23.368  0.00  0.00    +0.000 OA
ATOM      8  C   UNL     1      -0.598  10.843  22.567  0.00  0.00    +0.000 A 
ATOM      9  C   UNL     1      -0.715  11.078  21.118  0.00  0.00    +0.000 A 
ATOM     10  C   UNL     1      -0.089  10.276  20.256  0.00  0.00    +0.000 A 
ATOM     11  C   UNL     1       0.742   9.178  20.820  0.00  0.00    +0.000 A 
ATOM     12  N   UNL     1       0.828   8.923  22.090  0.00  0.00    +0.000 NA
ATOM     13  N   UNL     1       0.140   9.748  22.936  0.00  0.00    +0.000 N 
ATOM     14  H   UNL     1       0.246   9.570  23.928  0.00  0.00    +0.000 HD
ENDBRANCH   1  11
BRANCH   5  15
ATOM     15  N   UNL     1       3.685   5.325  19.840  0.00  0.00    +0.000 N 
ATOM     16  H   UNL     1       4.477   5.423  20.474  0.00  0.00    +0.000 HD
BRANCH  15  17
ATOM     17  S   UNL     1       3.705   3.938  18.894  0.00  0.00    +0.000 S 
ATOM     18  O   UNL     1       4.182   2.867  19.745  0.00  0.00    +0.000 OA
ATOM     19  O   UNL     1       2.453   3.832  18.177  0.00  0.00    +0.000 OA
BRANCH  17  20
ATOM     20  C   UNL     1       4.987   4.259  17.701  0.00  0.00    +0.000 A 
ATOM     21  C   UNL     1       6.276   4.599  18.138  0.00  0.00    +0.000 A 
ATOM     22  C   UNL     1       7.303   4.761  17.203  0.00  0.00    +0.000 A 
ATOM     23  C   UNL     1       7.043   4.567  15.847  0.00  0.00    +0.000 A 
ATOM     24  C   UNL     1       5.762   4.211  15.433  0.00  0.00    +0.000 A 
ATOM     25  F   UNL     1       5.529   3.993  14.133  0.00  0.00    +0.000 F 
ATOM     26  C   UNL     1       4.727   4.057  16.345  0.00  0.00    +0.000 A 
ENDBRANCH  17  20
ENDBRANCH  15  17
ENDBRANCH   5  15
TORSDOF 4
ENDMDL
MODEL 9
REMARK VINA RESULT:      -8.0      3.635      6.511
REMARK  Name = 
REMARK  4 active torsions:
REMARK  status: ('A' for Active; 'I' for Inactive)
REMARK    1  A    between atoms: C_5  and  C_6
REMARK    2  A    between atoms: C_10  and  N_11
REMARK    3  A    between atoms: N_11  and  S_12
REMARK    4  A    between atoms: S_12  and  C_15
REMARK                            x       y       z     vdW  Elec       q    Type
REMARK                         _______ _______ _______ _____ _____    ______ ____
ROOT
ATOM      1  C   UNL     1       2.780   6.712  18.753  0.00  0.00    +0.000 A 
ATOM      2  C   UNL     1       2.626   5.891  19.880  0.00  0.00    +0.000 A 
ATOM      3  C   UNL     1       3.135   4.596  19.884  0.00  0.00    +0.000 A 
ATOM      4  C   UNL     1       3.772   4.096  18.751  0.00  0.00    +0.000 A 
ATOM      5  C   UNL     1       3.917   4.899  17.619  0.00  0.00    +0.000 A 
ATOM      6  C   UNL     1       3.435   6.210  17.617  0.00  0.00    +0.000 A 
ENDROOT
BRANCH   1  11
ATOM      7  O   UNL     1       0.172  11.524  18.577  0.00  0.00    +0.000 OA
ATOM      8  C   UNL     1       0.799  10.474  18.651  0.00  0.00    +0.000 A 
ATOM      9  C   UNL     1       0.784   9.677  19.890  0.00  0.00    +0.000 A 
ATOM     10  C   UNL     1       1.445   8.520  19.950  0.00  0.00    +0.000 A 
ATOM     11  C   UNL     1       2.152   8.069  18.720  0.00  0.00    +0.000 A 
ATOM     12  N   UNL     1       2.216   8.772  17.631  0.00  0.00    +0.000 NA
ATOM     13  N   UNL     1       1.555   9.969  17.626  0.00  0.00    +0.000 N 
ATOM     14  H   UNL     1       1.572  10.493  16.758  0.00  0.00    +0.000 HD
ENDBRANCH   1  11
BRANCH   5  15
ATOM     15  N   UNL     1       4.517   4.363  16.454  0.00  0.00    +0.000 N 
ATOM     16  H   UNL     1       4.511   3.354  16.311  0.00  0.00    +0.000 HD
BRANCH  15  17
ATOM     17  S   UNL     1       5.769   5.178  15.687  0.00  0.00    +0.000 S 
ATOM     18  O   UNL     1       6.598   4.166  15.066  0.00  0.00    +0.000 OA
ATOM     19  O   UNL     1       5.225   6.280  14.926  0.00  0.00    +0.000 OA
BRANCH  17  20
ATOM     20  C   UNL     1       6.713   5.862  17.033  0.00  0.00    +0.000 A 
ATOM     21  C   UNL     1       7.201   5.019  18.043  0.00  0.00    +0.000 A 
ATOM     22  C   UNL     1       8.017   5.544  19.048  0.00  0.00    +0.000 A 
ATOM     23  C   UNL     1       8.357   6.896  19.031  0.00  0.00    +0.000 A 
ATOM     24  C   UNL     1       7.881   7.715  18.010  0.00  0.00    +0.000 A 
ATOM     25  F   UNL     1       8.238   9.004  17.981  0.00  0.00    +0.000 F 
ATOM     26  C   UNL     1       7.058   7.214  17.009  0.00  0.00    +0.000 A 
ENDBRANCH  17  20
ENDBRANCH  15  17
ENDBRANCH   5  15
TORSDOF 4
ENDMDL
