MODEL 1
REMARK VINA RESULT:      -9.2      0.000      0.000
REMARK  Name = 
REMARK  7 active torsions:
REMARK  status: ('A' for Active; 'I' for Inactive)
REMARK    1  A    between atoms: C_5  and  C_7
REMARK    2  A    between atoms: C_10  and  C_11
REMARK    3  A    between atoms: C_11  and  N_12
REMARK    4  A    between atoms: N_12  and  C_13
REMARK    5  A    between atoms: N_12  and  S_20
REMARK    6  A    between atoms: C_13  and  C_14
REMARK    7  A    between atoms: S_20  and  C_23
REMARK                            x       y       z     vdW  Elec       q    Type
REMARK                         _______ _______ _______ _____ _____    ______ ____
ROOT
ATOM      1  N   UNL     1      -0.101  11.353  19.234  0.00  0.00    +0.000 NA
ENDROOT
BRANCH   1   2
ATOM      2  S   UNL     1      -0.023  13.061  19.525  0.00  0.00    +0.000 S 
ATOM      3  O   UNL     1       1.278  13.480  19.977  0.00  0.00    +0.000 OA
ATOM      4  O   UNL     1      -0.632  13.724  18.379  0.00  0.00    +0.000 OA
BRANCH   2   5
ATOM      5  C   UNL     1      -1.116  13.312  20.915  0.00  0.00    +0.000 A 
ATOM      6  C   UNL     1      -0.633  13.108  22.217  0.00  0.00    +0.000 A 
ATOM      7  C   UNL     1      -1.393  13.532  23.313  0.00  0.00    +0.000 A 
ATOM      8  C   UNL     1      -2.630  14.147  23.100  0.00  0.00    +0.000 A 
ATOM      9 CL   UNL     1      -3.550  14.715  24.439  0.00  0.00    +0.000 Cl
ATOM     10  C   UNL     1      -3.116  14.330  21.806  0.00  0.00    +0.000 A 
ATOM     11  C   UNL     1      -2.354  13.925  20.709  0.00  0.00    +0.000 A 
ENDBRANCH   2   5
ENDBRANCH   1   2
BRANCH   1  12
ATOM     12  C   UNL     1       0.939  10.636  20.075  0.00  0.00    +0.000 C 
BRANCH  12  16
ATOM     13  C   UNL     1       2.595   6.907  18.647  0.00  0.00    +0.000 A 
ATOM     14  C   UNL     1       2.178   7.031  19.983  0.00  0.00    +0.000 A 
ATOM     15  C   UNL     1       1.546   8.198  20.431  0.00  0.00    +0.000 A 
ATOM     16  C   UNL     1       1.387   9.283  19.564  0.00  0.00    +0.000 A 
ATOM     17  C   UNL     1       1.726   9.130  18.214  0.00  0.00    +0.000 A 
ATOM     18  C   UNL     1       2.346   7.964  17.769  0.00  0.00    +0.000 A 
BRANCH  13  23
ATOM     19  O   UNL     1       0.216   2.176  18.823  0.00  0.00    +0.000 OA
ATOM     20  C   UNL     1       1.299   2.602  18.428  0.00  0.00    +0.000 C 
ATOM     21  C   UNL     1       1.523   4.083  18.106  0.00  0.00    +0.000 C 
ATOM     22  N   UNL     1       2.919   4.504  17.946  0.00  0.00    +0.000 N 
ATOM     23  C   UNL     1       3.460   5.752  18.261  0.00  0.00    +0.000 C 
ATOM     24  O   UNL     1       4.671   5.968  18.188  0.00  0.00    +0.000 OA
ATOM     25  C   UNL     1       3.760   3.538  17.239  0.00  0.00    +0.000 C 
ATOM     26  C   UNL     1       3.669   2.160  17.890  0.00  0.00    +0.000 C 
ATOM     27  N   UNL     1       2.301   1.728  18.095  0.00  0.00    +0.000 N 
ATOM     28  H   UNL     1       2.117   0.767  18.357  0.00  0.00    +0.000 HD
ENDBRANCH  13  23
ENDBRANCH  12  16
ENDBRANCH   1  12
BRANCH   1  29
ATOM     29  C   UNL     1      -1.480  10.766  19.419  0.00  0.00    +0.000 C 
BRANCH  29  30
ATOM     30  C   UNL     1      -2.325  10.671  18.161  0.00  0.00    +0.000 A 
ATOM     31  C   UNL     1      -1.908   9.905  17.063  0.00  0.00    +0.000 A 
ATOM     32  C   UNL     1      -2.608   9.963  15.852  0.00  0.00    +0.000 A 
ATOM     33  C   UNL     1      -3.740  10.766  15.730  0.00  0.00    +0.000 A 
ATOM     34  C   UNL     1      -4.197  11.489  16.829  0.00  0.00    +0.000 A 
ATOM     35  C   UNL     1      -3.502  11.431  18.040  0.00  0.00    +0.000 A 
ENDBRANCH  29  30
ENDBRANCH   1  29
TORSDOF 7
ENDMDL
MODEL 2
REMARK VINA RESULT:      -9.2      2.555      3.149
REMARK  Name = 
REMARK  7 active torsions:
REMARK  status: ('A' for Active; 'I' for Inactive)
REMARK    1  A    between atoms: C_5  and  C_7
REMARK    2  A    between atoms: C_10  and  C_11
REMARK    3  A    between atoms: C_11  and  N_12
REMARK    4  A    between atoms: N_12  and  C_13
REMARK    5  A    between atoms: N_12  and  S_20
REMARK    6  A    between atoms: C_13  and  C_14
REMARK    7  A    between atoms: S_20  and  C_23
REMARK                            x       y       z     vdW  Elec       q    Type
REMARK                         _______ _______ _______ _____ _____    ______ ____
ROOT
ATOM      1  N   UNL     1      -0.224  11.441  19.250  0.00  0.00    +0.000 NA
ENDROOT
BRANCH   1   2
ATOM      2  S   UNL     1      -0.150  13.145  19.570  0.00  0.00    +0.000 S 
ATOM      3  O   UNL     1      -0.732  13.925  18.509  0.00  0.00    +0.000 OA
ATOM      4  O   UNL     1      -0.602  13.349  20.940  0.00  0.00    +0.000 OA
BRANCH   2   5
ATOM      5  C   UNL     1       1.597  13.515  19.534  0.00  0.00    +0.000 A 
ATOM      6  C   UNL     1       2.262  13.578  18.300  0.00  0.00    +0.000 A 
ATOM      7  C   UNL     1       3.559  14.103  18.239  0.00  0.00    +0.000 A 
ATOM      8  C   UNL     1       4.181  14.548  19.408  0.00  0.00    +0.000 A 
ATOM      9 CL   UNL     1       5.756  15.238  19.335  0.00  0.00    +0.000 Cl
ATOM     10  C   UNL     1       3.524  14.465  20.635  0.00  0.00    +0.000 A 
ATOM     11  C   UNL     1       2.224  13.961  20.700  0.00  0.00    +0.000 A 
ENDBRANCH   2   5
ENDBRANCH   1   2
BRANCH   1  12
ATOM     12  C   UNL     1       0.792  10.708  20.107  0.00  0.00    +0.000 C 
BRANCH  12  16
ATOM     13  C   UNL     1       2.514   7.037  18.609  0.00  0.00    +0.000 A 
ATOM     14  C   UNL     1       2.143   7.146  19.961  0.00  0.00    +0.000 A 
ATOM     15  C   UNL     1       1.491   8.291  20.434  0.00  0.00    +0.000 A 
ATOM     16  C   UNL     1       1.263   9.371  19.576  0.00  0.00    +0.000 A 
ATOM     17  C   UNL     1       1.557   9.230  18.214  0.00  0.00    +0.000 A 
ATOM     18  C   UNL     1       2.197   8.086  17.744  0.00  0.00    +0.000 A 
BRANCH  13  23
ATOM     19  O   UNL     1       0.287   2.233  18.831  0.00  0.00    +0.000 OA
ATOM     20  C   UNL     1       1.344   2.695  18.405  0.00  0.00    +0.000 C 
ATOM     21  C   UNL     1       1.512   4.184  18.085  0.00  0.00    +0.000 C 
ATOM     22  N   UNL     1       2.889   4.649  17.883  0.00  0.00    +0.000 N 
ATOM     23  C   UNL     1       3.401   5.911  18.189  0.00  0.00    +0.000 C 
ATOM     24  O   UNL     1       4.602   6.164  18.078  0.00  0.00    +0.000 OA
ATOM     25  C   UNL     1       3.736   3.713  17.143  0.00  0.00    +0.000 C 
ATOM     26  C   UNL     1       3.708   2.329  17.788  0.00  0.00    +0.000 C 
ATOM     27  N   UNL     1       2.361   1.854  18.034  0.00  0.00    +0.000 N 
ATOM     28  H   UNL     1       2.215   0.887  18.296  0.00  0.00    +0.000 HD
ENDBRANCH  13  23
ENDBRANCH  12  16
ENDBRANCH   1  12
BRANCH   1  29
ATOM     29  C   UNL     1      -1.609  10.855  19.389  0.00  0.00    +0.000 C 
BRANCH  29  30
ATOM     30  C   UNL     1      -2.387  10.700  18.094  0.00  0.00    +0.000 A 
ATOM     31  C   UNL     1      -1.887   9.928  17.036  0.00  0.00    +0.000 A 
ATOM     32  C   UNL     1      -2.529   9.932  15.792  0.00  0.00    +0.000 A 
ATOM     33  C   UNL     1      -3.684  10.688  15.596  0.00  0.00    +0.000 A 
ATOM     34  C   UNL     1      -4.221  11.415  16.654  0.00  0.00    +0.000 A 
ATOM     35  C   UNL     1      -3.585  11.411  17.899  0.00  0.00    +0.000 A 
ENDBRANCH  29  30
ENDBRANCH   1  29
TORSDOF 7
ENDMDL
MODEL 3
REMARK VINA RESULT:      -9.2      1.682      2.894
REMARK  Name = 
REMARK  7 active torsions:
REMARK  status: ('A' for Active; 'I' for Inactive)
REMARK    1  A    between atoms: C_5  and  C_7
REMARK    2  A    between atoms: C_10  and  C_11
REMARK    3  A    between atoms: C_11  and  N_12
REMARK    4  A    between atoms: N_12  and  C_13
REMARK    5  A    between atoms: N_12  and  S_20
REMARK    6  A    between atoms: C_13  and  C_14
REMARK    7  A    between atoms: S_20  and  C_23
REMARK                            x       y       z     vdW  Elec       q    Type
REMARK                         _______ _______ _______ _____ _____    ______ ____
ROOT
ATOM      1  N   UNL     1      -0.365  10.643  19.201  0.00  0.00    +0.000 NA
ENDROOT
BRANCH   1   2
ATOM      2  S   UNL     1      -0.299  12.353  19.485  0.00  0.00    +0.000 S 
ATOM      3  O   UNL     1       1.012  12.789  19.890  0.00  0.00    +0.000 OA
ATOM      4  O   UNL     1      -0.955  13.005  18.359  0.00  0.00    +0.000 OA
BRANCH   2   5
ATOM      5  C   UNL     1      -1.346  12.593  20.912  0.00  0.00    +0.000 A 
ATOM      6  C   UNL     1      -2.702  12.906  20.726  0.00  0.00    +0.000 A 
ATOM      7  C   UNL     1      -3.580  12.855  21.816  0.00  0.00    +0.000 A 
ATOM      8  C   UNL     1      -3.095  12.503  23.079  0.00  0.00    +0.000 A 
ATOM      9 CL   UNL     1      -4.175  12.392  24.413  0.00  0.00    +0.000 Cl
ATOM     10  C   UNL     1      -1.744  12.212  23.262  0.00  0.00    +0.000 A 
ATOM     11  C   UNL     1      -0.868  12.243  22.176  0.00  0.00    +0.000 A 
ENDBRANCH   2   5
ENDBRANCH   1   2
BRANCH   1  12
ATOM     12  C   UNL     1       0.537   9.919  20.184  0.00  0.00    +0.000 C 
BRANCH  12  16
ATOM     13  C   UNL     1       2.804   6.686  18.423  0.00  0.00    +0.000 A 
ATOM     14  C   UNL     1       2.514   7.839  17.673  0.00  0.00    +0.000 A 
ATOM     15  C   UNL     1       1.871   8.934  18.263  0.00  0.00    +0.000 A 
ATOM     16  C   UNL     1       1.447   8.863  19.593  0.00  0.00    +0.000 A 
ATOM     17  C   UNL     1       1.809   7.750  20.363  0.00  0.00    +0.000 A 
ATOM     18  C   UNL     1       2.458   6.666  19.776  0.00  0.00    +0.000 A 
BRANCH  13  23
ATOM     19  O   UNL     1       7.774   6.951  16.602  0.00  0.00    +0.000 OA
ATOM     20  C   UNL     1       6.916   6.075  16.696  0.00  0.00    +0.000 C 
ATOM     21  C   UNL     1       5.737   6.191  17.668  0.00  0.00    +0.000 C 
ATOM     22  N   UNL     1       4.638   5.241  17.464  0.00  0.00    +0.000 N 
ATOM     23  C   UNL     1       3.282   5.461  17.715  0.00  0.00    +0.000 C 
ATOM     24  O   UNL     1       2.425   4.631  17.407  0.00  0.00    +0.000 OA
ATOM     25  C   UNL     1       5.070   3.890  17.105  0.00  0.00    +0.000 C 
ATOM     26  C   UNL     1       6.005   3.922  15.898  0.00  0.00    +0.000 C 
ATOM     27  N   UNL     1       7.085   4.876  16.052  0.00  0.00    +0.000 N 
ATOM     28  H   UNL     1       7.858   4.862  15.399  0.00  0.00    +0.000 HD
ENDBRANCH  13  23
ENDBRANCH  12  16
ENDBRANCH   1  12
BRANCH   1  29
ATOM     29  C   UNL     1      -1.766  10.079  19.198  0.00  0.00    +0.000 C 
BRANCH  29  30
ATOM     30  C   UNL     1      -2.530  10.232  17.895  0.00  0.00    +0.000 A 
ATOM     31  C   UNL     1      -1.975   9.819  16.676  0.00  0.00    +0.000 A 
ATOM     32  C   UNL     1      -2.615  10.120  15.468  0.00  0.00    +0.000 A 
ATOM     33  C   UNL     1      -3.823  10.816  15.464  0.00  0.00    +0.000 A 
ATOM     34  C   UNL     1      -4.413  11.183  16.671  0.00  0.00    +0.000 A 
ATOM     35  C   UNL     1      -3.778  10.882  17.879  0.00  0.00    +0.000 A 
ENDBRANCH  29  30
ENDBRANCH   1  29
TORSDOF 7
ENDMDL
MODEL 4
REMARK VINA RESULT:      -9.1      4.327     10.181
REMARK  Name = 
REMARK  7 active torsions:
REMARK  status: ('A' for Active; 'I' for Inactive)
REMARK    1  A    between atoms: C_5  and  C_7
REMARK    2  A    between atoms: C_10  and  C_11
REMARK    3  A    between atoms: C_11  and  N_12
REMARK    4  A    between atoms: N_12  and  C_13
REMARK    5  A    between atoms: N_12  and  S_20
REMARK    6  A    between atoms: C_13  and  C_14
REMARK    7  A    between atoms: S_20  and  C_23
REMARK                            x       y       z     vdW  Elec       q    Type
REMARK                         _______ _______ _______ _____ _____    ______ ____
ROOT
ATOM      1  N   UNL     1       4.309   5.543  18.413  0.00  0.00    +0.000 NA
ENDROOT
BRANCH   1   2
ATOM      2  S   UNL     1       6.033   5.444  18.250  0.00  0.00    +0.000 S 
ATOM      3  O   UNL     1       6.655   6.742  18.225  0.00  0.00    +0.000 OA
ATOM      4  O   UNL     1       6.502   4.442  19.198  0.00  0.00    +0.000 OA
BRANCH   2   5
ATOM      5  C   UNL     1       6.273   4.768  16.614  0.00  0.00    +0.000 A 
ATOM      6  C   UNL     1       5.329   3.868  16.095  0.00  0.00    +0.000 A 
ATOM      7  C   UNL     1       5.371   3.524  14.738  0.00  0.00    +0.000 A 
ATOM      8  C   UNL     1       6.360   4.073  13.917  0.00  0.00    +0.000 A 
ATOM      9 CL   UNL     1       6.390   3.694  12.239  0.00  0.00    +0.000 Cl
ATOM     10  C   UNL     1       7.308   4.952  14.440  0.00  0.00    +0.000 A 
ATOM     11  C   UNL     1       7.259   5.312  15.788  0.00  0.00    +0.000 A 
ENDBRANCH   2   5
ENDBRANCH   1   2
BRANCH   1  12
ATOM     12  C   UNL     1       3.778   6.713  17.606  0.00  0.00    +0.000 C 
BRANCH  12  16
ATOM     13  C   UNL     1       1.141   9.377  19.759  0.00  0.00    +0.000 A 
ATOM     14  C   UNL     1       1.455   9.628  18.412  0.00  0.00    +0.000 A 
ATOM     15  C   UNL     1       2.225   8.718  17.676  0.00  0.00    +0.000 A 
ATOM     16  C   UNL     1       2.747   7.580  18.297  0.00  0.00    +0.000 A 
ATOM     17  C   UNL     1       2.365   7.289  19.613  0.00  0.00    +0.000 A 
ATOM     18  C   UNL     1       1.592   8.191  20.340  0.00  0.00    +0.000 A 
BRANCH  13  23
ATOM     19  O   UNL     1      -3.108  11.658  17.561  0.00  0.00    +0.000 OA
ATOM     20  C   UNL     1      -2.545  11.713  18.653  0.00  0.00    +0.000 C 
ATOM     21  C   UNL     1      -1.601  10.608  19.139  0.00  0.00    +0.000 C 
ATOM     22  N   UNL     1      -0.768  10.938  20.301  0.00  0.00    +0.000 N 
ATOM     23  C   UNL     1       0.517  10.464  20.572  0.00  0.00    +0.000 C 
ATOM     24  O   UNL     1       1.173  10.888  21.525  0.00  0.00    +0.000 OA
ATOM     25  C   UNL     1      -1.453  11.723  21.327  0.00  0.00    +0.000 C 
ATOM     26  C   UNL     1      -2.080  12.977  20.723  0.00  0.00    +0.000 C 
ATOM     27  N   UNL     1      -2.883  12.692  19.551  0.00  0.00    +0.000 N 
ATOM     28  H   UNL     1      -3.483  13.414  19.171  0.00  0.00    +0.000 HD
ENDBRANCH  13  23
ENDBRANCH  12  16
ENDBRANCH   1  12
BRANCH   1  29
ATOM     29  C   UNL     1       3.591   4.256  18.083  0.00  0.00    +0.000 C 
BRANCH  29  30
ATOM     30  C   UNL     1       2.770   3.656  19.210  0.00  0.00    +0.000 A 
ATOM     31  C   UNL     1       1.373   3.774  19.232  0.00  0.00    +0.000 A 
ATOM     32  C   UNL     1       0.646   3.368  20.358  0.00  0.00    +0.000 A 
ATOM     33  C   UNL     1       1.301   2.823  21.461  0.00  0.00    +0.000 A 
ATOM     34  C   UNL     1       2.681   2.649  21.429  0.00  0.00    +0.000 A 
ATOM     35  C   UNL     1       3.410   3.050  20.307  0.00  0.00    +0.000 A 
ENDBRANCH  29  30
ENDBRANCH   1  29
TORSDOF 7
ENDMDL
MODEL 5
REMARK VINA RESULT:      -9.1      1.747      2.770
REMARK  Name = 
REMARK  7 active torsions:
REMARK  status: ('A' for Active; 'I' for Inactive)
REMARK    1  A    between atoms: C_5  and  C_7
REMARK    2  A    between atoms: C_10  and  C_11
REMARK    3  A    between atoms: C_11  and  N_12
REMARK    4  A    between atoms: N_12  and  C_13
REMARK    5  A    between atoms: N_12  and  S_20
REMARK    6  A    between atoms: C_13  and  C_14
REMARK    7  A    between atoms: S_20  and  C_23
REMARK                            x       y       z     vdW  Elec       q    Type
REMARK                         _______ _______ _______ _____ _____    ______ ____
ROOT
ATOM      1  N   UNL     1      -0.038  11.198  19.193  0.00  0.00    +0.000 NA
ENDROOT
BRANCH   1   2
ATOM      2  S   UNL     1      -0.301  12.755  19.911  0.00  0.00    +0.000 S 
ATOM      3  O   UNL     1       0.859  13.234  20.616  0.00  0.00    +0.000 OA
ATOM      4  O   UNL     1      -0.925  13.599  18.901  0.00  0.00    +0.000 OA
BRANCH   2   5
ATOM      5  C   UNL     1      -1.532  12.447  21.168  0.00  0.00    +0.000 A 
ATOM      6  C   UNL     1      -1.168  11.754  22.333  0.00  0.00    +0.000 A 
ATOM      7  C   UNL     1      -2.047  11.720  23.423  0.00  0.00    +0.000 A 
ATOM      8  C   UNL     1      -3.282  12.369  23.335  0.00  0.00    +0.000 A 
ATOM      9 CL   UNL     1      -4.348  12.374  24.686  0.00  0.00    +0.000 Cl
ATOM     10  C   UNL     1      -3.648  13.040  22.169  0.00  0.00    +0.000 A 
ATOM     11  C   UNL     1      -2.768  13.092  21.087  0.00  0.00    +0.000 A 
ENDBRANCH   2   5
ENDBRANCH   1   2
BRANCH   1  12
ATOM     12  C   UNL     1       1.181  10.540  19.812  0.00  0.00    +0.000 C 
BRANCH  12  16
ATOM     13  C   UNL     1       2.600   6.756  18.278  0.00  0.00    +0.000 A 
ATOM     14  C   UNL     1       2.257   6.887  19.634  0.00  0.00    +0.000 A 
ATOM     15  C   UNL     1       1.700   8.076  20.121  0.00  0.00    +0.000 A 
ATOM     16  C   UNL     1       1.543   9.174  19.270  0.00  0.00    +0.000 A 
ATOM     17  C   UNL     1       1.807   9.017  17.903  0.00  0.00    +0.000 A 
ATOM     18  C   UNL     1       2.352   7.830  17.420  0.00  0.00    +0.000 A 
BRANCH  13  23
ATOM     19  O   UNL     1       7.634   7.784  16.978  0.00  0.00    +0.000 OA
ATOM     20  C   UNL     1       6.952   6.772  17.127  0.00  0.00    +0.000 C 
ATOM     21  C   UNL     1       5.650   6.779  17.934  0.00  0.00    +0.000 C 
ATOM     22  N   UNL     1       4.788   5.601  17.777  0.00  0.00    +0.000 N 
ATOM     23  C   UNL     1       3.394   5.568  17.842  0.00  0.00    +0.000 C 
ATOM     24  O   UNL     1       2.761   4.542  17.589  0.00  0.00    +0.000 OA
ATOM     25  C   UNL     1       5.513   4.333  17.700  0.00  0.00    +0.000 C 
ATOM     26  C   UNL     1       6.583   4.384  16.612  0.00  0.00    +0.000 C 
ATOM     27  N   UNL     1       7.431   5.555  16.716  0.00  0.00    +0.000 N 
ATOM     28  H   UNL     1       8.276   5.608  16.161  0.00  0.00    +0.000 HD
ENDBRANCH  13  23
ENDBRANCH  12  16
ENDBRANCH   1  12
BRANCH   1  29
ATOM     29  C   UNL     1      -1.249  10.296  19.233  0.00  0.00    +0.000 C 
BRANCH  29  30
ATOM     30  C   UNL     1      -2.179  10.394  18.037  0.00  0.00    +0.000 A 
ATOM     31  C   UNL     1      -1.844   9.808  16.808  0.00  0.00    +0.000 A 
ATOM     32  C   UNL     1      -2.625  10.051  15.672  0.00  0.00    +0.000 A 
ATOM     33  C   UNL     1      -3.757  10.860  15.754  0.00  0.00    +0.000 A 
ATOM     34  C   UNL     1      -4.131  11.403  16.980  0.00  0.00    +0.000 A 
ATOM     35  C   UNL     1      -3.356  11.161  18.117  0.00  0.00    +0.000 A 
ENDBRANCH  29  30
ENDBRANCH   1  29
TORSDOF 7
ENDMDL
MODEL 6
REMARK VINA RESULT:      -9.1      1.317      1.625
REMARK  Name = 
REMARK  7 active torsions:
REMARK  status: ('A' for Active; 'I' for Inactive)
REMARK    1  A    between atoms: C_5  and  C_7
REMARK    2  A    between atoms: C_10  and  C_11
REMARK    3  A    between atoms: C_11  and  N_12
REMARK    4  A    between atoms: N_12  and  C_13
REMARK    5  A    between atoms: N_12  and  S_20
REMARK    6  A    between atoms: C_13  and  C_14
REMARK    7  A    between atoms: S_20  and  C_23
REMARK                            x       y       z     vdW  Elec       q    Type
REMARK                         _______ _______ _______ _____ _____    ______ ____
ROOT
ATOM      1  N   UNL     1      -0.354  11.075  19.623  0.00  0.00    +0.000 NA
ENDROOT
BRANCH   1   2
ATOM      2  S   UNL     1      -0.279  11.382  21.329  0.00  0.00    +0.000 S 
ATOM      3  O   UNL     1      -0.486  10.188  22.108  0.00  0.00    +0.000 OA
ATOM      4  O   UNL     1       0.902  12.200  21.571  0.00  0.00    +0.000 OA
BRANCH   2   5
ATOM      5  C   UNL     1      -1.704  12.412  21.645  0.00  0.00    +0.000 A 
ATOM      6  C   UNL     1      -2.089  13.366  20.691  0.00  0.00    +0.000 A 
ATOM      7  C   UNL     1      -3.330  14.003  20.810  0.00  0.00    +0.000 A 
ATOM      8  C   UNL     1      -4.168  13.689  21.883  0.00  0.00    +0.000 A 
ATOM      9 CL   UNL     1      -5.715  14.431  22.010  0.00  0.00    +0.000 Cl
ATOM     10  C   UNL     1      -3.774  12.754  22.839  0.00  0.00    +0.000 A 
ATOM     11  C   UNL     1      -2.545  12.103  22.716  0.00  0.00    +0.000 A 
ENDBRANCH   2   5
ENDBRANCH   1   2
BRANCH   1  12
ATOM     12  C   UNL     1       1.043  10.855  19.073  0.00  0.00    +0.000 C 
BRANCH  12  16
ATOM     13  C   UNL     1       2.704   6.873  18.804  0.00  0.00    +0.000 A 
ATOM     14  C   UNL     1       2.159   7.333  20.015  0.00  0.00    +0.000 A 
ATOM     15  C   UNL     1       1.526   8.580  20.088  0.00  0.00    +0.000 A 
ATOM     16  C   UNL     1       1.492   9.413  18.966  0.00  0.00    +0.000 A 
ATOM     17  C   UNL     1       1.961   8.922  17.740  0.00  0.00    +0.000 A 
ATOM     18  C   UNL     1       2.581   7.677  17.669  0.00  0.00    +0.000 A 
BRANCH  13  23
ATOM     19  O   UNL     1       0.066   2.284  18.549  0.00  0.00    +0.000 OA
ATOM     20  C   UNL     1       1.246   2.625  18.500  0.00  0.00    +0.000 C 
ATOM     21  C   UNL     1       1.666   4.058  18.158  0.00  0.00    +0.000 C 
ATOM     22  N   UNL     1       3.066   4.402  18.433  0.00  0.00    +0.000 N 
ATOM     23  C   UNL     1       3.563   5.651  18.813  0.00  0.00    +0.000 C 
ATOM     24  O   UNL     1       4.745   5.807  19.124  0.00  0.00    +0.000 OA
ATOM     25  C   UNL     1       4.019   3.339  18.117  0.00  0.00    +0.000 C 
ATOM     26  C   UNL     1       3.625   2.034  18.805  0.00  0.00    +0.000 C 
ATOM     27  N   UNL     1       2.238   1.681  18.582  0.00  0.00    +0.000 N 
ATOM     28  H   UNL     1       1.911   0.759  18.841  0.00  0.00    +0.000 HD
ENDBRANCH  13  23
ENDBRANCH  12  16
ENDBRANCH   1  12
BRANCH   1  29
ATOM     29  C   UNL     1      -1.294   9.953  19.247  0.00  0.00    +0.000 C 
BRANCH  29  30
ATOM     30  C   UNL     1      -2.217  10.238  18.076  0.00  0.00    +0.000 A 
ATOM     31  C   UNL     1      -1.913   9.784  16.785  0.00  0.00    +0.000 A 
ATOM     32  C   UNL     1      -2.681  10.197  15.690  0.00  0.00    +0.000 A 
ATOM     33  C   UNL     1      -3.770  11.047  15.873  0.00  0.00    +0.000 A 
ATOM     34  C   UNL     1      -4.116  11.461  17.156  0.00  0.00    +0.000 A 
ATOM     35  C   UNL     1      -3.353  11.049  18.252  0.00  0.00    +0.000 A 
ENDBRANCH  29  30
ENDBRANCH   1  29
TORSDOF 7
ENDMDL
MODEL 7
REMARK VINA RESULT:      -8.9      4.407     10.038
REMARK  Name = 
REMARK  7 active torsions:
REMARK  status: ('A' for Active; 'I' for Inactive)
REMARK    1  A    between atoms: C_5  and  C_7
REMARK    2  A    between atoms: C_10  and  C_11
REMARK    3  A    between atoms: C_11  and  N_12
REMARK    4  A    between atoms: N_12  and  C_13
REMARK    5  A    between atoms: N_12  and  S_20
REMARK    6  A    between atoms: C_13  and  C_14
REMARK    7  A    between atoms: S_20  and  C_23
REMARK                            x       y       z     vdW  Elec       q    Type
REMARK                         _______ _______ _______ _____ _____    ______ ____
ROOT
ATOM      1  N   UNL     1       4.903   5.387  18.925  0.00  0.00    +0.000 NA
ENDROOT
BRANCH   1   2
ATOM      2  S   UNL     1       6.444   5.689  18.186  0.00  0.00    +0.000 S 
ATOM      3  O   UNL     1       6.737   7.096  18.090  0.00  0.00    +0.000 OA
ATOM      4  O   UNL     1       7.409   4.797  18.815  0.00  0.00    +0.000 OA
BRANCH   2   5
ATOM      5  C   UNL     1       6.232   5.129  16.503  0.00  0.00    +0.000 A 
ATOM      6  C   UNL     1       6.960   5.747  15.475  0.00  0.00    +0.000 A 
ATOM      7  C   UNL     1       6.991   5.165  14.201  0.00  0.00    +0.000 A 
ATOM      8  C   UNL     1       6.288   3.980  13.966  0.00  0.00    +0.000 A 
ATOM      9 CL   UNL     1       6.359   3.233  12.417  0.00  0.00    +0.000 Cl
ATOM     10  C   UNL     1       5.550   3.380  14.985  0.00  0.00    +0.000 A 
ATOM     11  C   UNL     1       5.531   3.946  16.261  0.00  0.00    +0.000 A 
ENDBRANCH   2   5
ENDBRANCH   1   2
BRANCH   1  12
ATOM     12  C   UNL     1       3.787   5.799  17.983  0.00  0.00    +0.000 C 
BRANCH  12  16
ATOM     13  C   UNL     1       1.363   8.952  19.677  0.00  0.00    +0.000 A 
ATOM     14  C   UNL     1       1.802   9.034  18.344  0.00  0.00    +0.000 A 
ATOM     15  C   UNL     1       2.500   7.973  17.754  0.00  0.00    +0.000 A 
ATOM     16  C   UNL     1       2.828   6.845  18.511  0.00  0.00    +0.000 A 
ATOM     17  C   UNL     1       2.320   6.727  19.811  0.00  0.00    +0.000 A 
ATOM     18  C   UNL     1       1.618   7.781  20.393  0.00  0.00    +0.000 A 
BRANCH  13  23
ATOM     19  O   UNL     1      -2.497  11.425  17.020  0.00  0.00    +0.000 OA
ATOM     20  C   UNL     1      -1.983  11.535  18.132  0.00  0.00    +0.000 C 
ATOM     21  C   UNL     1      -1.192  10.394  18.779  0.00  0.00    +0.000 C 
ATOM     22  N   UNL     1      -0.384  10.754  19.950  0.00  0.00    +0.000 N 
ATOM     23  C   UNL     1       0.827  10.179  20.341  0.00  0.00    +0.000 C 
ATOM     24  O   UNL     1       1.480  10.628  21.283  0.00  0.00    +0.000 OA
ATOM     25  C   UNL     1      -1.024  11.711  20.851  0.00  0.00    +0.000 C 
ATOM     26  C   UNL     1      -1.479  12.954  20.089  0.00  0.00    +0.000 C 
ATOM     27  N   UNL     1      -2.253  12.634  18.907  0.00  0.00    +0.000 N 
ATOM     28  H   UNL     1      -2.750  13.371  18.423  0.00  0.00    +0.000 HD
ENDBRANCH  13  23
ENDBRANCH  12  16
ENDBRANCH   1  12
BRANCH   1  29
ATOM     29  C   UNL     1       4.733   3.970  19.420  0.00  0.00    +0.000 C 
BRANCH  29  30
ATOM     30  C   UNL     1       3.298   3.488  19.543  0.00  0.00    +0.000 A 
ATOM     31  C   UNL     1       2.576   3.068  18.417  0.00  0.00    +0.000 A 
ATOM     32  C   UNL     1       1.207   2.790  18.517  0.00  0.00    +0.000 A 
ATOM     33  C   UNL     1       0.552   2.907  19.742  0.00  0.00    +0.000 A 
ATOM     34  C   UNL     1       1.270   3.269  20.878  0.00  0.00    +0.000 A 
ATOM     35  C   UNL     1       2.636   3.545  20.782  0.00  0.00    +0.000 A 
ENDBRANCH  29  30
ENDBRANCH   1  29
TORSDOF 7
ENDMDL
MODEL 8
REMARK VINA RESULT:      -8.8      2.859      4.055
REMARK  Name = 
REMARK  7 active torsions:
REMARK  status: ('A' for Active; 'I' for Inactive)
REMARK    1  A    between atoms: C_5  and  C_7
REMARK    2  A    between atoms: C_10  and  C_11
REMARK    3  A    between atoms: C_11  and  N_12
REMARK    4  A    between atoms: N_12  and  C_13
REMARK    5  A    between atoms: N_12  and  S_20
REMARK    6  A    between atoms: C_13  and  C_14
REMARK    7  A    between atoms: S_20  and  C_23
REMARK                            x       y       z     vdW  Elec       q    Type
REMARK                         _______ _______ _______ _____ _____    ______ ____
ROOT
ATOM      1  N   UNL     1      -0.316  11.033  19.244  0.00  0.00    +0.000 NA
ENDROOT
BRANCH   1   2
ATOM      2  S   UNL     1      -0.333  12.728  19.611  0.00  0.00    +0.000 S 
ATOM      3  O   UNL     1      -0.952  13.506  18.569  0.00  0.00    +0.000 OA
ATOM      4  O   UNL     1      -0.799  12.870  20.984  0.00  0.00    +0.000 OA
BRANCH   2   5
ATOM      5  C   UNL     1       1.392  13.191  19.593  0.00  0.00    +0.000 A 
ATOM      6  C   UNL     1       2.063  13.299  18.366  0.00  0.00    +0.000 A 
ATOM      7  C   UNL     1       3.331  13.892  18.320  0.00  0.00    +0.000 A 
ATOM      8  C   UNL     1       3.918  14.361  19.498  0.00  0.00    +0.000 A 
ATOM      9 CL   UNL     1       5.455  15.134  19.443  0.00  0.00    +0.000 Cl
ATOM     10  C   UNL     1       3.256  14.233  20.718  0.00  0.00    +0.000 A 
ATOM     11  C   UNL     1       1.985  13.660  20.768  0.00  0.00    +0.000 A 
ENDBRANCH   2   5
ENDBRANCH   1   2
BRANCH   1  12
ATOM     12  C   UNL     1       0.579  10.299  20.225  0.00  0.00    +0.000 C 
BRANCH  12  16
ATOM     13  C   UNL     1       2.591   6.872  18.524  0.00  0.00    +0.000 A 
ATOM     14  C   UNL     1       2.353   8.014  17.741  0.00  0.00    +0.000 A 
ATOM     15  C   UNL     1       1.795   9.167  18.308  0.00  0.00    +0.000 A 
ATOM     16  C   UNL     1       1.405   9.168  19.650  0.00  0.00    +0.000 A 
ATOM     17  C   UNL     1       1.718   8.061  20.449  0.00  0.00    +0.000 A 
ATOM     18  C   UNL     1       2.281   6.919  19.885  0.00  0.00    +0.000 A 
BRANCH  13  23
ATOM     19  O   UNL     1       7.518   6.758  16.575  0.00  0.00    +0.000 OA
ATOM     20  C   UNL     1       6.609   5.942  16.720  0.00  0.00    +0.000 C 
ATOM     21  C   UNL     1       5.466   6.166  17.716  0.00  0.00    +0.000 C 
ATOM     22  N   UNL     1       4.304   5.281  17.572  0.00  0.00    +0.000 N 
ATOM     23  C   UNL     1       2.972   5.595  17.848  0.00  0.00    +0.000 C 
ATOM     24  O   UNL     1       2.057   4.811  17.590  0.00  0.00    +0.000 OA
ATOM     25  C   UNL     1       4.641   3.895  17.250  0.00  0.00    +0.000 C 
ATOM     26  C   UNL     1       5.544   3.826  16.020  0.00  0.00    +0.000 C 
ATOM     27  N   UNL     1       6.685   4.714  16.115  0.00  0.00    +0.000 N 
ATOM     28  H   UNL     1       7.438   4.629  15.444  0.00  0.00    +0.000 HD
ENDBRANCH  13  23
ENDBRANCH  12  16
ENDBRANCH   1  12
BRANCH   1  29
ATOM     29  C   UNL     1      -1.691  10.414  19.160  0.00  0.00    +0.000 C 
BRANCH  29  30
ATOM     30  C   UNL     1      -2.401  10.573  17.827  0.00  0.00    +0.000 A 
ATOM     31  C   UNL     1      -3.566  11.344  17.714  0.00  0.00    +0.000 A 
ATOM     32  C   UNL     1      -4.302  11.343  16.522  0.00  0.00    +0.000 A 
ATOM     33  C   UNL     1      -3.873  10.593  15.429  0.00  0.00    +0.000 A 
ATOM     34  C   UNL     1      -2.688   9.867  15.511  0.00  0.00    +0.000 A 
ATOM     35  C   UNL     1      -1.950   9.867  16.697  0.00  0.00    +0.000 A 
ENDBRANCH  29  30
ENDBRANCH   1  29
TORSDOF 7
ENDMDL
MODEL 9
REMARK VINA RESULT:      -8.7      1.072      1.586
REMARK  Name = 
REMARK  7 active torsions:
REMARK  status: ('A' for Active; 'I' for Inactive)
REMARK    1  A    between atoms: C_5  and  C_7
REMARK    2  A    between atoms: C_10  and  C_11
REMARK    3  A    between atoms: C_11  and  N_12
REMARK    4  A    between atoms: N_12  and  C_13
REMARK    5  A    between atoms: N_12  and  S_20
REMARK    6  A    between atoms: C_13  and  C_14
REMARK    7  A    between atoms: S_20  and  C_23
REMARK                            x       y       z     vdW  Elec       q    Type
REMARK                         _______ _______ _______ _____ _____    ______ ____
ROOT
ATOM      1  N   UNL     1      -0.480  10.938  19.404  0.00  0.00    +0.000 NA
ENDROOT
BRANCH   1   2
ATOM      2  S   UNL     1      -0.668  12.583  19.923  0.00  0.00    +0.000 S 
ATOM      3  O   UNL     1       0.442  13.033  20.723  0.00  0.00    +0.000 OA
ATOM      4  O   UNL     1      -1.075  13.361  18.760  0.00  0.00    +0.000 OA
BRANCH   2   5
ATOM      5  C   UNL     1      -2.066  12.528  21.033  0.00  0.00    +0.000 A 
ATOM      6  C   UNL     1      -1.892  12.039  22.336  0.00  0.00    +0.000 A 
ATOM      7  C   UNL     1      -2.908  12.216  23.285  0.00  0.00    +0.000 A 
ATOM      8  C   UNL     1      -4.087  12.871  22.920  0.00  0.00    +0.000 A 
ATOM      9 CL   UNL     1      -5.320  13.136  24.090  0.00  0.00    +0.000 Cl
ATOM     10  C   UNL     1      -4.264  13.338  21.618  0.00  0.00    +0.000 A 
ATOM     11  C   UNL     1      -3.248  13.180  20.674  0.00  0.00    +0.000 A 
ENDBRANCH   2   5
ENDBRANCH   1   2
BRANCH   1  12
ATOM     12  C   UNL     1       0.419  10.189  20.370  0.00  0.00    +0.000 C 
BRANCH  12  16
ATOM     13  C   UNL     1       2.618   6.928  18.576  0.00  0.00    +0.000 A 
ATOM     14  C   UNL     1       2.274   8.056  17.811  0.00  0.00    +0.000 A 
ATOM     15  C   UNL     1       1.652   9.161  18.405  0.00  0.00    +0.000 A 
ATOM     16  C   UNL     1       1.306   9.125  19.759  0.00  0.00    +0.000 A 
ATOM     17  C   UNL     1       1.723   8.038  20.538  0.00  0.00    +0.000 A 
ATOM     18  C   UNL     1       2.349   6.943  19.946  0.00  0.00    +0.000 A 
BRANCH  13  23
ATOM     19  O   UNL     1       1.004   2.396  20.798  0.00  0.00    +0.000 OA
ATOM     20  C   UNL     1       1.580   2.711  19.758  0.00  0.00    +0.000 C 
ATOM     21  C   UNL     1       1.513   4.132  19.189  0.00  0.00    +0.000 C 
ATOM     22  N   UNL     1       2.480   4.447  18.131  0.00  0.00    +0.000 N 
ATOM     23  C   UNL     1       3.069   5.687  17.877  0.00  0.00    +0.000 C 
ATOM     24  O   UNL     1       3.952   5.821  17.028  0.00  0.00    +0.000 OA
ATOM     25  C   UNL     1       2.703   3.361  17.177  0.00  0.00    +0.000 C 
ATOM     26  C   UNL     1       3.078   2.070  17.903  0.00  0.00    +0.000 C 
ATOM     27  N   UNL     1       2.162   1.746  18.977  0.00  0.00    +0.000 N 
ATOM     28  H   UNL     1       2.209   0.833  19.413  0.00  0.00    +0.000 HD
ENDBRANCH  13  23
ENDBRANCH  12  16
ENDBRANCH   1  12
BRANCH   1  29
ATOM     29  C   UNL     1      -1.789  10.219  19.176  0.00  0.00    +0.000 C 
BRANCH  29  30
ATOM     30  C   UNL     1      -2.430  10.443  17.818  0.00  0.00    +0.000 A 
ATOM     31  C   UNL     1      -3.605  11.196  17.686  0.00  0.00    +0.000 A 
ATOM     32  C   UNL     1      -4.277  11.251  16.459  0.00  0.00    +0.000 A 
ATOM     33  C   UNL     1      -3.774  10.575  15.349  0.00  0.00    +0.000 A 
ATOM     34  C   UNL     1      -2.579   9.869  15.452  0.00  0.00    +0.000 A 
ATOM     35  C   UNL     1      -1.904   9.814  16.675  0.00  0.00    +0.000 A 
ENDBRANCH  29  30
ENDBRANCH   1  29
TORSDOF 7
ENDMDL
