MODEL 1
REMARK VINA RESULT:      -8.9      0.000      0.000
REMARK  Name = 
REMARK  5 active torsions:
REMARK  status: ('A' for Active; 'I' for Inactive)
REMARK    1  A    between atoms: C_1  and  C_2
REMARK    2  A    between atoms: C_4  and  C_5
REMARK    3  A    between atoms: C_12  and  C_13
REMARK    4  A    between atoms: C_13  and  C_14
REMARK    5  A    between atoms: N_16  and  C_17
REMARK                            x       y       z     vdW  Elec       q    Type
REMARK                         _______ _______ _______ _____ _____    ______ ____
ROOT
ATOM      1  C   UNL     1       6.579   6.393  16.291  0.00  0.00    +0.000 C 
ENDROOT
BRANCH   1   7
ATOM      2  C   UNL     1       8.012   5.460  19.249  0.00  0.00    +0.000 C 
ATOM      3  C   UNL     1       7.950   6.719  18.486  0.00  0.00    +0.000 A 
ATOM      4  O   UNL     1       8.542   7.801  19.066  0.00  0.00    +0.000 OA
ATOM      5  C   UNL     1       8.330   8.832  18.190  0.00  0.00    +0.000 A 
ATOM      6  N   UNL     1       7.677   8.477  17.100  0.00  0.00    +0.000 NA
ATOM      7  C   UNL     1       7.409   7.127  17.282  0.00  0.00    +0.000 A 
BRANCH   5   8
ATOM      8  C   UNL     1       8.858  10.134  18.598  0.00  0.00    +0.000 A 
ATOM      9  C   UNL     1       9.508  10.307  19.833  0.00  0.00    +0.000 A 
ATOM     10  C   UNL     1      10.042  11.545  20.198  0.00  0.00    +0.000 A 
ATOM     11  C   UNL     1       9.928  12.632  19.335  0.00  0.00    +0.000 A 
ATOM     12  C   UNL     1       9.268  12.483  18.111  0.00  0.00    +0.000 A 
ATOM     13  C   UNL     1       8.735  11.244  17.751  0.00  0.00    +0.000 A 
ENDBRANCH   5   8
ENDBRANCH   1   7
BRANCH   1  14
ATOM     14  C   UNL     1       5.633   5.386  16.910  0.00  0.00    +0.000 C 
ATOM     15  O   UNL     1       5.876   4.180  16.870  0.00  0.00    +0.000 OA
ATOM     16  N   UNL     1       4.509   5.952  17.497  0.00  0.00    +0.000 N 
ATOM     17  H   UNL     1       4.221   6.851  17.127  0.00  0.00    +0.000 HD
BRANCH  16  18
ATOM     18  C   UNL     1       3.535   5.203  18.193  0.00  0.00    +0.000 A 
ATOM     19  C   UNL     1       2.424   4.741  17.470  0.00  0.00    +0.000 A 
ATOM     20  C   UNL     1       1.441   3.962  18.089  0.00  0.00    +0.000 A 
ATOM     21  C   UNL     1       1.556   3.703  19.444  0.00  0.00    +0.000 A 
ATOM     22  C   UNL     1       2.633   4.201  20.181  0.00  0.00    +0.000 A 
ATOM     23  C   UNL     1       3.637   4.941  19.567  0.00  0.00    +0.000 A 
ATOM     24  C   UNL     1       2.480   3.878  21.635  0.00  0.00    +0.000 C 
ATOM     25  C   UNL     1       1.396   2.789  21.614  0.00  0.00    +0.000 C 
ATOM     26  C   UNL     1       0.594   2.960  20.315  0.00  0.00    +0.000 C 
ENDBRANCH  16  18
ENDBRANCH   1  14
TORSDOF 4
ENDMDL
MODEL 2
REMARK VINA RESULT:      -8.8      0.921      1.334
REMARK  Name = 
REMARK  5 active torsions:
REMARK  status: ('A' for Active; 'I' for Inactive)
REMARK    1  A    between atoms: C_1  and  C_2
REMARK    2  A    between atoms: C_4  and  C_5
REMARK    3  A    between atoms: C_12  and  C_13
REMARK    4  A    between atoms: C_13  and  C_14
REMARK    5  A    between atoms: N_16  and  C_17
REMARK                            x       y       z     vdW  Elec       q    Type
REMARK                         _______ _______ _______ _____ _____    ______ ____
ROOT
ATOM      1  C   UNL     1       6.473   6.827  16.484  0.00  0.00    +0.000 C 
ENDROOT
BRANCH   1   7
ATOM      2  C   UNL     1       8.114   5.741  19.277  0.00  0.00    +0.000 C 
ATOM      3  C   UNL     1       8.040   7.026  18.560  0.00  0.00    +0.000 A 
ATOM      4  O   UNL     1       8.725   8.064  19.118  0.00  0.00    +0.000 OA
ATOM      5  C   UNL     1       8.481   9.132  18.296  0.00  0.00    +0.000 A 
ATOM      6  N   UNL     1       7.723   8.838  17.257  0.00  0.00    +0.000 NA
ATOM      7  C   UNL     1       7.416   7.495  17.420  0.00  0.00    +0.000 A 
BRANCH   5   8
ATOM      8  C   UNL     1       9.097  10.397  18.695  0.00  0.00    +0.000 A 
ATOM      9  C   UNL     1       9.033  11.535  17.871  0.00  0.00    +0.000 A 
ATOM     10  C   UNL     1       9.592  12.750  18.277  0.00  0.00    +0.000 A 
ATOM     11  C   UNL     1      10.229  12.843  19.511  0.00  0.00    +0.000 A 
ATOM     12  C   UNL     1      10.319  11.715  20.335  0.00  0.00    +0.000 A 
ATOM     13  C   UNL     1       9.760  10.504  19.925  0.00  0.00    +0.000 A 
ENDBRANCH   5   8
ENDBRANCH   1   7
BRANCH   1  14
ATOM     14  C   UNL     1       5.181   6.378  17.132  0.00  0.00    +0.000 C 
ATOM     15  O   UNL     1       4.208   7.128  17.192  0.00  0.00    +0.000 OA
ATOM     16  N   UNL     1       5.219   5.082  17.631  0.00  0.00    +0.000 N 
ATOM     17  H   UNL     1       6.136   4.732  17.887  0.00  0.00    +0.000 HD
BRANCH  16  18
ATOM     18  C   UNL     1       4.103   4.440  18.209  0.00  0.00    +0.000 A 
ATOM     19  C   UNL     1       3.220   3.763  17.354  0.00  0.00    +0.000 A 
ATOM     20  C   UNL     1       2.114   3.074  17.864  0.00  0.00    +0.000 A 
ATOM     21  C   UNL     1       1.876   3.121  19.227  0.00  0.00    +0.000 A 
ATOM     22  C   UNL     1       2.722   3.834  20.079  0.00  0.00    +0.000 A 
ATOM     23  C   UNL     1       3.846   4.487  19.588  0.00  0.00    +0.000 A 
ATOM     24  C   UNL     1       2.199   3.823  21.482  0.00  0.00    +0.000 C 
ATOM     25  C   UNL     1       1.164   2.688  21.434  0.00  0.00    +0.000 C 
ATOM     26  C   UNL     1       0.725   2.523  19.971  0.00  0.00    +0.000 C 
ENDBRANCH  16  18
ENDBRANCH   1  14
TORSDOF 4
ENDMDL
MODEL 3
REMARK VINA RESULT:      -8.8      3.984      6.365
REMARK  Name = 
REMARK  5 active torsions:
REMARK  status: ('A' for Active; 'I' for Inactive)
REMARK    1  A    between atoms: C_1  and  C_2
REMARK    2  A    between atoms: C_4  and  C_5
REMARK    3  A    between atoms: C_12  and  C_13
REMARK    4  A    between atoms: C_13  and  C_14
REMARK    5  A    between atoms: N_16  and  C_17
REMARK                            x       y       z     vdW  Elec       q    Type
REMARK                         _______ _______ _______ _____ _____    ______ ____
ROOT
ATOM      1  C   UNL     1       3.849   3.934  18.689  0.00  0.00    +0.000 C 
ENDROOT
BRANCH   1   7
ATOM      2  C   UNL     1       6.911   5.396  19.086  0.00  0.00    +0.000 C 
ATOM      3  C   UNL     1       6.181   4.829  17.939  0.00  0.00    +0.000 A 
ATOM      4  O   UNL     1       6.801   4.923  16.728  0.00  0.00    +0.000 OA
ATOM      5  C   UNL     1       5.926   4.360  15.838  0.00  0.00    +0.000 A 
ATOM      6  N   UNL     1       4.824   3.898  16.397  0.00  0.00    +0.000 NA
ATOM      7  C   UNL     1       4.963   4.207  17.743  0.00  0.00    +0.000 A 
BRANCH   5   8
ATOM      8  C   UNL     1       6.354   4.357  14.439  0.00  0.00    +0.000 A 
ATOM      9  C   UNL     1       7.403   5.179  13.991  0.00  0.00    +0.000 A 
ATOM     10  C   UNL     1       7.829   5.142  12.661  0.00  0.00    +0.000 A 
ATOM     11  C   UNL     1       7.207   4.286  11.756  0.00  0.00    +0.000 A 
ATOM     12  C   UNL     1       6.149   3.475  12.180  0.00  0.00    +0.000 A 
ATOM     13  C   UNL     1       5.726   3.516  13.509  0.00  0.00    +0.000 A 
ENDBRANCH   5   8
ENDBRANCH   1   7
BRANCH   1  14
ATOM     14  C   UNL     1       2.780   5.005  18.703  0.00  0.00    +0.000 C 
ATOM     15  O   UNL     1       1.600   4.725  18.496  0.00  0.00    +0.000 OA
ATOM     16  N   UNL     1       3.261   6.282  18.961  0.00  0.00    +0.000 N 
ATOM     17  H   UNL     1       4.231   6.448  18.714  0.00  0.00    +0.000 HD
BRANCH  16  18
ATOM     18  C   UNL     1       2.429   7.415  19.091  0.00  0.00    +0.000 A 
ATOM     19  C   UNL     1       2.214   8.205  17.951  0.00  0.00    +0.000 A 
ATOM     20  C   UNL     1       1.372   9.320  18.000  0.00  0.00    +0.000 A 
ATOM     21  C   UNL     1       0.797   9.663  19.212  0.00  0.00    +0.000 A 
ATOM     22  C   UNL     1       1.046   8.912  20.363  0.00  0.00    +0.000 A 
ATOM     23  C   UNL     1       1.848   7.778  20.315  0.00  0.00    +0.000 A 
ATOM     24  C   UNL     1       0.403   9.539  21.560  0.00  0.00    +0.000 C 
ATOM     25  C   UNL     1      -0.586  10.525  20.918  0.00  0.00    +0.000 C 
ATOM     26  C   UNL     1      -0.070  10.845  19.507  0.00  0.00    +0.000 C 
ENDBRANCH  16  18
ENDBRANCH   1  14
TORSDOF 4
ENDMDL
MODEL 4
REMARK VINA RESULT:      -8.5      4.301      7.205
REMARK  Name = 
REMARK  5 active torsions:
REMARK  status: ('A' for Active; 'I' for Inactive)
REMARK    1  A    between atoms: C_1  and  C_2
REMARK    2  A    between atoms: C_4  and  C_5
REMARK    3  A    between atoms: C_12  and  C_13
REMARK    4  A    between atoms: C_13  and  C_14
REMARK    5  A    between atoms: N_16  and  C_17
REMARK                            x       y       z     vdW  Elec       q    Type
REMARK                         _______ _______ _______ _____ _____    ______ ____
ROOT
ATOM      1  C   UNL     1       4.454   3.444  19.678  0.00  0.00    +0.000 C 
ENDROOT
BRANCH   1   7
ATOM      2  C   UNL     1       1.484   3.229  21.353  0.00  0.00    +0.000 C 
ATOM      3  C   UNL     1       2.197   4.313  20.654  0.00  0.00    +0.000 A 
ATOM      4  O   UNL     1       1.551   5.512  20.591  0.00  0.00    +0.000 OA
ATOM      5  C   UNL     1       2.391   6.329  19.883  0.00  0.00    +0.000 A 
ATOM      6  N   UNL     1       3.519   5.748  19.523  0.00  0.00    +0.000 NA
ATOM      7  C   UNL     1       3.403   4.447  19.994  0.00  0.00    +0.000 A 
BRANCH   5   8
ATOM      8  C   UNL     1       1.910   7.692  19.653  0.00  0.00    +0.000 A 
ATOM      9  C   UNL     1       2.055   8.319  18.403  0.00  0.00    +0.000 A 
ATOM     10  C   UNL     1       1.560   9.607  18.182  0.00  0.00    +0.000 A 
ATOM     11  C   UNL     1       0.917  10.289  19.211  0.00  0.00    +0.000 A 
ATOM     12  C   UNL     1       0.781   9.688  20.467  0.00  0.00    +0.000 A 
ATOM     13  C   UNL     1       1.278   8.402  20.684  0.00  0.00    +0.000 A 
ENDBRANCH   5   8
ENDBRANCH   1   7
BRANCH   1  14
ATOM     14  C   UNL     1       5.402   3.875  18.579  0.00  0.00    +0.000 C 
ATOM     15  O   UNL     1       6.562   4.197  18.833  0.00  0.00    +0.000 OA
ATOM     16  N   UNL     1       4.837   3.869  17.310  0.00  0.00    +0.000 N 
ATOM     17  H   UNL     1       3.830   3.987  17.273  0.00  0.00    +0.000 HD
BRANCH  16  18
ATOM     18  C   UNL     1       5.562   4.166  16.136  0.00  0.00    +0.000 A 
ATOM     19  C   UNL     1       6.563   5.147  16.213  0.00  0.00    +0.000 A 
ATOM     20  C   UNL     1       7.343   5.464  15.097  0.00  0.00    +0.000 A 
ATOM     21  C   UNL     1       7.071   4.830  13.896  0.00  0.00    +0.000 A 
ATOM     22  C   UNL     1       6.044   3.889  13.799  0.00  0.00    +0.000 A 
ATOM     23  C   UNL     1       5.290   3.537  14.912  0.00  0.00    +0.000 A 
ATOM     24  C   UNL     1       5.876   3.426  12.385  0.00  0.00    +0.000 C 
ATOM     25  C   UNL     1       7.183   3.901  11.731  0.00  0.00    +0.000 C 
ATOM     26  C   UNL     1       7.726   5.065  12.573  0.00  0.00    +0.000 C 
ENDBRANCH  16  18
ENDBRANCH   1  14
TORSDOF 4
ENDMDL
MODEL 5
REMARK VINA RESULT:      -8.4      3.928      6.516
REMARK  Name = 
REMARK  5 active torsions:
REMARK  status: ('A' for Active; 'I' for Inactive)
REMARK    1  A    between atoms: C_1  and  C_2
REMARK    2  A    between atoms: C_4  and  C_5
REMARK    3  A    between atoms: C_12  and  C_13
REMARK    4  A    between atoms: C_13  and  C_14
REMARK    5  A    between atoms: N_16  and  C_17
REMARK                            x       y       z     vdW  Elec       q    Type
REMARK                         _______ _______ _______ _____ _____    ______ ____
ROOT
ATOM      1  C   UNL     1       3.888   4.124  18.792  0.00  0.00    +0.000 C 
ENDROOT
BRANCH   1   7
ATOM      2  C   UNL     1       6.975   5.552  19.113  0.00  0.00    +0.000 C 
ATOM      3  C   UNL     1       6.224   4.963  17.990  0.00  0.00    +0.000 A 
ATOM      4  O   UNL     1       6.830   5.014  16.771  0.00  0.00    +0.000 OA
ATOM      5  C   UNL     1       5.937   4.439  15.907  0.00  0.00    +0.000 A 
ATOM      6  N   UNL     1       4.835   4.010  16.491  0.00  0.00    +0.000 NA
ATOM      7  C   UNL     1       4.994   4.355  17.826  0.00  0.00    +0.000 A 
BRANCH   5   8
ATOM      8  C   UNL     1       6.348   4.391  14.504  0.00  0.00    +0.000 A 
ATOM      9  C   UNL     1       7.413   5.174  14.024  0.00  0.00    +0.000 A 
ATOM     10  C   UNL     1       7.822   5.093  12.690  0.00  0.00    +0.000 A 
ATOM     11  C   UNL     1       7.167   4.232  11.814  0.00  0.00    +0.000 A 
ATOM     12  C   UNL     1       6.093   3.460  12.270  0.00  0.00    +0.000 A 
ATOM     13  C   UNL     1       5.687   3.544  13.602  0.00  0.00    +0.000 A 
ENDBRANCH   5   8
ENDBRANCH   1   7
BRANCH   1  14
ATOM     14  C   UNL     1       2.832   5.209  18.785  0.00  0.00    +0.000 C 
ATOM     15  O   UNL     1       1.844   5.126  18.056  0.00  0.00    +0.000 OA
ATOM     16  N   UNL     1       3.095   6.261  19.653  0.00  0.00    +0.000 N 
ATOM     17  H   UNL     1       4.073   6.419  19.874  0.00  0.00    +0.000 HD
BRANCH  16  18
ATOM     18  C   UNL     1       2.209   7.340  19.857  0.00  0.00    +0.000 A 
ATOM     19  C   UNL     1       1.476   7.369  21.053  0.00  0.00    +0.000 A 
ATOM     20  C   UNL     1       0.607   8.429  21.335  0.00  0.00    +0.000 A 
ATOM     21  C   UNL     1       0.442   9.421  20.385  0.00  0.00    +0.000 A 
ATOM     22  C   UNL     1       1.130   9.374  19.171  0.00  0.00    +0.000 A 
ATOM     23  C   UNL     1       2.026   8.347  18.898  0.00  0.00    +0.000 A 
ATOM     24  C   UNL     1       0.707  10.494  18.272  0.00  0.00    +0.000 C 
ATOM     25  C   UNL     1      -0.014  11.438  19.248  0.00  0.00    +0.000 C 
ATOM     26  C   UNL     1      -0.480  10.597  20.446  0.00  0.00    +0.000 C 
ENDBRANCH  16  18
ENDBRANCH   1  14
TORSDOF 4
ENDMDL
MODEL 6
REMARK VINA RESULT:      -8.4      4.007      6.480
REMARK  Name = 
REMARK  5 active torsions:
REMARK  status: ('A' for Active; 'I' for Inactive)
REMARK    1  A    between atoms: C_1  and  C_2
REMARK    2  A    between atoms: C_4  and  C_5
REMARK    3  A    between atoms: C_12  and  C_13
REMARK    4  A    between atoms: C_13  and  C_14
REMARK    5  A    between atoms: N_16  and  C_17
REMARK                            x       y       z     vdW  Elec       q    Type
REMARK                         _______ _______ _______ _____ _____    ______ ____
ROOT
ATOM      1  C   UNL     1       3.838   3.721  18.709  0.00  0.00    +0.000 C 
ENDROOT
BRANCH   1   7
ATOM      2  C   UNL     1       6.780   5.402  19.147  0.00  0.00    +0.000 C 
ATOM      3  C   UNL     1       6.115   4.772  17.993  0.00  0.00    +0.000 A 
ATOM      4  O   UNL     1       6.750   4.899  16.793  0.00  0.00    +0.000 OA
ATOM      5  C   UNL     1       5.935   4.266  15.893  0.00  0.00    +0.000 A 
ATOM      6  N   UNL     1       4.858   3.732  16.436  0.00  0.00    +0.000 NA
ATOM      7  C   UNL     1       4.948   4.064  17.781  0.00  0.00    +0.000 A 
BRANCH   5   8
ATOM      8  C   UNL     1       6.390   4.280  14.502  0.00  0.00    +0.000 A 
ATOM      9  C   UNL     1       5.839   3.412  13.543  0.00  0.00    +0.000 A 
ATOM     10  C   UNL     1       6.254   3.458  12.209  0.00  0.00    +0.000 A 
ATOM     11  C   UNL     1       7.230   4.370  11.816  0.00  0.00    +0.000 A 
ATOM     12  C   UNL     1       7.802   5.227  12.762  0.00  0.00    +0.000 A 
ATOM     13  C   UNL     1       7.387   5.177  14.093  0.00  0.00    +0.000 A 
ENDBRANCH   5   8
ENDBRANCH   1   7
BRANCH   1  14
ATOM     14  C   UNL     1       2.775   4.793  18.816  0.00  0.00    +0.000 C 
ATOM     15  O   UNL     1       1.615   4.571  18.471  0.00  0.00    +0.000 OA
ATOM     16  N   UNL     1       3.238   6.001  19.321  0.00  0.00    +0.000 N 
ATOM     17  H   UNL     1       4.225   6.190  19.183  0.00  0.00    +0.000 HD
BRANCH  16  18
ATOM     18  C   UNL     1       2.402   7.110  19.570  0.00  0.00    +0.000 A 
ATOM     19  C   UNL     1       1.728   7.160  20.801  0.00  0.00    +0.000 A 
ATOM     20  C   UNL     1       0.912   8.248  21.127  0.00  0.00    +0.000 A 
ATOM     21  C   UNL     1       0.737   9.251  20.189  0.00  0.00    +0.000 A 
ATOM     22  C   UNL     1       1.364   9.184  18.943  0.00  0.00    +0.000 A 
ATOM     23  C   UNL     1       2.209   8.128  18.624  0.00  0.00    +0.000 A 
ATOM     24  C   UNL     1       0.938  10.323  18.069  0.00  0.00    +0.000 C 
ATOM     25  C   UNL     1       0.299  11.287  19.081  0.00  0.00    +0.000 C 
ATOM     26  C   UNL     1      -0.138  10.458  20.298  0.00  0.00    +0.000 C 
ENDBRANCH  16  18
ENDBRANCH   1  14
TORSDOF 4
ENDMDL
MODEL 7
REMARK VINA RESULT:      -8.3      2.522      8.891
REMARK  Name = 
REMARK  5 active torsions:
REMARK  status: ('A' for Active; 'I' for Inactive)
REMARK    1  A    between atoms: C_1  and  C_2
REMARK    2  A    between atoms: C_4  and  C_5
REMARK    3  A    between atoms: C_12  and  C_13
REMARK    4  A    between atoms: C_13  and  C_14
REMARK    5  A    between atoms: N_16  and  C_17
REMARK                            x       y       z     vdW  Elec       q    Type
REMARK                         _______ _______ _______ _____ _____    ______ ____
ROOT
ATOM      1  C   UNL     1       7.930   6.837  18.484  0.00  0.00    +0.000 C 
ENDROOT
BRANCH   1   7
ATOM      2  C   UNL     1       4.691   5.750  18.508  0.00  0.00    +0.000 C 
ATOM      3  C   UNL     1       5.768   5.759  17.502  0.00  0.00    +0.000 A 
ATOM      4  O   UNL     1       5.476   5.172  16.307  0.00  0.00    +0.000 OA
ATOM      5  C   UNL     1       6.623   5.284  15.568  0.00  0.00    +0.000 A 
ATOM      6  N   UNL     1       7.597   5.916  16.194  0.00  0.00    +0.000 NA
ATOM      7  C   UNL     1       7.072   6.211  17.444  0.00  0.00    +0.000 A 
BRANCH   5   8
ATOM      8  C   UNL     1       6.578   4.701  14.227  0.00  0.00    +0.000 A 
ATOM      9  C   UNL     1       5.558   3.810  13.849  0.00  0.00    +0.000 A 
ATOM     10  C   UNL     1       5.502   3.287  12.555  0.00  0.00    +0.000 A 
ATOM     11  C   UNL     1       6.470   3.643  11.620  0.00  0.00    +0.000 A 
ATOM     12  C   UNL     1       7.504   4.512  11.984  0.00  0.00    +0.000 A 
ATOM     13  C   UNL     1       7.556   5.032  13.279  0.00  0.00    +0.000 A 
ENDBRANCH   5   8
ENDBRANCH   1   7
BRANCH   1  14
ATOM     14  C   UNL     1       8.150   8.322  18.286  0.00  0.00    +0.000 C 
ATOM     15  O   UNL     1       7.588   8.929  17.375  0.00  0.00    +0.000 OA
ATOM     16  N   UNL     1       9.022   8.893  19.204  0.00  0.00    +0.000 N 
ATOM     17  H   UNL     1       9.705   8.266  19.615  0.00  0.00    +0.000 HD
BRANCH  16  18
ATOM     18  C   UNL     1       9.311  10.274  19.245  0.00  0.00    +0.000 A 
ATOM     19  C   UNL     1       9.641  10.911  18.038  0.00  0.00    +0.000 A 
ATOM     20  C   UNL     1       9.904  12.284  18.002  0.00  0.00    +0.000 A 
ATOM     21  C   UNL     1       9.887  12.994  19.191  0.00  0.00    +0.000 A 
ATOM     22  C   UNL     1       9.609  12.358  20.402  0.00  0.00    +0.000 A 
ATOM     23  C   UNL     1       9.306  11.002  20.444  0.00  0.00    +0.000 A 
ATOM     24  C   UNL     1       9.754  13.308  21.550  0.00  0.00    +0.000 C 
ATOM     25  C   UNL     1       9.758  14.673  20.843  0.00  0.00    +0.000 C 
ATOM     26  C   UNL     1      10.205  14.441  19.392  0.00  0.00    +0.000 C 
ENDBRANCH  16  18
ENDBRANCH   1  14
TORSDOF 4
ENDMDL
MODEL 8
REMARK VINA RESULT:      -8.3      2.796      8.975
REMARK  Name = 
REMARK  5 active torsions:
REMARK  status: ('A' for Active; 'I' for Inactive)
REMARK    1  A    between atoms: C_1  and  C_2
REMARK    2  A    between atoms: C_4  and  C_5
REMARK    3  A    between atoms: C_12  and  C_13
REMARK    4  A    between atoms: C_13  and  C_14
REMARK    5  A    between atoms: N_16  and  C_17
REMARK                            x       y       z     vdW  Elec       q    Type
REMARK                         _______ _______ _______ _____ _____    ______ ____
ROOT
ATOM      1  C   UNL     1       7.815   6.941  18.285  0.00  0.00    +0.000 C 
ENDROOT
BRANCH   1   7
ATOM      2  C   UNL     1       4.430   6.584  17.989  0.00  0.00    +0.000 C 
ATOM      3  C   UNL     1       5.579   6.262  17.125  0.00  0.00    +0.000 A 
ATOM      4  O   UNL     1       5.289   5.637  15.949  0.00  0.00    +0.000 OA
ATOM      5  C   UNL     1       6.503   5.426  15.351  0.00  0.00    +0.000 A 
ATOM      6  N   UNL     1       7.523   5.892  16.045  0.00  0.00    +0.000 NA
ATOM      7  C   UNL     1       6.951   6.415  17.195  0.00  0.00    +0.000 A 
BRANCH   5   8
ATOM      8  C   UNL     1       6.467   4.737  14.061  0.00  0.00    +0.000 A 
ATOM      9  C   UNL     1       7.462   4.946  13.090  0.00  0.00    +0.000 A 
ATOM     10  C   UNL     1       7.439   4.256  11.876  0.00  0.00    +0.000 A 
ATOM     11  C   UNL     1       6.417   3.349  11.612  0.00  0.00    +0.000 A 
ATOM     12  C   UNL     1       5.407   3.143  12.558  0.00  0.00    +0.000 A 
ATOM     13  C   UNL     1       5.433   3.836  13.770  0.00  0.00    +0.000 A 
ENDBRANCH   5   8
ENDBRANCH   1   7
BRANCH   1  14
ATOM     14  C   UNL     1       8.088   8.427  18.187  0.00  0.00    +0.000 C 
ATOM     15  O   UNL     1       7.517   9.122  17.348  0.00  0.00    +0.000 OA
ATOM     16  N   UNL     1       9.017   8.894  19.108  0.00  0.00    +0.000 N 
ATOM     17  H   UNL     1       9.689   8.212  19.444  0.00  0.00    +0.000 HD
BRANCH  16  18
ATOM     18  C   UNL     1       9.365  10.255  19.239  0.00  0.00    +0.000 A 
ATOM     19  C   UNL     1       9.846  10.921  18.101  0.00  0.00    +0.000 A 
ATOM     20  C   UNL     1      10.175  12.280  18.151  0.00  0.00    +0.000 A 
ATOM     21  C   UNL     1      10.069  12.943  19.362  0.00  0.00    +0.000 A 
ATOM     22  C   UNL     1       9.639  12.275  20.510  0.00  0.00    +0.000 A 
ATOM     23  C   UNL     1       9.271  10.936  20.462  0.00  0.00    +0.000 A 
ATOM     24  C   UNL     1       9.711  13.171  21.708  0.00  0.00    +0.000 C 
ATOM     25  C   UNL     1       9.850  14.560  21.065  0.00  0.00    +0.000 C 
ATOM     26  C   UNL     1      10.433  14.363  19.658  0.00  0.00    +0.000 C 
ENDBRANCH  16  18
ENDBRANCH   1  14
TORSDOF 4
ENDMDL
MODEL 9
REMARK VINA RESULT:      -8.2      1.261      8.754
REMARK  Name = 
REMARK  5 active torsions:
REMARK  status: ('A' for Active; 'I' for Inactive)
REMARK    1  A    between atoms: C_1  and  C_2
REMARK    2  A    between atoms: C_4  and  C_5
REMARK    3  A    between atoms: C_12  and  C_13
REMARK    4  A    between atoms: C_13  and  C_14
REMARK    5  A    between atoms: N_16  and  C_17
REMARK                            x       y       z     vdW  Elec       q    Type
REMARK                         _______ _______ _______ _____ _____    ______ ____
ROOT
ATOM      1  C   UNL     1       7.840   6.252  18.178  0.00  0.00    +0.000 C 
ENDROOT
BRANCH   1   7
ATOM      2  C   UNL     1       6.205   5.449  15.288  0.00  0.00    +0.000 C 
ATOM      3  C   UNL     1       5.861   5.382  16.719  0.00  0.00    +0.000 A 
ATOM      4  O   UNL     1       4.602   4.953  17.013  0.00  0.00    +0.000 OA
ATOM      5  C   UNL     1       4.520   5.003  18.379  0.00  0.00    +0.000 A 
ATOM      6  N   UNL     1       5.634   5.402  18.962  0.00  0.00    +0.000 NA
ATOM      7  C   UNL     1       6.500   5.667  17.910  0.00  0.00    +0.000 A 
BRANCH   5   8
ATOM      8  C   UNL     1       3.236   4.606  18.956  0.00  0.00    +0.000 A 
ATOM      9  C   UNL     1       2.376   3.716  18.289  0.00  0.00    +0.000 A 
ATOM     10  C   UNL     1       1.168   3.314  18.865  0.00  0.00    +0.000 A 
ATOM     11  C   UNL     1       0.800   3.801  20.116  0.00  0.00    +0.000 A 
ATOM     12  C   UNL     1       1.634   4.702  20.786  0.00  0.00    +0.000 A 
ATOM     13  C   UNL     1       2.839   5.102  20.206  0.00  0.00    +0.000 A 
ENDBRANCH   5   8
ENDBRANCH   1   7
BRANCH   1  14
ATOM     14  C   UNL     1       7.886   7.760  18.060  0.00  0.00    +0.000 C 
ATOM     15  O   UNL     1       7.150   8.357  17.276  0.00  0.00    +0.000 OA
ATOM     16  N   UNL     1       8.816   8.366  18.896  0.00  0.00    +0.000 N 
ATOM     17  H   UNL     1       9.606   7.791  19.170  0.00  0.00    +0.000 HD
BRANCH  16  18
ATOM     18  C   UNL     1       8.973   9.764  18.999  0.00  0.00    +0.000 A 
ATOM     19  C   UNL     1       8.847  10.526  17.826  0.00  0.00    +0.000 A 
ATOM     20  C   UNL     1       8.955  11.920  17.863  0.00  0.00    +0.000 A 
ATOM     21  C   UNL     1       9.246  12.531  19.071  0.00  0.00    +0.000 A 
ATOM     22  C   UNL     1       9.423  11.776  20.232  0.00  0.00    +0.000 A 
ATOM     23  C   UNL     1       9.277  10.394  20.215  0.00  0.00    +0.000 A 
ATOM     24  C   UNL     1       9.832  12.648  21.378  0.00  0.00    +0.000 C 
ATOM     25  C   UNL     1       9.486  14.052  20.858  0.00  0.00    +0.000 C 
ATOM     26  C   UNL     1       9.475  13.987  19.323  0.00  0.00    +0.000 C 
ENDBRANCH  16  18
ENDBRANCH   1  14
TORSDOF 4
ENDMDL
