MODEL 1
REMARK VINA RESULT:      -9.1      0.000      0.000
REMARK  Name = 
REMARK  5 active torsions:
REMARK  status: ('A' for Active; 'I' for Inactive)
REMARK    1  A    between atoms: C_1  and  C_2
REMARK    2  A    between atoms: C_6  and  N_7
REMARK    3  A    between atoms: C_9  and  C_10
REMARK    4  A    between atoms: N_12  and  C_13
REMARK    5  A    between atoms: C_18  and  C_20
REMARK                            x       y       z     vdW  Elec       q    Type
REMARK                         _______ _______ _______ _____ _____    ______ ____
ROOT
ATOM      1  C   UNL     1       3.673   6.149  18.523  0.00  0.00    +0.000 C 
ATOM      2  O   UNL     1       3.731   5.903  19.723  0.00  0.00    +0.000 OA
ATOM      3  N   UNL     1       2.935   7.163  17.934  0.00  0.00    +0.000 N 
ATOM      4  H   UNL     1       2.867   7.146  16.920  0.00  0.00    +0.000 HD
ENDROOT
BRANCH   3   5
ATOM      5  C   UNL     1       2.155   8.103  18.645  0.00  0.00    +0.000 A 
ATOM      6  C   UNL     1       1.699   9.280  18.072  0.00  0.00    +0.000 A 
ATOM      7  C   UNL     1       0.999  10.216  18.835  0.00  0.00    +0.000 A 
ATOM      8  C   UNL     1       0.727   9.936  20.167  0.00  0.00    +0.000 A 
ATOM      9  N   UNL     1       0.000  10.900  20.881  0.00  0.00    +0.000 N 
ATOM     10  C   UNL     1      -0.374  10.795  22.208  0.00  0.00    +0.000 C 
ATOM     11  O   UNL     1      -0.122   9.870  22.971  0.00  0.00    +0.000 OA
ATOM     12  N   UNL     1       1.123   8.781  20.734  0.00  0.00    +0.000 NA
ATOM     13  C   UNL     1       1.816   7.892  19.975  0.00  0.00    +0.000 A 
ATOM     14  H   UNL     1      -0.332  11.688  20.350  0.00  0.00    +0.000 HD
BRANCH  10  15
ATOM     15  C   UNL     1      -1.203  11.920  22.741  0.00  0.00    +0.000 A 
ATOM     16  C   UNL     1      -2.434  11.610  23.337  0.00  0.00    +0.000 A 
ATOM     17  C   UNL     1      -3.262  12.624  23.825  0.00  0.00    +0.000 A 
ATOM     18  C   UNL     1      -2.854  13.953  23.739  0.00  0.00    +0.000 A 
ATOM     19  C   UNL     1      -1.613  14.267  23.186  0.00  0.00    +0.000 A 
ATOM     20  C   UNL     1      -0.784  13.256  22.688  0.00  0.00    +0.000 A 
ENDBRANCH  10  15
ENDBRANCH   3   5
BRANCH   1  23
ATOM     21  N   UNL     1       5.418   4.579  15.801  0.00  0.00    +0.000 N 
ATOM     22  C   UNL     1       4.799   5.685  16.316  0.00  0.00    +0.000 A 
ATOM     23  C   UNL     1       4.390   5.311  17.578  0.00  0.00    +0.000 A 
ATOM     24  N   UNL     1       4.760   4.017  17.806  0.00  0.00    +0.000 NA
ATOM     25  N   UNL     1       5.376   3.574  16.718  0.00  0.00    +0.000 NA
BRANCH  21  31
ATOM     26  C   UNL     1       5.266   2.506  11.328  0.00  0.00    +0.000 C 
ATOM     27  C   UNL     1       5.959   3.392  12.321  0.00  0.00    +0.000 A 
ATOM     28  C   UNL     1       7.108   4.110  11.972  0.00  0.00    +0.000 A 
ATOM     29  C   UNL     1       7.711   4.967  12.894  0.00  0.00    +0.000 A 
ATOM     30  C   UNL     1       7.163   5.131  14.167  0.00  0.00    +0.000 A 
ATOM     31  C   UNL     1       6.013   4.415  14.528  0.00  0.00    +0.000 A 
ATOM     32  C   UNL     1       5.426   3.534  13.607  0.00  0.00    +0.000 A 
ENDBRANCH  21  31
ENDBRANCH   1  23
TORSDOF 4
ENDMDL
MODEL 2
REMARK VINA RESULT:      -9.1      0.684      1.120
REMARK  Name = 
REMARK  5 active torsions:
REMARK  status: ('A' for Active; 'I' for Inactive)
REMARK    1  A    between atoms: C_1  and  C_2
REMARK    2  A    between atoms: C_6  and  N_7
REMARK    3  A    between atoms: C_9  and  C_10
REMARK    4  A    between atoms: N_12  and  C_13
REMARK    5  A    between atoms: C_18  and  C_20
REMARK                            x       y       z     vdW  Elec       q    Type
REMARK                         _______ _______ _______ _____ _____    ______ ____
ROOT
ATOM      1  C   UNL     1       2.926   6.038  18.922  0.00  0.00    +0.000 C 
ATOM      2  O   UNL     1       2.455   5.523  19.931  0.00  0.00    +0.000 OA
ATOM      3  N   UNL     1       2.684   7.328  18.477  0.00  0.00    +0.000 N 
ATOM      4  H   UNL     1       3.023   7.559  17.547  0.00  0.00    +0.000 HD
ENDROOT
BRANCH   3   5
ATOM      5  C   UNL     1       1.873   8.270  19.152  0.00  0.00    +0.000 A 
ATOM      6  C   UNL     1       1.280   9.343  18.505  0.00  0.00    +0.000 A 
ATOM      7  C   UNL     1       0.553  10.292  19.225  0.00  0.00    +0.000 A 
ATOM      8  C   UNL     1       0.394  10.125  20.595  0.00  0.00    +0.000 A 
ATOM      9  N   UNL     1      -0.365  11.095  21.266  0.00  0.00    +0.000 N 
ATOM     10  C   UNL     1      -0.641  11.094  22.620  0.00  0.00    +0.000 C 
ATOM     11  O   UNL     1      -0.261  10.273  23.447  0.00  0.00    +0.000 OA
ATOM     12  N   UNL     1       0.925   9.069  21.238  0.00  0.00    +0.000 NA
ATOM     13  C   UNL     1       1.642   8.166  20.516  0.00  0.00    +0.000 A 
ATOM     14  H   UNL     1      -0.799  11.797  20.688  0.00  0.00    +0.000 HD
BRANCH  10  15
ATOM     15  C   UNL     1      -1.528  12.197  23.104  0.00  0.00    +0.000 A 
ATOM     16  C   UNL     1      -1.013  13.502  23.116  0.00  0.00    +0.000 A 
ATOM     17  C   UNL     1      -1.787  14.566  23.588  0.00  0.00    +0.000 A 
ATOM     18  C   UNL     1      -3.088  14.334  24.027  0.00  0.00    +0.000 A 
ATOM     19  C   UNL     1      -3.623  13.047  23.979  0.00  0.00    +0.000 A 
ATOM     20  C   UNL     1      -2.848  11.977  23.517  0.00  0.00    +0.000 A 
ENDBRANCH  10  15
ENDBRANCH   3   5
BRANCH   1  23
ATOM     21  N   UNL     1       5.042   4.624  16.385  0.00  0.00    +0.000 N 
ATOM     22  C   UNL     1       4.299   5.679  16.839  0.00  0.00    +0.000 A 
ATOM     23  C   UNL     1       3.791   5.263  18.051  0.00  0.00    +0.000 A 
ATOM     24  N   UNL     1       4.226   3.994  18.310  0.00  0.00    +0.000 NA
ATOM     25  N   UNL     1       4.978   3.608  17.288  0.00  0.00    +0.000 NA
BRANCH  21  31
ATOM     26  C   UNL     1       5.305   2.898  11.772  0.00  0.00    +0.000 C 
ATOM     27  C   UNL     1       5.924   3.663  12.904  0.00  0.00    +0.000 A 
ATOM     28  C   UNL     1       7.143   4.330  12.747  0.00  0.00    +0.000 A 
ATOM     29  C   UNL     1       7.680   5.078  13.796  0.00  0.00    +0.000 A 
ATOM     30  C   UNL     1       6.996   5.182  15.008  0.00  0.00    +0.000 A 
ATOM     31  C   UNL     1       5.773   4.516  15.178  0.00  0.00    +0.000 A 
ATOM     32  C   UNL     1       5.252   3.744  14.130  0.00  0.00    +0.000 A 
ENDBRANCH  21  31
ENDBRANCH   1  23
TORSDOF 4
ENDMDL
MODEL 3
REMARK VINA RESULT:      -8.8      2.402     12.234
REMARK  Name = 
REMARK  5 active torsions:
REMARK  status: ('A' for Active; 'I' for Inactive)
REMARK    1  A    between atoms: C_1  and  C_2
REMARK    2  A    between atoms: C_6  and  N_7
REMARK    3  A    between atoms: C_9  and  C_10
REMARK    4  A    between atoms: N_12  and  C_13
REMARK    5  A    between atoms: C_18  and  C_20
REMARK                            x       y       z     vdW  Elec       q    Type
REMARK                         _______ _______ _______ _____ _____    ______ ____
ROOT
ATOM      1  C   UNL     1      -0.064  11.809  21.438  0.00  0.00    +0.000 C 
ATOM      2  O   UNL     1       1.040  12.344  21.444  0.00  0.00    +0.000 OA
ATOM      3  N   UNL     1      -0.397  10.637  20.779  0.00  0.00    +0.000 N 
ATOM      4  H   UNL     1      -1.385  10.402  20.742  0.00  0.00    +0.000 HD
ENDROOT
BRANCH   3   5
ATOM      5  C   UNL     1       0.511   9.852  20.032  0.00  0.00    +0.000 A 
ATOM      6  C   UNL     1       0.803  10.111  18.702  0.00  0.00    +0.000 A 
ATOM      7  C   UNL     1       1.645   9.262  17.982  0.00  0.00    +0.000 A 
ATOM      8  C   UNL     1       2.223   8.176  18.627  0.00  0.00    +0.000 A 
ATOM      9  N   UNL     1       3.079   7.369  17.863  0.00  0.00    +0.000 N 
ATOM     10  C   UNL     1       3.751   6.256  18.330  0.00  0.00    +0.000 C 
ATOM     11  O   UNL     1       3.698   5.786  19.461  0.00  0.00    +0.000 OA
ATOM     12  N   UNL     1       1.987   7.929  19.929  0.00  0.00    +0.000 NA
ATOM     13  C   UNL     1       1.151   8.761  20.604  0.00  0.00    +0.000 A 
ATOM     14  H   UNL     1       3.267   7.685  16.925  0.00  0.00    +0.000 HD
BRANCH  10  15
ATOM     15  C   UNL     1       4.662   5.588  17.350  0.00  0.00    +0.000 A 
ATOM     16  C   UNL     1       4.309   4.314  16.881  0.00  0.00    +0.000 A 
ATOM     17  C   UNL     1       5.140   3.630  15.988  0.00  0.00    +0.000 A 
ATOM     18  C   UNL     1       6.316   4.227  15.542  0.00  0.00    +0.000 A 
ATOM     19  C   UNL     1       6.654   5.511  15.970  0.00  0.00    +0.000 A 
ATOM     20  C   UNL     1       5.830   6.195  16.871  0.00  0.00    +0.000 A 
ENDBRANCH  10  15
ENDBRANCH   3   5
BRANCH   1  23
ATOM     21  N   UNL     1      -3.165  13.126  22.690  0.00  0.00    +0.000 N 
ATOM     22  C   UNL     1      -2.494  12.404  21.741  0.00  0.00    +0.000 A 
ATOM     23  C   UNL     1      -1.174  12.434  22.135  0.00  0.00    +0.000 A 
ATOM     24  N   UNL     1      -1.065  13.154  23.290  0.00  0.00    +0.000 NA
ATOM     25  N   UNL     1      -2.278  13.580  23.617  0.00  0.00    +0.000 NA
BRANCH  21  31
ATOM     26  C   UNL     1      -7.750  12.133  21.169  0.00  0.00    +0.000 C 
ATOM     27  C   UNL     1      -6.815  12.947  22.013  0.00  0.00    +0.000 A 
ATOM     28  C   UNL     1      -7.298  13.903  22.914  0.00  0.00    +0.000 A 
ATOM     29  C   UNL     1      -6.416  14.617  23.727  0.00  0.00    +0.000 A 
ATOM     30  C   UNL     1      -5.043  14.371  23.661  0.00  0.00    +0.000 A 
ATOM     31  C   UNL     1      -4.548  13.417  22.761  0.00  0.00    +0.000 A 
ATOM     32  C   UNL     1      -5.436  12.722  21.927  0.00  0.00    +0.000 A 
ENDBRANCH  21  31
ENDBRANCH   1  23
TORSDOF 4
ENDMDL
MODEL 4
REMARK VINA RESULT:      -8.8      2.256     12.431
REMARK  Name = 
REMARK  5 active torsions:
REMARK  status: ('A' for Active; 'I' for Inactive)
REMARK    1  A    between atoms: C_1  and  C_2
REMARK    2  A    between atoms: C_6  and  N_7
REMARK    3  A    between atoms: C_9  and  C_10
REMARK    4  A    between atoms: N_12  and  C_13
REMARK    5  A    between atoms: C_18  and  C_20
REMARK                            x       y       z     vdW  Elec       q    Type
REMARK                         _______ _______ _______ _____ _____    ______ ____
ROOT
ATOM      1  C   UNL     1       0.195  12.185  21.481  0.00  0.00    +0.000 C 
ATOM      2  O   UNL     1       1.303  12.693  21.341  0.00  0.00    +0.000 OA
ATOM      3  N   UNL     1      -0.228  10.990  20.924  0.00  0.00    +0.000 N 
ATOM      4  H   UNL     1      -1.219  10.777  21.005  0.00  0.00    +0.000 HD
ENDROOT
BRANCH   3   5
ATOM      5  C   UNL     1       0.579  10.146  20.129  0.00  0.00    +0.000 A 
ATOM      6  C   UNL     1       0.847  10.410  18.794  0.00  0.00    +0.000 A 
ATOM      7  C   UNL     1       1.584   9.507  18.026  0.00  0.00    +0.000 A 
ATOM      8  C   UNL     1       2.085   8.359  18.627  0.00  0.00    +0.000 A 
ATOM      9  N   UNL     1       2.839   7.499  17.815  0.00  0.00    +0.000 N 
ATOM     10  C   UNL     1       3.426   6.319  18.234  0.00  0.00    +0.000 C 
ATOM     11  O   UNL     1       3.370   5.829  19.356  0.00  0.00    +0.000 OA
ATOM     12  N   UNL     1       1.874   8.103  19.931  0.00  0.00    +0.000 NA
ATOM     13  C   UNL     1       1.140   8.990  20.654  0.00  0.00    +0.000 A 
ATOM     14  H   UNL     1       3.021   7.818  16.878  0.00  0.00    +0.000 HD
BRANCH  10  15
ATOM     15  C   UNL     1       4.239   5.597  17.208  0.00  0.00    +0.000 A 
ATOM     16  C   UNL     1       4.917   6.359  16.245  0.00  0.00    +0.000 A 
ATOM     17  C   UNL     1       5.667   5.735  15.244  0.00  0.00    +0.000 A 
ATOM     18  C   UNL     1       5.760   4.345  15.214  0.00  0.00    +0.000 A 
ATOM     19  C   UNL     1       5.124   3.582  16.192  0.00  0.00    +0.000 A 
ATOM     20  C   UNL     1       4.365   4.202  17.191  0.00  0.00    +0.000 A 
ENDBRANCH  10  15
ENDBRANCH   3   5
BRANCH   1  23
ATOM     21  N   UNL     1      -2.717  13.703  22.942  0.00  0.00    +0.000 N 
ATOM     22  C   UNL     1      -2.158  12.965  21.934  0.00  0.00    +0.000 A 
ATOM     23  C   UNL     1      -0.822  12.872  22.258  0.00  0.00    +0.000 A 
ATOM     24  N   UNL     1      -0.595  13.535  23.430  0.00  0.00    +0.000 NA
ATOM     25  N   UNL     1      -1.750  14.046  23.836  0.00  0.00    +0.000 NA
BRANCH  21  31
ATOM     26  C   UNL     1      -7.402  12.435  23.818  0.00  0.00    +0.000 C 
ATOM     27  C   UNL     1      -6.383  13.493  23.516  0.00  0.00    +0.000 A 
ATOM     28  C   UNL     1      -6.734  14.848  23.481  0.00  0.00    +0.000 A 
ATOM     29  C   UNL     1      -5.763  15.823  23.248  0.00  0.00    +0.000 A 
ATOM     30  C   UNL     1      -4.428  15.457  23.065  0.00  0.00    +0.000 A 
ATOM     31  C   UNL     1      -4.065  14.104  23.097  0.00  0.00    +0.000 A 
ATOM     32  C   UNL     1      -5.050  13.126  23.304  0.00  0.00    +0.000 A 
ENDBRANCH  21  31
ENDBRANCH   1  23
TORSDOF 4
ENDMDL
MODEL 5
REMARK VINA RESULT:      -8.8      1.444      1.680
REMARK  Name = 
REMARK  5 active torsions:
REMARK  status: ('A' for Active; 'I' for Inactive)
REMARK    1  A    between atoms: C_1  and  C_2
REMARK    2  A    between atoms: C_6  and  N_7
REMARK    3  A    between atoms: C_9  and  C_10
REMARK    4  A    between atoms: N_12  and  C_13
REMARK    5  A    between atoms: C_18  and  C_20
REMARK                            x       y       z     vdW  Elec       q    Type
REMARK                         _______ _______ _______ _____ _____    ______ ____
ROOT
ATOM      1  C   UNL     1       3.878   6.090  18.535  0.00  0.00    +0.000 C 
ATOM      2  O   UNL     1       3.627   5.573  19.619  0.00  0.00    +0.000 OA
ATOM      3  N   UNL     1       3.315   7.255  18.040  0.00  0.00    +0.000 N 
ATOM      4  H   UNL     1       3.508   7.474  17.066  0.00  0.00    +0.000 HD
ENDROOT
BRANCH   3   5
ATOM      5  C   UNL     1       2.381   8.054  18.738  0.00  0.00    +0.000 A 
ATOM      6  C   UNL     1       1.986   7.777  20.038  0.00  0.00    +0.000 A 
ATOM      7  C   UNL     1       1.002   8.547  20.660  0.00  0.00    +0.000 A 
ATOM      8  C   UNL     1       0.452   9.622  19.976  0.00  0.00    +0.000 A 
ATOM      9  N   UNL     1      -0.516  10.376  20.656  0.00  0.00    +0.000 N 
ATOM     10  C   UNL     1      -1.166  11.484  20.147  0.00  0.00    +0.000 C 
ATOM     11  O   UNL     1      -1.023  11.972  19.031  0.00  0.00    +0.000 OA
ATOM     12  N   UNL     1       0.849   9.936  18.729  0.00  0.00    +0.000 NA
ATOM     13  C   UNL     1       1.798   9.162  18.139  0.00  0.00    +0.000 A 
ATOM     14  H   UNL     1      -0.682  10.123  21.616  0.00  0.00    +0.000 HD
BRANCH  10  15
ATOM     15  C   UNL     1      -2.113  12.169  21.079  0.00  0.00    +0.000 A 
ATOM     16  C   UNL     1      -3.169  12.908  20.525  0.00  0.00    +0.000 A 
ATOM     17  C   UNL     1      -4.066  13.593  21.349  0.00  0.00    +0.000 A 
ATOM     18  C   UNL     1      -3.925  13.525  22.733  0.00  0.00    +0.000 A 
ATOM     19  C   UNL     1      -2.904  12.758  23.294  0.00  0.00    +0.000 A 
ATOM     20  C   UNL     1      -1.998  12.078  22.472  0.00  0.00    +0.000 A 
ENDBRANCH  10  15
ENDBRANCH   3   5
BRANCH   1  23
ATOM     21  N   UNL     1       5.866   4.806  15.832  0.00  0.00    +0.000 N 
ATOM     22  C   UNL     1       4.836   5.598  16.257  0.00  0.00    +0.000 A 
ATOM     23  C   UNL     1       4.811   5.448  17.626  0.00  0.00    +0.000 A 
ATOM     24  N   UNL     1       5.804   4.591  18.004  0.00  0.00    +0.000 NA
ATOM     25  N   UNL     1       6.437   4.196  16.906  0.00  0.00    +0.000 NA
BRANCH  21  31
ATOM     26  C   UNL     1       5.260   2.504  11.512  0.00  0.00    +0.000 C 
ATOM     27  C   UNL     1       6.042   3.449  12.376  0.00  0.00    +0.000 A 
ATOM     28  C   UNL     1       7.132   4.162  11.866  0.00  0.00    +0.000 A 
ATOM     29  C   UNL     1       7.817   5.074  12.671  0.00  0.00    +0.000 A 
ATOM     30  C   UNL     1       7.410   5.296  13.987  0.00  0.00    +0.000 A 
ATOM     31  C   UNL     1       6.320   4.585  14.509  0.00  0.00    +0.000 A 
ATOM     32  C   UNL     1       5.652   3.650  13.705  0.00  0.00    +0.000 A 
ENDBRANCH  21  31
ENDBRANCH   1  23
TORSDOF 4
ENDMDL
MODEL 6
REMARK VINA RESULT:      -8.8      2.363     12.325
REMARK  Name = 
REMARK  5 active torsions:
REMARK  status: ('A' for Active; 'I' for Inactive)
REMARK    1  A    between atoms: C_1  and  C_2
REMARK    2  A    between atoms: C_6  and  N_7
REMARK    3  A    between atoms: C_9  and  C_10
REMARK    4  A    between atoms: N_12  and  C_13
REMARK    5  A    between atoms: C_18  and  C_20
REMARK                            x       y       z     vdW  Elec       q    Type
REMARK                         _______ _______ _______ _____ _____    ______ ____
ROOT
ATOM      1  C   UNL     1       0.008  11.370  21.315  0.00  0.00    +0.000 C 
ATOM      2  O   UNL     1       1.109  11.902  21.413  0.00  0.00    +0.000 OA
ATOM      3  N   UNL     1      -0.279  10.217  20.602  0.00  0.00    +0.000 N 
ATOM      4  H   UNL     1      -1.262   9.986  20.489  0.00  0.00    +0.000 HD
ENDROOT
BRANCH   3   5
ATOM      5  C   UNL     1       0.679   9.449  19.902  0.00  0.00    +0.000 A 
ATOM      6  C   UNL     1       1.013   9.698  18.580  0.00  0.00    +0.000 A 
ATOM      7  C   UNL     1       1.906   8.864  17.905  0.00  0.00    +0.000 A 
ATOM      8  C   UNL     1       2.491   7.805  18.587  0.00  0.00    +0.000 A 
ATOM      9  N   UNL     1       3.398   7.013  17.868  0.00  0.00    +0.000 N 
ATOM     10  C   UNL     1       4.084   5.927  18.376  0.00  0.00    +0.000 C 
ATOM     11  O   UNL     1       4.002   5.471  19.511  0.00  0.00    +0.000 OA
ATOM     12  N   UNL     1       2.213   7.569  19.883  0.00  0.00    +0.000 NA
ATOM     13  C   UNL     1       1.329   8.386  20.514  0.00  0.00    +0.000 A 
ATOM     14  H   UNL     1       3.612   7.321  16.933  0.00  0.00    +0.000 HD
BRANCH  10  15
ATOM     15  C   UNL     1       5.050   5.272  17.441  0.00  0.00    +0.000 A 
ATOM     16  C   UNL     1       6.391   5.169  17.841  0.00  0.00    +0.000 A 
ATOM     17  C   UNL     1       7.343   4.594  16.993  0.00  0.00    +0.000 A 
ATOM     18  C   UNL     1       6.954   4.099  15.751  0.00  0.00    +0.000 A 
ATOM     19  C   UNL     1       5.617   4.159  15.363  0.00  0.00    +0.000 A 
ATOM     20  C   UNL     1       4.662   4.743  16.204  0.00  0.00    +0.000 A 
ENDBRANCH  10  15
ENDBRANCH   3   5
BRANCH   1  23
ATOM     21  N   UNL     1      -3.119  12.839  22.305  0.00  0.00    +0.000 N 
ATOM     22  C   UNL     1      -2.345  12.274  21.329  0.00  0.00    +0.000 A 
ATOM     23  C   UNL     1      -1.148  11.981  21.947  0.00  0.00    +0.000 A 
ATOM     24  N   UNL     1      -1.213  12.359  23.257  0.00  0.00    +0.000 NA
ATOM     25  N   UNL     1      -2.411  12.890  23.466  0.00  0.00    +0.000 NA
BRANCH  21  31
ATOM     26  C   UNL     1      -6.406  16.315  23.505  0.00  0.00    +0.000 C 
ATOM     27  C   UNL     1      -6.078  15.034  22.797  0.00  0.00    +0.000 A 
ATOM     28  C   UNL     1      -7.020  14.394  21.985  0.00  0.00    +0.000 A 
ATOM     29  C   UNL     1      -6.681  13.229  21.294  0.00  0.00    +0.000 A 
ATOM     30  C   UNL     1      -5.393  12.702  21.392  0.00  0.00    +0.000 A 
ATOM     31  C   UNL     1      -4.441  13.334  22.205  0.00  0.00    +0.000 A 
ATOM     32  C   UNL     1      -4.795  14.489  22.918  0.00  0.00    +0.000 A 
ENDBRANCH  21  31
ENDBRANCH   1  23
TORSDOF 4
ENDMDL
MODEL 7
REMARK VINA RESULT:      -8.7      1.491      2.337
REMARK  Name = 
REMARK  5 active torsions:
REMARK  status: ('A' for Active; 'I' for Inactive)
REMARK    1  A    between atoms: C_1  and  C_2
REMARK    2  A    between atoms: C_6  and  N_7
REMARK    3  A    between atoms: C_9  and  C_10
REMARK    4  A    between atoms: N_12  and  C_13
REMARK    5  A    between atoms: C_18  and  C_20
REMARK                            x       y       z     vdW  Elec       q    Type
REMARK                         _______ _______ _______ _____ _____    ______ ____
ROOT
ATOM      1  C   UNL     1       2.161   6.095  19.863  0.00  0.00    +0.000 C 
ATOM      2  O   UNL     1       1.447   5.523  20.680  0.00  0.00    +0.000 OA
ATOM      3  N   UNL     1       2.240   7.464  19.668  0.00  0.00    +0.000 N 
ATOM      4  H   UNL     1       2.761   7.778  18.853  0.00  0.00    +0.000 HD
ENDROOT
BRANCH   3   5
ATOM      5  C   UNL     1       1.525   8.423  20.420  0.00  0.00    +0.000 A 
ATOM      6  C   UNL     1       1.520   8.432  21.807  0.00  0.00    +0.000 A 
ATOM      7  C   UNL     1       0.736   9.349  22.508  0.00  0.00    +0.000 A 
ATOM      8  C   UNL     1      -0.008  10.284  21.800  0.00  0.00    +0.000 A 
ATOM      9  N   UNL     1      -0.759  11.197  22.554  0.00  0.00    +0.000 N 
ATOM     10  C   UNL     1      -1.550  12.202  22.031  0.00  0.00    +0.000 C 
ATOM     11  O   UNL     1      -1.738  12.447  20.845  0.00  0.00    +0.000 OA
ATOM     12  N   UNL     1       0.014  10.322  20.454  0.00  0.00    +0.000 NA
ATOM     13  C   UNL     1       0.774   9.408  19.794  0.00  0.00    +0.000 A 
ATOM     14  H   UNL     1      -0.641  11.150  23.553  0.00  0.00    +0.000 HD
BRANCH  10  15
ATOM     15  C   UNL     1      -2.209  13.098  23.030  0.00  0.00    +0.000 A 
ATOM     16  C   UNL     1      -1.424  14.072  23.666  0.00  0.00    +0.000 A 
ATOM     17  C   UNL     1      -1.981  14.915  24.631  0.00  0.00    +0.000 A 
ATOM     18  C   UNL     1      -3.333  14.805  24.949  0.00  0.00    +0.000 A 
ATOM     19  C   UNL     1      -4.131  13.870  24.292  0.00  0.00    +0.000 A 
ATOM     20  C   UNL     1      -3.575  13.016  23.332  0.00  0.00    +0.000 A 
ENDBRANCH  10  15
ENDBRANCH   3   5
BRANCH   1  23
ATOM     21  N   UNL     1       4.409   4.735  17.410  0.00  0.00    +0.000 N 
ATOM     22  C   UNL     1       3.860   5.830  18.020  0.00  0.00    +0.000 A 
ATOM     23  C   UNL     1       2.993   5.318  18.960  0.00  0.00    +0.000 A 
ATOM     24  N   UNL     1       3.030   3.954  18.912  0.00  0.00    +0.000 NA
ATOM     25  N   UNL     1       3.886   3.606  17.961  0.00  0.00    +0.000 NA
BRANCH  21  31
ATOM     26  C   UNL     1       5.445   3.582  12.728  0.00  0.00    +0.000 C 
ATOM     27  C   UNL     1       5.888   4.121  14.056  0.00  0.00    +0.000 A 
ATOM     28  C   UNL     1       7.170   4.654  14.230  0.00  0.00    +0.000 A 
ATOM     29  C   UNL     1       7.548   5.196  15.460  0.00  0.00    +0.000 A 
ATOM     30  C   UNL     1       6.644   5.227  16.523  0.00  0.00    +0.000 A 
ATOM     31  C   UNL     1       5.357   4.694  16.360  0.00  0.00    +0.000 A 
ATOM     32  C   UNL     1       4.992   4.126  15.131  0.00  0.00    +0.000 A 
ENDBRANCH  21  31
ENDBRANCH   1  23
TORSDOF 4
ENDMDL
MODEL 8
REMARK VINA RESULT:      -8.7      2.339     12.750
REMARK  Name = 
REMARK  5 active torsions:
REMARK  status: ('A' for Active; 'I' for Inactive)
REMARK    1  A    between atoms: C_1  and  C_2
REMARK    2  A    between atoms: C_6  and  N_7
REMARK    3  A    between atoms: C_9  and  C_10
REMARK    4  A    between atoms: N_12  and  C_13
REMARK    5  A    between atoms: C_18  and  C_20
REMARK                            x       y       z     vdW  Elec       q    Type
REMARK                         _______ _______ _______ _____ _____    ______ ____
ROOT
ATOM      1  C   UNL     1      -0.767  11.153  22.548  0.00  0.00    +0.000 C 
ATOM      2  O   UNL     1      -0.079  10.454  23.285  0.00  0.00    +0.000 OA
ATOM      3  N   UNL     1      -0.716  11.172  21.163  0.00  0.00    +0.000 N 
ATOM      4  H   UNL     1      -1.238  11.911  20.700  0.00  0.00    +0.000 HD
ENDROOT
BRANCH   3   5
ATOM      5  C   UNL     1       0.124  10.348  20.381  0.00  0.00    +0.000 A 
ATOM      6  C   UNL     1       0.409  10.622  19.051  0.00  0.00    +0.000 A 
ATOM      7  C   UNL     1       1.180   9.738  18.295  0.00  0.00    +0.000 A 
ATOM      8  C   UNL     1       1.698   8.601  18.902  0.00  0.00    +0.000 A 
ATOM      9  N   UNL     1       2.485   7.760  18.102  0.00  0.00    +0.000 N 
ATOM     10  C   UNL     1       3.092   6.594  18.529  0.00  0.00    +0.000 C 
ATOM     11  O   UNL     1       3.029   6.100  19.649  0.00  0.00    +0.000 OA
ATOM     12  N   UNL     1       1.470   8.337  20.202  0.00  0.00    +0.000 NA
ATOM     13  C   UNL     1       0.703   9.205  20.913  0.00  0.00    +0.000 A 
ATOM     14  H   UNL     1       2.676   8.086  17.169  0.00  0.00    +0.000 HD
BRANCH  10  15
ATOM     15  C   UNL     1       3.939   5.893  17.515  0.00  0.00    +0.000 A 
ATOM     16  C   UNL     1       4.646   6.675  16.589  0.00  0.00    +0.000 A 
ATOM     17  C   UNL     1       5.428   6.071  15.601  0.00  0.00    +0.000 A 
ATOM     18  C   UNL     1       5.527   4.683  15.548  0.00  0.00    +0.000 A 
ATOM     19  C   UNL     1       4.863   3.900  16.491  0.00  0.00    +0.000 A 
ATOM     20  C   UNL     1       4.070   4.499  17.476  0.00  0.00    +0.000 A 
ENDBRANCH  10  15
ENDBRANCH   3   5
BRANCH   1  23
ATOM     21  N   UNL     1      -2.621  13.895  23.946  0.00  0.00    +0.000 N 
ATOM     22  C   UNL     1      -1.450  13.412  23.430  0.00  0.00    +0.000 A 
ATOM     23  C   UNL     1      -1.711  12.095  23.120  0.00  0.00    +0.000 A 
ATOM     24  N   UNL     1      -3.007  11.806  23.441  0.00  0.00    +0.000 NA
ATOM     25  N   UNL     1      -3.552  12.902  23.952  0.00  0.00    +0.000 NA
BRANCH  21  31
ATOM     26  C   UNL     1      -0.917  18.189  25.674  0.00  0.00    +0.000 C 
ATOM     27  C   UNL     1      -2.076  17.314  25.298  0.00  0.00    +0.000 A 
ATOM     28  C   UNL     1      -3.390  17.795  25.338  0.00  0.00    +0.000 A 
ATOM     29  C   UNL     1      -4.452  16.983  24.938  0.00  0.00    +0.000 A 
ATOM     30  C   UNL     1      -4.212  15.687  24.476  0.00  0.00    +0.000 A 
ATOM     31  C   UNL     1      -2.900  15.194  24.434  0.00  0.00    +0.000 A 
ATOM     32  C   UNL     1      -1.839  16.005  24.863  0.00  0.00    +0.000 A 
ENDBRANCH  21  31
ENDBRANCH   1  23
TORSDOF 4
ENDMDL
MODEL 9
REMARK VINA RESULT:      -8.6      2.347     12.194
REMARK  Name = 
REMARK  5 active torsions:
REMARK  status: ('A' for Active; 'I' for Inactive)
REMARK    1  A    between atoms: C_1  and  C_2
REMARK    2  A    between atoms: C_6  and  N_7
REMARK    3  A    between atoms: C_9  and  C_10
REMARK    4  A    between atoms: N_12  and  C_13
REMARK    5  A    between atoms: C_18  and  C_20
REMARK                            x       y       z     vdW  Elec       q    Type
REMARK                         _______ _______ _______ _____ _____    ______ ____
ROOT
ATOM      1  C   UNL     1       0.042  11.343  21.235  0.00  0.00    +0.000 C 
ATOM      2  O   UNL     1       1.082  11.987  21.148  0.00  0.00    +0.000 OA
ATOM      3  N   UNL     1      -0.199  10.105  20.661  0.00  0.00    +0.000 N 
ATOM      4  H   UNL     1      -1.157   9.768  20.693  0.00  0.00    +0.000 HD
ENDROOT
BRANCH   3   5
ATOM      5  C   UNL     1       0.748   9.372  19.909  0.00  0.00    +0.000 A 
ATOM      6  C   UNL     1       1.055   9.680  18.593  0.00  0.00    +0.000 A 
ATOM      7  C   UNL     1       1.937   8.880  17.865  0.00  0.00    +0.000 A 
ATOM      8  C   UNL     1       2.540   7.795  18.489  0.00  0.00    +0.000 A 
ATOM      9  N   UNL     1       3.436   7.040  17.718  0.00  0.00    +0.000 N 
ATOM     10  C   UNL     1       4.137   5.936  18.165  0.00  0.00    +0.000 C 
ATOM     11  O   UNL     1       4.079   5.432  19.282  0.00  0.00    +0.000 OA
ATOM     12  N   UNL     1       2.289   7.503  19.779  0.00  0.00    +0.000 NA
ATOM     13  C   UNL     1       1.414   8.287  20.462  0.00  0.00    +0.000 A 
ATOM     14  H   UNL     1       3.629   7.388  16.794  0.00  0.00    +0.000 HD
BRANCH  10  15
ATOM     15  C   UNL     1       5.087   5.327  17.184  0.00  0.00    +0.000 A 
ATOM     16  C   UNL     1       6.419   5.768  17.192  0.00  0.00    +0.000 A 
ATOM     17  C   UNL     1       7.342   5.256  16.276  0.00  0.00    +0.000 A 
ATOM     18  C   UNL     1       6.943   4.282  15.363  0.00  0.00    +0.000 A 
ATOM     19  C   UNL     1       5.633   3.808  15.376  0.00  0.00    +0.000 A 
ATOM     20  C   UNL     1       4.702   4.325  16.285  0.00  0.00    +0.000 A 
ENDBRANCH  10  15
ENDBRANCH   3   5
BRANCH   1  23
ATOM     21  N   UNL     1      -3.003  12.818  22.447  0.00  0.00    +0.000 N 
ATOM     22  C   UNL     1      -2.229  12.424  21.390  0.00  0.00    +0.000 A 
ATOM     23  C   UNL     1      -1.092  11.893  21.957  0.00  0.00    +0.000 A 
ATOM     24  N   UNL     1      -1.190  11.966  23.317  0.00  0.00    +0.000 NA
ATOM     25  N   UNL     1      -2.351  12.539  23.608  0.00  0.00    +0.000 NA
BRANCH  21  31
ATOM     26  C   UNL     1      -7.590  12.931  20.639  0.00  0.00    +0.000 C 
ATOM     27  C   UNL     1      -6.538  13.514  21.535  0.00  0.00    +0.000 A 
ATOM     28  C   UNL     1      -6.828  14.580  22.394  0.00  0.00    +0.000 A 
ATOM     29  C   UNL     1      -5.849  15.078  23.257  0.00  0.00    +0.000 A 
ATOM     30  C   UNL     1      -4.577  14.505  23.283  0.00  0.00    +0.000 A 
ATOM     31  C   UNL     1      -4.275  13.438  22.425  0.00  0.00    +0.000 A 
ATOM     32  C   UNL     1      -5.253  12.959  21.541  0.00  0.00    +0.000 A 
ENDBRANCH  21  31
ENDBRANCH   1  23
TORSDOF 4
ENDMDL
