MODEL 1
REMARK VINA RESULT:      -8.2      0.000      0.000
REMARK  Name = 
REMARK  4 active torsions:
REMARK  status: ('A' for Active; 'I' for Inactive)
REMARK    1  A    between atoms: C_2  and  C_14
REMARK    2  A    between atoms: N_3  and  C_4
REMARK    3  A    between atoms: C_18  and  O_19
REMARK    4  A    between atoms: O_19  and  C_20
REMARK                            x       y       z     vdW  Elec       q    Type
REMARK                         _______ _______ _______ _____ _____    ______ ____
ROOT
ATOM      1  O   UNL     1       2.457   9.734  17.501  0.00  0.00    +0.000 OA
ATOM      2  C   UNL     1       2.133   8.756  18.167  0.00  0.00    +0.000 C 
ATOM      3  N   UNL     1       1.210   8.732  19.203  0.00  0.00    +0.000 N 
ATOM      4  H   UNL     1       1.197   7.901  19.775  0.00  0.00    +0.000 HD
ENDROOT
BRANCH   3   5
ATOM      5  C   UNL     1       0.463   9.858  19.663  0.00  0.00    +0.000 A 
ATOM      6  C   UNL     1       0.813  10.507  20.853  0.00  0.00    +0.000 A 
ATOM      7  C   UNL     1       0.061  11.567  21.343  0.00  0.00    +0.000 A 
ATOM      8  C   UNL     1      -1.049  12.003  20.634  0.00  0.00    +0.000 A 
ATOM      9  C   UNL     1      -1.425  11.414  19.439  0.00  0.00    +0.000 A 
ATOM     10  N   UNL     1      -2.518  11.912  18.836  0.00  0.00    +0.000 NA
ATOM     11  C   UNL     1      -2.921  11.351  17.681  0.00  0.00    +0.000 A 
ATOM     12  C   UNL     1      -2.267  10.300  17.076  0.00  0.00    +0.000 A 
ATOM     13  C   UNL     1      -1.132   9.789  17.702  0.00  0.00    +0.000 A 
ATOM     14  C   UNL     1      -0.668  10.331  18.922  0.00  0.00    +0.000 A 
ENDBRANCH   3   5
BRANCH   2  15
ATOM     15  C   UNL     1       2.859   7.491  17.886  0.00  0.00    +0.000 A 
ATOM     16  C   UNL     1       4.131   7.615  17.305  0.00  0.00    +0.000 A 
ATOM     17  C   UNL     1       4.836   6.487  16.906  0.00  0.00    +0.000 A 
ATOM     18  C   UNL     1       4.273   5.228  17.088  0.00  0.00    +0.000 A 
ATOM     19  C   UNL     1       3.031   5.088  17.725  0.00  0.00    +0.000 A 
ATOM     20  C   UNL     1       2.304   6.224  18.100  0.00  0.00    +0.000 A 
BRANCH  19  21
ATOM     21  O   UNL     1       2.432   3.863  17.936  0.00  0.00    +0.000 OA
BRANCH  21  22
ATOM     22  C   UNL     1       2.321   3.414  19.247  0.00  0.00    +0.000 A 
ATOM     23  C   UNL     1       3.477   3.006  19.897  0.00  0.00    +0.000 A 
ATOM     24  N   UNL     1       3.478   2.581  21.187  0.00  0.00    +0.000 NA
ATOM     25  C   UNL     1       2.270   2.583  21.795  0.00  0.00    +0.000 A 
ATOM     26  C   UNL     1       1.112   2.970  21.143  0.00  0.00    +0.000 A 
ATOM     27  N   UNL     1       1.107   3.373  19.853  0.00  0.00    +0.000 NA
ENDBRANCH  21  22
ENDBRANCH  19  21
ENDBRANCH   2  15
TORSDOF 4
ENDMDL
MODEL 2
REMARK VINA RESULT:      -8.1      2.369      8.477
REMARK  Name = 
REMARK  4 active torsions:
REMARK  status: ('A' for Active; 'I' for Inactive)
REMARK    1  A    between atoms: C_2  and  C_14
REMARK    2  A    between atoms: N_3  and  C_4
REMARK    3  A    between atoms: C_18  and  O_19
REMARK    4  A    between atoms: O_19  and  C_20
REMARK                            x       y       z     vdW  Elec       q    Type
REMARK                         _______ _______ _______ _____ _____    ______ ____
ROOT
ATOM      1  O   UNL     1       1.380   9.239  18.816  0.00  0.00    +0.000 OA
ATOM      2  C   UNL     1       1.358   8.748  19.941  0.00  0.00    +0.000 C 
ATOM      3  N   UNL     1       1.848   7.503  20.307  0.00  0.00    +0.000 N 
ATOM      4  H   UNL     1       1.584   7.165  21.220  0.00  0.00    +0.000 HD
ENDROOT
BRANCH   3   5
ATOM      5  C   UNL     1       2.482   6.578  19.423  0.00  0.00    +0.000 A 
ATOM      6  C   UNL     1       3.363   7.029  18.432  0.00  0.00    +0.000 A 
ATOM      7  C   UNL     1       3.942   6.147  17.529  0.00  0.00    +0.000 A 
ATOM      8  C   UNL     1       3.657   4.792  17.618  0.00  0.00    +0.000 A 
ATOM      9  C   UNL     1       2.815   4.289  18.594  0.00  0.00    +0.000 A 
ATOM     10  N   UNL     1       2.604   2.962  18.588  0.00  0.00    +0.000 NA
ATOM     11  C   UNL     1       1.777   2.442  19.513  0.00  0.00    +0.000 A 
ATOM     12  C   UNL     1       1.140   3.196  20.475  0.00  0.00    +0.000 A 
ATOM     13  C   UNL     1       1.364   4.572  20.481  0.00  0.00    +0.000 A 
ATOM     14  C   UNL     1       2.215   5.175  19.527  0.00  0.00    +0.000 A 
ENDBRANCH   3   5
BRANCH   2  15
ATOM     15  C   UNL     1       0.668   9.533  20.995  0.00  0.00    +0.000 A 
ATOM     16  C   UNL     1       0.600   8.948  22.269  0.00  0.00    +0.000 A 
ATOM     17  C   UNL     1      -0.121   9.558  23.288  0.00  0.00    +0.000 A 
ATOM     18  C   UNL     1      -0.776  10.759  23.038  0.00  0.00    +0.000 A 
ATOM     19  C   UNL     1      -0.664  11.386  21.787  0.00  0.00    +0.000 A 
ATOM     20  C   UNL     1       0.036  10.758  20.750  0.00  0.00    +0.000 A 
BRANCH  19  21
ATOM     21  O   UNL     1      -1.287  12.580  21.490  0.00  0.00    +0.000 OA
BRANCH  21  22
ATOM     22  C   UNL     1      -2.668  12.568  21.333  0.00  0.00    +0.000 A 
ATOM     23  C   UNL     1      -3.454  12.590  22.476  0.00  0.00    +0.000 A 
ATOM     24  N   UNL     1      -4.811  12.612  22.428  0.00  0.00    +0.000 NA
ATOM     25  C   UNL     1      -5.344  12.609  21.185  0.00  0.00    +0.000 A 
ATOM     26  C   UNL     1      -4.562  12.565  20.043  0.00  0.00    +0.000 A 
ATOM     27  N   UNL     1      -3.212  12.522  20.091  0.00  0.00    +0.000 NA
ENDBRANCH  21  22
ENDBRANCH  19  21
ENDBRANCH   2  15
TORSDOF 4
ENDMDL
MODEL 3
REMARK VINA RESULT:      -8.0      2.698      4.329
REMARK  Name = 
REMARK  4 active torsions:
REMARK  status: ('A' for Active; 'I' for Inactive)
REMARK    1  A    between atoms: C_2  and  C_14
REMARK    2  A    between atoms: N_3  and  C_4
REMARK    3  A    between atoms: C_18  and  O_19
REMARK    4  A    between atoms: O_19  and  C_20
REMARK                            x       y       z     vdW  Elec       q    Type
REMARK                         _______ _______ _______ _____ _____    ______ ____
ROOT
ATOM      1  O   UNL     1       2.933   8.285  17.927  0.00  0.00    +0.000 OA
ATOM      2  C   UNL     1       2.460   7.652  18.865  0.00  0.00    +0.000 C 
ATOM      3  N   UNL     1       1.542   8.118  19.796  0.00  0.00    +0.000 N 
ATOM      4  H   UNL     1       1.399   7.544  20.613  0.00  0.00    +0.000 HD
ENDROOT
BRANCH   3   5
ATOM      5  C   UNL     1       0.978   9.429  19.807  0.00  0.00    +0.000 A 
ATOM      6  C   UNL     1       1.126  10.277  18.703  0.00  0.00    +0.000 A 
ATOM      7  C   UNL     1       0.632  11.575  18.721  0.00  0.00    +0.000 A 
ATOM      8  C   UNL     1      -0.034  12.037  19.848  0.00  0.00    +0.000 A 
ATOM      9  C   UNL     1      -0.231  11.233  20.957  0.00  0.00    +0.000 A 
ATOM     10  N   UNL     1      -0.886  11.781  21.994  0.00  0.00    +0.000 NA
ATOM     11  C   UNL     1      -1.079  11.032  23.094  0.00  0.00    +0.000 A 
ATOM     12  C   UNL     1      -0.651   9.727  23.213  0.00  0.00    +0.000 A 
ATOM     13  C   UNL     1       0.024   9.160  22.133  0.00  0.00    +0.000 A 
ATOM     14  C   UNL     1       0.265   9.903  20.955  0.00  0.00    +0.000 A 
ENDBRANCH   3   5
BRANCH   2  15
ATOM     15  C   UNL     1       2.981   6.277  19.068  0.00  0.00    +0.000 A 
ATOM     16  C   UNL     1       2.178   5.407  19.823  0.00  0.00    +0.000 A 
ATOM     17  C   UNL     1       2.634   4.138  20.157  0.00  0.00    +0.000 A 
ATOM     18  C   UNL     1       3.896   3.732  19.737  0.00  0.00    +0.000 A 
ATOM     19  C   UNL     1       4.683   4.568  18.930  0.00  0.00    +0.000 A 
ATOM     20  C   UNL     1       4.239   5.859  18.617  0.00  0.00    +0.000 A 
BRANCH  19  21
ATOM     21  O   UNL     1       5.937   4.210  18.481  0.00  0.00    +0.000 OA
BRANCH  21  22
ATOM     22  C   UNL     1       6.222   4.401  17.134  0.00  0.00    +0.000 A 
ATOM     23  C   UNL     1       7.198   5.328  16.799  0.00  0.00    +0.000 A 
ATOM     24  N   UNL     1       7.570   5.564  15.515  0.00  0.00    +0.000 NA
ATOM     25  C   UNL     1       6.919   4.832  14.582  0.00  0.00    +0.000 A 
ATOM     26  C   UNL     1       5.930   3.921  14.912  0.00  0.00    +0.000 A 
ATOM     27  N   UNL     1       5.545   3.701  16.189  0.00  0.00    +0.000 NA
ENDBRANCH  21  22
ENDBRANCH  19  21
ENDBRANCH   2  15
TORSDOF 4
ENDMDL
MODEL 4
REMARK VINA RESULT:      -8.0      2.025      8.139
REMARK  Name = 
REMARK  4 active torsions:
REMARK  status: ('A' for Active; 'I' for Inactive)
REMARK    1  A    between atoms: C_2  and  C_14
REMARK    2  A    between atoms: N_3  and  C_4
REMARK    3  A    between atoms: C_18  and  O_19
REMARK    4  A    between atoms: O_19  and  C_20
REMARK                            x       y       z     vdW  Elec       q    Type
REMARK                         _______ _______ _______ _____ _____    ______ ____
ROOT
ATOM      1  O   UNL     1       2.426   7.911  18.176  0.00  0.00    +0.000 OA
ATOM      2  C   UNL     1       2.182   7.726  19.365  0.00  0.00    +0.000 C 
ATOM      3  N   UNL     1       2.536   6.615  20.116  0.00  0.00    +0.000 N 
ATOM      4  H   UNL     1       2.098   6.524  21.021  0.00  0.00    +0.000 HD
ENDROOT
BRANCH   3   5
ATOM      5  C   UNL     1       3.267   5.491  19.626  0.00  0.00    +0.000 A 
ATOM      6  C   UNL     1       4.640   5.590  19.373  0.00  0.00    +0.000 A 
ATOM      7  C   UNL     1       5.354   4.523  18.841  0.00  0.00    +0.000 A 
ATOM      8  C   UNL     1       4.698   3.331  18.570  0.00  0.00    +0.000 A 
ATOM      9  C   UNL     1       3.348   3.169  18.824  0.00  0.00    +0.000 A 
ATOM     10  N   UNL     1       2.812   1.975  18.522  0.00  0.00    +0.000 NA
ATOM     11  C   UNL     1       1.498   1.790  18.741  0.00  0.00    +0.000 A 
ATOM     12  C   UNL     1       0.671   2.757  19.271  0.00  0.00    +0.000 A 
ATOM     13  C   UNL     1       1.230   3.993  19.588  0.00  0.00    +0.000 A 
ATOM     14  C   UNL     1       2.603   4.248  19.370  0.00  0.00    +0.000 A 
ENDBRANCH   3   5
BRANCH   2  15
ATOM     15  C   UNL     1       1.358   8.759  20.042  0.00  0.00    +0.000 A 
ATOM     16  C   UNL     1       1.157   8.594  21.422  0.00  0.00    +0.000 A 
ATOM     17  C   UNL     1       0.311   9.448  22.118  0.00  0.00    +0.000 A 
ATOM     18  C   UNL     1      -0.337  10.473  21.437  0.00  0.00    +0.000 A 
ATOM     19  C   UNL     1      -0.096  10.687  20.071  0.00  0.00    +0.000 A 
ATOM     20  C   UNL     1       0.732   9.809  19.361  0.00  0.00    +0.000 A 
BRANCH  19  21
ATOM     21  O   UNL     1      -0.708  11.693  19.352  0.00  0.00    +0.000 OA
BRANCH  21  22
ATOM     22  C   UNL     1      -2.002  11.469  18.899  0.00  0.00    +0.000 A 
ATOM     23  C   UNL     1      -3.034  12.176  19.500  0.00  0.00    +0.000 A 
ATOM     24  N   UNL     1      -4.328  12.052  19.109  0.00  0.00    +0.000 NA
ATOM     25  C   UNL     1      -4.543  11.188  18.090  0.00  0.00    +0.000 A 
ATOM     26  C   UNL     1      -3.518  10.466  17.503  0.00  0.00    +0.000 A 
ATOM     27  N   UNL     1      -2.232  10.573  17.906  0.00  0.00    +0.000 NA
ENDBRANCH  21  22
ENDBRANCH  19  21
ENDBRANCH   2  15
TORSDOF 4
ENDMDL
MODEL 5
REMARK VINA RESULT:      -7.9      1.908      8.273
REMARK  Name = 
REMARK  4 active torsions:
REMARK  status: ('A' for Active; 'I' for Inactive)
REMARK    1  A    between atoms: C_2  and  C_14
REMARK    2  A    between atoms: N_3  and  C_4
REMARK    3  A    between atoms: C_18  and  O_19
REMARK    4  A    between atoms: O_19  and  C_20
REMARK                            x       y       z     vdW  Elec       q    Type
REMARK                         _______ _______ _______ _____ _____    ______ ____
ROOT
ATOM      1  O   UNL     1       1.692   8.444  18.071  0.00  0.00    +0.000 OA
ATOM      2  C   UNL     1       1.785   8.151  19.259  0.00  0.00    +0.000 C 
ATOM      3  N   UNL     1       2.368   7.007  19.783  0.00  0.00    +0.000 N 
ATOM      4  H   UNL     1       2.195   6.819  20.759  0.00  0.00    +0.000 HD
ENDROOT
BRANCH   3   5
ATOM      5  C   UNL     1       2.979   5.971  19.014  0.00  0.00    +0.000 A 
ATOM      6  C   UNL     1       4.099   6.241  18.218  0.00  0.00    +0.000 A 
ATOM      7  C   UNL     1       4.669   5.257  17.420  0.00  0.00    +0.000 A 
ATOM      8  C   UNL     1       4.130   3.978  17.422  0.00  0.00    +0.000 A 
ATOM      9  C   UNL     1       3.041   3.649  18.209  0.00  0.00    +0.000 A 
ATOM     10  N   UNL     1       2.597   2.383  18.133  0.00  0.00    +0.000 NA
ATOM     11  C   UNL     1       1.529   2.036  18.873  0.00  0.00    +0.000 A 
ATOM     12  C   UNL     1       0.869   2.905  19.715  0.00  0.00    +0.000 A 
ATOM     13  C   UNL     1       1.334   4.216  19.795  0.00  0.00    +0.000 A 
ATOM     14  C   UNL     1       2.446   4.642  19.033  0.00  0.00    +0.000 A 
ENDBRANCH   3   5
BRANCH   2  15
ATOM     15  C   UNL     1       1.139   9.077  20.224  0.00  0.00    +0.000 A 
ATOM     16  C   UNL     1       1.057   8.637  21.555  0.00  0.00    +0.000 A 
ATOM     17  C   UNL     1       0.373   9.387  22.503  0.00  0.00    +0.000 A 
ATOM     18  C   UNL     1      -0.232  10.580  22.126  0.00  0.00    +0.000 A 
ATOM     19  C   UNL     1      -0.104  11.061  20.813  0.00  0.00    +0.000 A 
ATOM     20  C   UNL     1       0.558  10.293  19.848  0.00  0.00    +0.000 A 
BRANCH  19  21
ATOM     21  O   UNL     1      -0.679  12.242  20.390  0.00  0.00    +0.000 OA
BRANCH  21  22
ATOM     22  C   UNL     1      -2.022  12.217  20.033  0.00  0.00    +0.000 A 
ATOM     23  C   UNL     1      -2.942  12.758  20.919  0.00  0.00    +0.000 A 
ATOM     24  N   UNL     1      -4.272  12.810  20.649  0.00  0.00    +0.000 NA
ATOM     25  C   UNL     1      -4.638  12.294  19.453  0.00  0.00    +0.000 A 
ATOM     26  C   UNL     1      -3.724  11.734  18.577  0.00  0.00    +0.000 A 
ATOM     27  N   UNL     1      -2.404  11.664  18.854  0.00  0.00    +0.000 NA
ENDBRANCH  21  22
ENDBRANCH  19  21
ENDBRANCH   2  15
TORSDOF 4
ENDMDL
MODEL 6
REMARK VINA RESULT:      -7.9      2.819      8.599
REMARK  Name = 
REMARK  4 active torsions:
REMARK  status: ('A' for Active; 'I' for Inactive)
REMARK    1  A    between atoms: C_2  and  C_14
REMARK    2  A    between atoms: N_3  and  C_4
REMARK    3  A    between atoms: C_18  and  O_19
REMARK    4  A    between atoms: O_19  and  C_20
REMARK                            x       y       z     vdW  Elec       q    Type
REMARK                         _______ _______ _______ _____ _____    ______ ____
ROOT
ATOM      1  O   UNL     1       1.365   9.112  18.826  0.00  0.00    +0.000 OA
ATOM      2  C   UNL     1       1.365   8.598  19.941  0.00  0.00    +0.000 C 
ATOM      3  N   UNL     1       1.869   7.349  20.273  0.00  0.00    +0.000 N 
ATOM      4  H   UNL     1       1.622   6.991  21.183  0.00  0.00    +0.000 HD
ENDROOT
BRANCH   3   5
ATOM      5  C   UNL     1       2.494   6.446  19.360  0.00  0.00    +0.000 A 
ATOM      6  C   UNL     1       3.395   6.917  18.398  0.00  0.00    +0.000 A 
ATOM      7  C   UNL     1       3.966   6.060  17.466  0.00  0.00    +0.000 A 
ATOM      8  C   UNL     1       3.652   4.709  17.498  0.00  0.00    +0.000 A 
ATOM      9  C   UNL     1       2.788   4.185  18.444  0.00  0.00    +0.000 A 
ATOM     10  N   UNL     1       2.550   2.864  18.383  0.00  0.00    +0.000 NA
ATOM     11  C   UNL     1       1.702   2.326  19.278  0.00  0.00    +0.000 A 
ATOM     12  C   UNL     1       1.070   3.055  20.262  0.00  0.00    +0.000 A 
ATOM     13  C   UNL     1       1.322   4.424  20.325  0.00  0.00    +0.000 A 
ATOM     14  C   UNL     1       2.196   5.046  19.405  0.00  0.00    +0.000 A 
ENDBRANCH   3   5
BRANCH   2  15
ATOM     15  C   UNL     1       0.688   9.357  21.022  0.00  0.00    +0.000 A 
ATOM     16  C   UNL     1       0.852   8.869  22.328  0.00  0.00    +0.000 A 
ATOM     17  C   UNL     1       0.167   9.448  23.389  0.00  0.00    +0.000 A 
ATOM     18  C   UNL     1      -0.685  10.521  23.149  0.00  0.00    +0.000 A 
ATOM     19  C   UNL     1      -0.809  11.058  21.858  0.00  0.00    +0.000 A 
ATOM     20  C   UNL     1      -0.144  10.457  20.783  0.00  0.00    +0.000 A 
BRANCH  19  21
ATOM     21  O   UNL     1      -1.634  12.125  21.568  0.00  0.00    +0.000 OA
BRANCH  21  22
ATOM     22  C   UNL     1      -2.330  12.710  22.619  0.00  0.00    +0.000 A 
ATOM     23  C   UNL     1      -1.735  13.773  23.283  0.00  0.00    +0.000 A 
ATOM     24  N   UNL     1      -2.346  14.432  24.301  0.00  0.00    +0.000 NA
ATOM     25  C   UNL     1      -3.578  13.976  24.626  0.00  0.00    +0.000 A 
ATOM     26  C   UNL     1      -4.164  12.902  23.979  0.00  0.00    +0.000 A 
ATOM     27  N   UNL     1      -3.548  12.233  22.980  0.00  0.00    +0.000 NA
ENDBRANCH  21  22
ENDBRANCH  19  21
ENDBRANCH   2  15
TORSDOF 4
ENDMDL
MODEL 7
REMARK VINA RESULT:      -7.9      2.762      4.318
REMARK  Name = 
REMARK  4 active torsions:
REMARK  status: ('A' for Active; 'I' for Inactive)
REMARK    1  A    between atoms: C_2  and  C_14
REMARK    2  A    between atoms: N_3  and  C_4
REMARK    3  A    between atoms: C_18  and  O_19
REMARK    4  A    between atoms: O_19  and  C_20
REMARK                            x       y       z     vdW  Elec       q    Type
REMARK                         _______ _______ _______ _____ _____    ______ ____
ROOT
ATOM      1  O   UNL     1       0.608   5.557  20.690  0.00  0.00    +0.000 OA
ATOM      2  C   UNL     1       1.760   5.955  20.546  0.00  0.00    +0.000 C 
ATOM      3  N   UNL     1       2.206   7.261  20.694  0.00  0.00    +0.000 N 
ATOM      4  H   UNL     1       3.134   7.461  20.355  0.00  0.00    +0.000 HD
ENDROOT
BRANCH   3   5
ATOM      5  C   UNL     1       1.386   8.372  21.058  0.00  0.00    +0.000 A 
ATOM      6  C   UNL     1       1.099   8.634  22.403  0.00  0.00    +0.000 A 
ATOM      7  C   UNL     1       0.257   9.676  22.770  0.00  0.00    +0.000 A 
ATOM      8  C   UNL     1      -0.299  10.483  21.787  0.00  0.00    +0.000 A 
ATOM      9  C   UNL     1      -0.028  10.286  20.444  0.00  0.00    +0.000 A 
ATOM     10  N   UNL     1      -0.620  11.123  19.576  0.00  0.00    +0.000 NA
ATOM     11  C   UNL     1      -0.391  10.947  18.262  0.00  0.00    +0.000 A 
ATOM     12  C   UNL     1       0.428   9.961  17.757  0.00  0.00    +0.000 A 
ATOM     13  C   UNL     1       1.044   9.096  18.660  0.00  0.00    +0.000 A 
ATOM     14  C   UNL     1       0.832   9.227  20.051  0.00  0.00    +0.000 A 
ENDBRANCH   3   5
BRANCH   2  15
ATOM     15  C   UNL     1       2.757   4.954  20.092  0.00  0.00    +0.000 A 
ATOM     16  C   UNL     1       2.416   3.604  20.270  0.00  0.00    +0.000 A 
ATOM     17  C   UNL     1       3.331   2.601  19.978  0.00  0.00    +0.000 A 
ATOM     18  C   UNL     1       4.592   2.942  19.503  0.00  0.00    +0.000 A 
ATOM     19  C   UNL     1       4.924   4.284  19.261  0.00  0.00    +0.000 A 
ATOM     20  C   UNL     1       4.015   5.299  19.584  0.00  0.00    +0.000 A 
BRANCH  19  21
ATOM     21  O   UNL     1       6.158   4.676  18.784  0.00  0.00    +0.000 OA
BRANCH  21  22
ATOM     22  C   UNL     1       6.333   4.728  17.407  0.00  0.00    +0.000 A 
ATOM     23  C   UNL     1       7.219   5.666  16.898  0.00  0.00    +0.000 A 
ATOM     24  N   UNL     1       7.484   5.776  15.570  0.00  0.00    +0.000 NA
ATOM     25  C   UNL     1       6.819   4.905  14.776  0.00  0.00    +0.000 A 
ATOM     26  C   UNL     1       5.918   3.982  15.280  0.00  0.00    +0.000 A 
ATOM     27  N   UNL     1       5.640   3.887  16.599  0.00  0.00    +0.000 NA
ENDBRANCH  21  22
ENDBRANCH  19  21
ENDBRANCH   2  15
TORSDOF 4
ENDMDL
MODEL 8
REMARK VINA RESULT:      -7.8      2.311      8.166
REMARK  Name = 
REMARK  4 active torsions:
REMARK  status: ('A' for Active; 'I' for Inactive)
REMARK    1  A    between atoms: C_2  and  C_14
REMARK    2  A    between atoms: N_3  and  C_4
REMARK    3  A    between atoms: C_18  and  O_19
REMARK    4  A    between atoms: O_19  and  C_20
REMARK                            x       y       z     vdW  Elec       q    Type
REMARK                         _______ _______ _______ _____ _____    ______ ____
ROOT
ATOM      1  O   UNL     1       2.136   6.119  20.718  0.00  0.00    +0.000 OA
ATOM      2  C   UNL     1       2.010   6.955  19.828  0.00  0.00    +0.000 C 
ATOM      3  N   UNL     1       2.401   6.815  18.504  0.00  0.00    +0.000 N 
ATOM      4  H   UNL     1       2.406   7.654  17.945  0.00  0.00    +0.000 HD
ENDROOT
BRANCH   3   5
ATOM      5  C   UNL     1       3.012   5.651  17.947  0.00  0.00    +0.000 A 
ATOM      6  C   UNL     1       2.292   4.456  17.828  0.00  0.00    +0.000 A 
ATOM      7  C   UNL     1       2.890   3.301  17.342  0.00  0.00    +0.000 A 
ATOM      8  C   UNL     1       4.222   3.333  16.952  0.00  0.00    +0.000 A 
ATOM      9  C   UNL     1       4.973   4.493  17.023  0.00  0.00    +0.000 A 
ATOM     10  N   UNL     1       6.253   4.413  16.623  0.00  0.00    +0.000 NA
ATOM     11  C   UNL     1       7.015   5.519  16.695  0.00  0.00    +0.000 A 
ATOM     12  C   UNL     1       6.552   6.735  17.149  0.00  0.00    +0.000 A 
ATOM     13  C   UNL     1       5.223   6.816  17.560  0.00  0.00    +0.000 A 
ATOM     14  C   UNL     1       4.378   5.684  17.516  0.00  0.00    +0.000 A 
ENDBRANCH   3   5
BRANCH   2  15
ATOM     15  C   UNL     1       1.455   8.273  20.227  0.00  0.00    +0.000 A 
ATOM     16  C   UNL     1       1.350   8.516  21.606  0.00  0.00    +0.000 A 
ATOM     17  C   UNL     1       0.741   9.674  22.073  0.00  0.00    +0.000 A 
ATOM     18  C   UNL     1       0.236  10.596  21.163  0.00  0.00    +0.000 A 
ATOM     19  C   UNL     1       0.391  10.395  19.783  0.00  0.00    +0.000 A 
ATOM     20  C   UNL     1       0.976   9.214  19.309  0.00  0.00    +0.000 A 
BRANCH  19  21
ATOM     21  O   UNL     1      -0.086  11.281  18.838  0.00  0.00    +0.000 OA
BRANCH  21  22
ATOM     22  C   UNL     1      -1.364  11.066  18.336  0.00  0.00    +0.000 A 
ATOM     23  C   UNL     1      -2.407  11.809  18.869  0.00  0.00    +0.000 A 
ATOM     24  N   UNL     1      -3.685  11.697  18.425  0.00  0.00    +0.000 NA
ATOM     25  C   UNL     1      -3.871  10.805  17.425  0.00  0.00    +0.000 A 
ATOM     26  C   UNL     1      -2.836  10.047  16.906  0.00  0.00    +0.000 A 
ATOM     27  N   UNL     1      -1.567  10.144  17.362  0.00  0.00    +0.000 NA
ENDBRANCH  21  22
ENDBRANCH  19  21
ENDBRANCH   2  15
TORSDOF 4
ENDMDL
MODEL 9
REMARK VINA RESULT:      -7.8      2.594      4.078
REMARK  Name = 
REMARK  4 active torsions:
REMARK  status: ('A' for Active; 'I' for Inactive)
REMARK    1  A    between atoms: C_2  and  C_14
REMARK    2  A    between atoms: N_3  and  C_4
REMARK    3  A    between atoms: C_18  and  O_19
REMARK    4  A    between atoms: O_19  and  C_20
REMARK                            x       y       z     vdW  Elec       q    Type
REMARK                         _______ _______ _______ _____ _____    ______ ____
ROOT
ATOM      1  O   UNL     1       1.616   5.873  20.857  0.00  0.00    +0.000 OA
ATOM      2  C   UNL     1       1.973   6.489  19.857  0.00  0.00    +0.000 C 
ATOM      3  N   UNL     1       1.785   7.842  19.611  0.00  0.00    +0.000 N 
ATOM      4  H   UNL     1       1.960   8.157  18.669  0.00  0.00    +0.000 HD
ENDROOT
BRANCH   3   5
ATOM      5  C   UNL     1       1.148   8.757  20.502  0.00  0.00    +0.000 A 
ATOM      6  C   UNL     1       1.373   8.683  21.881  0.00  0.00    +0.000 A 
ATOM      7  C   UNL     1       0.716   9.529  22.765  0.00  0.00    +0.000 A 
ATOM      8  C   UNL     1      -0.170  10.477  22.272  0.00  0.00    +0.000 A 
ATOM      9  C   UNL     1      -0.411  10.612  20.916  0.00  0.00    +0.000 A 
ATOM     10  N   UNL     1      -1.289  11.559  20.547  0.00  0.00    +0.000 NA
ATOM     11  C   UNL     1      -1.558  11.705  19.238  0.00  0.00    +0.000 A 
ATOM     12  C   UNL     1      -0.975  10.941  18.250  0.00  0.00    +0.000 A 
ATOM     13  C   UNL     1      -0.061   9.962  18.635  0.00  0.00    +0.000 A 
ATOM     14  C   UNL     1       0.254   9.757  19.998  0.00  0.00    +0.000 A 
ENDBRANCH   3   5
BRANCH   2  15
ATOM     15  C   UNL     1       2.597   5.691  18.772  0.00  0.00    +0.000 A 
ATOM     16  C   UNL     1       2.058   4.415  18.543  0.00  0.00    +0.000 A 
ATOM     17  C   UNL     1       2.647   3.555  17.625  0.00  0.00    +0.000 A 
ATOM     18  C   UNL     1       3.778   3.967  16.929  0.00  0.00    +0.000 A 
ATOM     19  C   UNL     1       4.289   5.262  17.102  0.00  0.00    +0.000 A 
ATOM     20  C   UNL     1       3.716   6.120  18.050  0.00  0.00    +0.000 A 
BRANCH  19  21
ATOM     21  O   UNL     1       5.403   5.723  16.432  0.00  0.00    +0.000 OA
BRANCH  21  22
ATOM     22  C   UNL     1       6.392   6.355  17.177  0.00  0.00    +0.000 A 
ATOM     23  C   UNL     1       6.985   5.643  18.209  0.00  0.00    +0.000 A 
ATOM     24  N   UNL     1       7.981   6.159  18.974  0.00  0.00    +0.000 NA
ATOM     25  C   UNL     1       8.354   7.421  18.660  0.00  0.00    +0.000 A 
ATOM     26  C   UNL     1       7.749   8.141  17.644  0.00  0.00    +0.000 A 
ATOM     27  N   UNL     1       6.744   7.635  16.897  0.00  0.00    +0.000 NA
ENDBRANCH  21  22
ENDBRANCH  19  21
ENDBRANCH   2  15
TORSDOF 4
ENDMDL
