MODEL 1
REMARK VINA RESULT:      -8.8      0.000      0.000
REMARK  Name = 
REMARK  5 active torsions:
REMARK  status: ('A' for Active; 'I' for Inactive)
REMARK    1  A    between atoms: C_1  and  C_2
REMARK    2  A    between atoms: C_5  and  C_6
REMARK    3  A    between atoms: N_8  and  C_9
REMARK    4  A    between atoms: C_14  and  C_16
REMARK    5  A    between atoms: C_24  and  C_25
REMARK                            x       y       z     vdW  Elec       q    Type
REMARK                         _______ _______ _______ _____ _____    ______ ____
ROOT
ATOM      1  C   UNL     1       1.368   8.942  18.887  0.00  0.00    +0.000 A 
ATOM      2  C   UNL     1       0.513   9.874  18.299  0.00  0.00    +0.000 A 
ATOM      3  C   UNL     1      -0.287  10.710  19.086  0.00  0.00    +0.000 A 
ATOM      4  C   UNL     1      -0.249  10.580  20.463  0.00  0.00    +0.000 A 
ATOM      5  N   UNL     1      -1.023  11.478  21.222  0.00  0.00    +0.000 N 
ATOM      6  C   UNL     1      -1.049  11.498  22.602  0.00  0.00    +0.000 C 
ATOM      7  O   UNL     1      -0.398  10.768  23.345  0.00  0.00    +0.000 OA
ATOM      8  N   UNL     1       0.508   9.638  21.051  0.00  0.00    +0.000 NA
ATOM      9  C   UNL     1       1.293   8.846  20.276  0.00  0.00    +0.000 A 
ATOM     10  H   UNL     1      -1.526  12.186  20.710  0.00  0.00    +0.000 HD
ENDROOT
BRANCH   6  11
ATOM     11  C   UNL     1      -1.932  12.511  23.259  0.00  0.00    +0.000 A 
ATOM     12  C   UNL     1      -3.234  12.246  23.698  0.00  0.00    +0.000 A 
ATOM     13  C   UNL     1      -3.945  13.231  24.396  0.00  0.00    +0.000 A 
ATOM     14  C   UNL     1      -3.365  14.473  24.658  0.00  0.00    +0.000 A 
ATOM     15  C   UNL     1      -2.076  14.747  24.210  0.00  0.00    +0.000 A 
ATOM     16  C   UNL     1      -1.366  13.772  23.512  0.00  0.00    +0.000 A 
ENDBRANCH   6  11
BRANCH   1  19
ATOM     17  C   UNL     1       2.817   6.940  18.613  0.00  0.00    +0.000 C 
ATOM     18  O   UNL     1       2.621   6.454  19.721  0.00  0.00    +0.000 OA
ATOM     19  N   UNL     1       2.286   8.142  18.156  0.00  0.00    +0.000 N 
ATOM     20  H   UNL     1       2.450   8.407  17.191  0.00  0.00    +0.000 HD
BRANCH  17  25
ATOM     21  C   UNL     1       6.318   3.815  15.306  0.00  0.00    +0.000 C 
ATOM     22  C   UNL     1       5.428   4.690  16.132  0.00  0.00    +0.000 A 
ATOM     23  C   UNL     1       5.735   6.018  16.395  0.00  0.00    +0.000 A 
ATOM     24  C   UNL     1       4.856   6.772  17.175  0.00  0.00    +0.000 A 
ATOM     25  C   UNL     1       3.693   6.179  17.686  0.00  0.00    +0.000 A 
ATOM     26  C   UNL     1       3.460   4.830  17.393  0.00  0.00    +0.000 A 
ATOM     27  C   UNL     1       2.284   4.023  17.863  0.00  0.00    +0.000 C 
ATOM     28  N   UNL     1       4.308   4.104  16.611  0.00  0.00    +0.000 NA
ENDBRANCH  17  25
ENDBRANCH   1  19
TORSDOF 3
ENDMDL
MODEL 2
REMARK VINA RESULT:      -8.7      1.532     10.418
REMARK  Name = 
REMARK  5 active torsions:
REMARK  status: ('A' for Active; 'I' for Inactive)
REMARK    1  A    between atoms: C_1  and  C_2
REMARK    2  A    between atoms: C_5  and  C_6
REMARK    3  A    between atoms: N_8  and  C_9
REMARK    4  A    between atoms: C_14  and  C_16
REMARK    5  A    between atoms: C_24  and  C_25
REMARK                            x       y       z     vdW  Elec       q    Type
REMARK                         _______ _______ _______ _____ _____    ______ ____
ROOT
ATOM      1  C   UNL     1       0.447   9.746  19.826  0.00  0.00    +0.000 A 
ATOM      2  C   UNL     1       0.863  10.074  18.536  0.00  0.00    +0.000 A 
ATOM      3  C   UNL     1       1.807   9.288  17.866  0.00  0.00    +0.000 A 
ATOM      4  C   UNL     1       2.355   8.193  18.511  0.00  0.00    +0.000 A 
ATOM      5  N   UNL     1       3.257   7.394  17.783  0.00  0.00    +0.000 N 
ATOM      6  C   UNL     1       3.845   6.249  18.280  0.00  0.00    +0.000 C 
ATOM      7  O   UNL     1       3.653   5.764  19.391  0.00  0.00    +0.000 OA
ATOM      8  N   UNL     1       2.028   7.902  19.782  0.00  0.00    +0.000 NA
ATOM      9  C   UNL     1       1.097   8.662  20.413  0.00  0.00    +0.000 A 
ATOM     10  H   UNL     1       3.415   7.651  16.821  0.00  0.00    +0.000 HD
ENDROOT
BRANCH   6  11
ATOM     11  C   UNL     1       4.789   5.515  17.381  0.00  0.00    +0.000 A 
ATOM     12  C   UNL     1       4.489   4.301  16.754  0.00  0.00    +0.000 A 
ATOM     13  C   UNL     1       5.400   3.743  15.847  0.00  0.00    +0.000 A 
ATOM     14  C   UNL     1       6.604   4.389  15.563  0.00  0.00    +0.000 A 
ATOM     15  C   UNL     1       6.914   5.590  16.194  0.00  0.00    +0.000 A 
ATOM     16  C   UNL     1       6.013   6.147  17.100  0.00  0.00    +0.000 A 
ENDBRANCH   6  11
BRANCH   1  19
ATOM     17  C   UNL     1      -0.374  11.486  21.401  0.00  0.00    +0.000 C 
ATOM     18  O   UNL     1       0.722  11.913  21.746  0.00  0.00    +0.000 OA
ATOM     19  N   UNL     1      -0.586  10.431  20.520  0.00  0.00    +0.000 N 
ATOM     20  H   UNL     1      -1.537  10.216  20.243  0.00  0.00    +0.000 HD
BRANCH  17  25
ATOM     21  C   UNL     1      -4.785  14.326  23.733  0.00  0.00    +0.000 C 
ATOM     22  C   UNL     1      -3.663  13.523  23.153  0.00  0.00    +0.000 A 
ATOM     23  C   UNL     1      -3.217  12.345  23.737  0.00  0.00    +0.000 A 
ATOM     24  C   UNL     1      -2.164  11.651  23.138  0.00  0.00    +0.000 A 
ATOM     25  C   UNL     1      -1.569  12.156  21.973  0.00  0.00    +0.000 A 
ATOM     26  C   UNL     1      -2.061  13.359  21.453  0.00  0.00    +0.000 A 
ATOM     27  C   UNL     1      -1.543  14.058  20.229  0.00  0.00    +0.000 C 
ATOM     28  N   UNL     1      -3.106  14.020  22.027  0.00  0.00    +0.000 NA
ENDBRANCH  17  25
ENDBRANCH   1  19
TORSDOF 3
ENDMDL
MODEL 3
REMARK VINA RESULT:      -8.4      1.931     10.329
REMARK  Name = 
REMARK  5 active torsions:
REMARK  status: ('A' for Active; 'I' for Inactive)
REMARK    1  A    between atoms: C_1  and  C_2
REMARK    2  A    between atoms: C_5  and  C_6
REMARK    3  A    between atoms: N_8  and  C_9
REMARK    4  A    between atoms: C_14  and  C_16
REMARK    5  A    between atoms: C_24  and  C_25
REMARK                            x       y       z     vdW  Elec       q    Type
REMARK                         _______ _______ _______ _____ _____    ______ ____
ROOT
ATOM      1  C   UNL     1       0.409   9.567  19.454  0.00  0.00    +0.000 A 
ATOM      2  C   UNL     1       0.857   9.786  18.152  0.00  0.00    +0.000 A 
ATOM      3  C   UNL     1       1.877   9.002  17.602  0.00  0.00    +0.000 A 
ATOM      4  C   UNL     1       2.468   8.021  18.380  0.00  0.00    +0.000 A 
ATOM      5  N   UNL     1       3.449   7.214  17.773  0.00  0.00    +0.000 N 
ATOM      6  C   UNL     1       4.089   6.171  18.409  0.00  0.00    +0.000 C 
ATOM      7  O   UNL     1       3.883   5.792  19.558  0.00  0.00    +0.000 OA
ATOM      8  N   UNL     1       2.108   7.842  19.662  0.00  0.00    +0.000 NA
ATOM      9  C   UNL     1       1.104   8.598  20.176  0.00  0.00    +0.000 A 
ATOM     10  H   UNL     1       3.629   7.380  16.794  0.00  0.00    +0.000 HD
ENDROOT
BRANCH   6  11
ATOM     11  C   UNL     1       5.116   5.415  17.626  0.00  0.00    +0.000 A 
ATOM     12  C   UNL     1       4.890   4.877  16.354  0.00  0.00    +0.000 A 
ATOM     13  C   UNL     1       5.946   4.275  15.657  0.00  0.00    +0.000 A 
ATOM     14  C   UNL     1       7.221   4.209  16.220  0.00  0.00    +0.000 A 
ATOM     15  C   UNL     1       7.448   4.730  17.491  0.00  0.00    +0.000 A 
ATOM     16  C   UNL     1       6.400   5.325  18.190  0.00  0.00    +0.000 A 
ENDBRANCH   6  11
BRANCH   1  19
ATOM     17  C   UNL     1      -0.713  11.608  20.324  0.00  0.00    +0.000 C 
ATOM     18  O   UNL     1       0.231  12.376  20.185  0.00  0.00    +0.000 OA
ATOM     19  N   UNL     1      -0.694  10.248  20.035  0.00  0.00    +0.000 N 
ATOM     20  H   UNL     1      -1.559   9.724  20.112  0.00  0.00    +0.000 HD
BRANCH  17  25
ATOM     21  C   UNL     1      -5.717  13.505  22.404  0.00  0.00    +0.000 C 
ATOM     22  C   UNL     1      -4.421  13.057  21.805  0.00  0.00    +0.000 A 
ATOM     23  C   UNL     1      -4.184  13.098  20.438  0.00  0.00    +0.000 A 
ATOM     24  C   UNL     1      -2.950  12.662  19.953  0.00  0.00    +0.000 A 
ATOM     25  C   UNL     1      -1.980  12.183  20.845  0.00  0.00    +0.000 A 
ATOM     26  C   UNL     1      -2.298  12.155  22.208  0.00  0.00    +0.000 A 
ATOM     27  C   UNL     1      -1.398  11.664  23.305  0.00  0.00    +0.000 C 
ATOM     28  N   UNL     1      -3.494  12.605  22.679  0.00  0.00    +0.000 NA
ENDBRANCH  17  25
ENDBRANCH   1  19
TORSDOF 3
ENDMDL
MODEL 4
REMARK VINA RESULT:      -8.4      1.209     10.471
REMARK  Name = 
REMARK  5 active torsions:
REMARK  status: ('A' for Active; 'I' for Inactive)
REMARK    1  A    between atoms: C_1  and  C_2
REMARK    2  A    between atoms: C_5  and  C_6
REMARK    3  A    between atoms: N_8  and  C_9
REMARK    4  A    between atoms: C_14  and  C_16
REMARK    5  A    between atoms: C_24  and  C_25
REMARK                            x       y       z     vdW  Elec       q    Type
REMARK                         _______ _______ _______ _____ _____    ______ ____
ROOT
ATOM      1  C   UNL     1       0.247  10.642  20.111  0.00  0.00    +0.000 A 
ATOM      2  C   UNL     1       0.798  10.963  18.871  0.00  0.00    +0.000 A 
ATOM      3  C   UNL     1       1.598  10.045  18.182  0.00  0.00    +0.000 A 
ATOM      4  C   UNL     1       1.869   8.817  18.761  0.00  0.00    +0.000 A 
ATOM      5  N   UNL     1       2.627   7.898  18.012  0.00  0.00    +0.000 N 
ATOM      6  C   UNL     1       2.937   6.624  18.440  0.00  0.00    +0.000 C 
ATOM      7  O   UNL     1       2.583   6.115  19.499  0.00  0.00    +0.000 OA
ATOM      8  N   UNL     1       1.414   8.514  19.989  0.00  0.00    +0.000 NA
ATOM      9  C   UNL     1       0.625   9.408  20.638  0.00  0.00    +0.000 A 
ATOM     10  H   UNL     1       2.892   8.183  17.081  0.00  0.00    +0.000 HD
ENDROOT
BRANCH   6  11
ATOM     11  C   UNL     1       3.761   5.772  17.527  0.00  0.00    +0.000 A 
ATOM     12  C   UNL     1       4.724   6.276  16.645  0.00  0.00    +0.000 A 
ATOM     13  C   UNL     1       5.518   5.390  15.905  0.00  0.00    +0.000 A 
ATOM     14  C   UNL     1       5.358   4.010  16.041  0.00  0.00    +0.000 A 
ATOM     15  C   UNL     1       4.393   3.504  16.907  0.00  0.00    +0.000 A 
ATOM     16  C   UNL     1       3.597   4.382  17.641  0.00  0.00    +0.000 A 
ENDBRANCH   6  11
BRANCH   1  19
ATOM     17  C   UNL     1      -0.722  11.584  22.198  0.00  0.00    +0.000 C 
ATOM     18  O   UNL     1      -0.059  10.923  22.989  0.00  0.00    +0.000 OA
ATOM     19  N   UNL     1      -0.661  11.479  20.813  0.00  0.00    +0.000 N 
ATOM     20  H   UNL     1      -1.197  12.134  20.254  0.00  0.00    +0.000 HD
BRANCH  17  25
ATOM     21  C   UNL     1      -4.166  15.438  24.697  0.00  0.00    +0.000 C 
ATOM     22  C   UNL     1      -3.328  14.394  24.028  0.00  0.00    +0.000 A 
ATOM     23  C   UNL     1      -3.730  13.068  23.939  0.00  0.00    +0.000 A 
ATOM     24  C   UNL     1      -2.894  12.151  23.300  0.00  0.00    +0.000 A 
ATOM     25  C   UNL     1      -1.667  12.576  22.772  0.00  0.00    +0.000 A 
ATOM     26  C   UNL     1      -1.322  13.925  22.916  0.00  0.00    +0.000 A 
ATOM     27  C   UNL     1      -0.049  14.558  22.432  0.00  0.00    +0.000 C 
ATOM     28  N   UNL     1      -2.152  14.822  23.518  0.00  0.00    +0.000 NA
ENDBRANCH  17  25
ENDBRANCH   1  19
TORSDOF 3
ENDMDL
MODEL 5
REMARK VINA RESULT:      -8.3      1.565     10.496
REMARK  Name = 
REMARK  5 active torsions:
REMARK  status: ('A' for Active; 'I' for Inactive)
REMARK    1  A    between atoms: C_1  and  C_2
REMARK    2  A    between atoms: C_5  and  C_6
REMARK    3  A    between atoms: N_8  and  C_9
REMARK    4  A    between atoms: C_14  and  C_16
REMARK    5  A    between atoms: C_24  and  C_25
REMARK                            x       y       z     vdW  Elec       q    Type
REMARK                         _______ _______ _______ _____ _____    ______ ____
ROOT
ATOM      1  C   UNL     1       0.050   9.759  20.664  0.00  0.00    +0.000 A 
ATOM      2  C   UNL     1       0.456   8.608  21.339  0.00  0.00    +0.000 A 
ATOM      3  C   UNL     1       1.396   7.739  20.774  0.00  0.00    +0.000 A 
ATOM      4  C   UNL     1       1.897   8.014  19.513  0.00  0.00    +0.000 A 
ATOM      5  N   UNL     1       2.884   7.149  19.004  0.00  0.00    +0.000 N 
ATOM      6  C   UNL     1       3.506   7.323  17.785  0.00  0.00    +0.000 C 
ATOM      7  O   UNL     1       3.309   8.247  17.001  0.00  0.00    +0.000 OA
ATOM      8  N   UNL     1       1.464   9.074  18.810  0.00  0.00    +0.000 NA
ATOM      9  C   UNL     1       0.565   9.918  19.379  0.00  0.00    +0.000 A 
ATOM     10  H   UNL     1       3.189   6.404  19.611  0.00  0.00    +0.000 HD
ENDROOT
BRANCH   6  11
ATOM     11  C   UNL     1       4.529   6.308  17.383  0.00  0.00    +0.000 A 
ATOM     12  C   UNL     1       5.041   6.184  16.087  0.00  0.00    +0.000 A 
ATOM     13  C   UNL     1       6.073   5.270  15.832  0.00  0.00    +0.000 A 
ATOM     14  C   UNL     1       6.594   4.484  16.861  0.00  0.00    +0.000 A 
ATOM     15  C   UNL     1       6.079   4.594  18.149  0.00  0.00    +0.000 A 
ATOM     16  C   UNL     1       5.050   5.498  18.406  0.00  0.00    +0.000 A 
ENDBRANCH   6  11
BRANCH   1  19
ATOM     17  C   UNL     1      -0.820  11.104  22.566  0.00  0.00    +0.000 C 
ATOM     18  O   UNL     1      -0.145  10.583  23.447  0.00  0.00    +0.000 OA
ATOM     19  N   UNL     1      -0.812  10.740  21.224  0.00  0.00    +0.000 N 
ATOM     20  H   UNL     1      -1.352  11.294  20.568  0.00  0.00    +0.000 HD
BRANCH  17  25
ATOM     21  C   UNL     1      -4.082  15.455  24.406  0.00  0.00    +0.000 C 
ATOM     22  C   UNL     1      -3.294  14.282  23.916  0.00  0.00    +0.000 A 
ATOM     23  C   UNL     1      -3.744  12.976  24.059  0.00  0.00    +0.000 A 
ATOM     24  C   UNL     1      -2.952  11.933  23.577  0.00  0.00    +0.000 A 
ATOM     25  C   UNL     1      -1.719  12.214  22.972  0.00  0.00    +0.000 A 
ATOM     26  C   UNL     1      -1.324  13.554  22.880  0.00  0.00    +0.000 A 
ATOM     27  C   UNL     1      -0.037  14.047  22.282  0.00  0.00    +0.000 C 
ATOM     28  N   UNL     1      -2.111  14.572  23.329  0.00  0.00    +0.000 NA
ENDBRANCH  17  25
ENDBRANCH   1  19
TORSDOF 3
ENDMDL
MODEL 6
REMARK VINA RESULT:      -8.2      1.902     10.609
REMARK  Name = 
REMARK  5 active torsions:
REMARK  status: ('A' for Active; 'I' for Inactive)
REMARK    1  A    between atoms: C_1  and  C_2
REMARK    2  A    between atoms: C_5  and  C_6
REMARK    3  A    between atoms: N_8  and  C_9
REMARK    4  A    between atoms: C_14  and  C_16
REMARK    5  A    between atoms: C_24  and  C_25
REMARK                            x       y       z     vdW  Elec       q    Type
REMARK                         _______ _______ _______ _____ _____    ______ ____
ROOT
ATOM      1  C   UNL     1      -0.441  10.582  22.013  0.00  0.00    +0.000 A 
ATOM      2  C   UNL     1       0.298   9.601  22.673  0.00  0.00    +0.000 A 
ATOM      3  C   UNL     1       1.096   8.701  21.959  0.00  0.00    +0.000 A 
ATOM      4  C   UNL     1       1.121   8.771  20.577  0.00  0.00    +0.000 A 
ATOM      5  N   UNL     1       1.981   7.888  19.897  0.00  0.00    +0.000 N 
ATOM      6  C   UNL     1       2.144   7.874  18.527  0.00  0.00    +0.000 C 
ATOM      7  O   UNL     1       1.593   8.626  17.728  0.00  0.00    +0.000 OA
ATOM      8  N   UNL     1       0.358   9.657  19.913  0.00  0.00    +0.000 NA
ATOM      9  C   UNL     1      -0.397  10.535  20.621  0.00  0.00    +0.000 A 
ATOM     10  H   UNL     1       2.555   7.286  20.468  0.00  0.00    +0.000 HD
ENDROOT
BRANCH   6  11
ATOM     11  C   UNL     1       3.091   6.866  17.958  0.00  0.00    +0.000 A 
ATOM     12  C   UNL     1       4.282   7.195  17.300  0.00  0.00    +0.000 A 
ATOM     13  C   UNL     1       5.155   6.178  16.893  0.00  0.00    +0.000 A 
ATOM     14  C   UNL     1       4.848   4.839  17.139  0.00  0.00    +0.000 A 
ATOM     15  C   UNL     1       3.659   4.505  17.781  0.00  0.00    +0.000 A 
ATOM     16  C   UNL     1       2.785   5.513  18.183  0.00  0.00    +0.000 A 
ENDBRANCH   6  11
BRANCH   1  19
ATOM     17  C   UNL     1      -0.841  12.944  22.680  0.00  0.00    +0.000 C 
ATOM     18  O   UNL     1       0.167  13.422  22.174  0.00  0.00    +0.000 OA
ATOM     19  N   UNL     1      -1.181  11.595  22.679  0.00  0.00    +0.000 N 
ATOM     20  H   UNL     1      -2.082  11.323  23.057  0.00  0.00    +0.000 HD
BRANCH  17  25
ATOM     21  C   UNL     1      -4.403  16.811  24.987  0.00  0.00    +0.000 C 
ATOM     22  C   UNL     1      -3.443  15.795  24.452  0.00  0.00    +0.000 A 
ATOM     23  C   UNL     1      -2.183  15.606  25.003  0.00  0.00    +0.000 A 
ATOM     24  C   UNL     1      -1.342  14.640  24.448  0.00  0.00    +0.000 A 
ATOM     25  C   UNL     1      -1.774  13.888  23.346  0.00  0.00    +0.000 A 
ATOM     26  C   UNL     1      -3.052  14.147  22.835  0.00  0.00    +0.000 A 
ATOM     27  C   UNL     1      -3.678  13.458  21.657  0.00  0.00    +0.000 C 
ATOM     28  N   UNL     1      -3.879  15.074  23.395  0.00  0.00    +0.000 NA
ENDBRANCH  17  25
ENDBRANCH   1  19
TORSDOF 3
ENDMDL
MODEL 7
REMARK VINA RESULT:      -8.1      1.434      1.599
REMARK  Name = 
REMARK  5 active torsions:
REMARK  status: ('A' for Active; 'I' for Inactive)
REMARK    1  A    between atoms: C_1  and  C_2
REMARK    2  A    between atoms: C_5  and  C_6
REMARK    3  A    between atoms: N_8  and  C_9
REMARK    4  A    between atoms: C_14  and  C_16
REMARK    5  A    between atoms: C_24  and  C_25
REMARK                            x       y       z     vdW  Elec       q    Type
REMARK                         _______ _______ _______ _____ _____    ______ ____
ROOT
ATOM      1  C   UNL     1       1.430   8.394  20.692  0.00  0.00    +0.000 A 
ATOM      2  C   UNL     1       0.331   7.988  21.448  0.00  0.00    +0.000 A 
ATOM      3  C   UNL     1      -0.461   8.923  22.124  0.00  0.00    +0.000 A 
ATOM      4  C   UNL     1      -0.122  10.263  22.064  0.00  0.00    +0.000 A 
ATOM      5  N   UNL     1      -0.976  11.179  22.707  0.00  0.00    +0.000 N 
ATOM      6  C   UNL     1      -0.790  12.546  22.694  0.00  0.00    +0.000 C 
ATOM      7  O   UNL     1       0.111  13.145  22.114  0.00  0.00    +0.000 OA
ATOM      8  N   UNL     1       0.977  10.673  21.407  0.00  0.00    +0.000 NA
ATOM      9  C   UNL     1       1.725   9.756  20.741  0.00  0.00    +0.000 A 
ATOM     10  H   UNL     1      -1.804  10.798  23.139  0.00  0.00    +0.000 HD
ENDROOT
BRANCH   6  11
ATOM     11  C   UNL     1      -1.785  13.382  23.435  0.00  0.00    +0.000 A 
ATOM     12  C   UNL     1      -3.123  13.021  23.626  0.00  0.00    +0.000 A 
ATOM     13  C   UNL     1      -3.952  13.822  24.424  0.00  0.00    +0.000 A 
ATOM     14  C   UNL     1      -3.453  14.975  25.030  0.00  0.00    +0.000 A 
ATOM     15  C   UNL     1      -2.126  15.346  24.833  0.00  0.00    +0.000 A 
ATOM     16  C   UNL     1      -1.300  14.556  24.036  0.00  0.00    +0.000 A 
ENDBRANCH   6  11
BRANCH   1  19
ATOM     17  C   UNL     1       2.255   7.552  18.504  0.00  0.00    +0.000 C 
ATOM     18  O   UNL     1       1.586   8.290  17.790  0.00  0.00    +0.000 OA
ATOM     19  N   UNL     1       2.208   7.515  19.893  0.00  0.00    +0.000 N 
ATOM     20  H   UNL     1       2.866   6.920  20.384  0.00  0.00    +0.000 HD
BRANCH  17  25
ATOM     21  C   UNL     1       5.971   3.839  16.185  0.00  0.00    +0.000 C 
ATOM     22  C   UNL     1       5.028   4.859  16.743  0.00  0.00    +0.000 A 
ATOM     23  C   UNL     1       5.326   6.215  16.752  0.00  0.00    +0.000 A 
ATOM     24  C   UNL     1       4.397   7.106  17.292  0.00  0.00    +0.000 A 
ATOM     25  C   UNL     1       3.192   6.622  17.822  0.00  0.00    +0.000 A 
ATOM     26  C   UNL     1       2.971   5.241  17.794  0.00  0.00    +0.000 A 
ATOM     27  C   UNL     1       1.754   4.540  18.326  0.00  0.00    +0.000 C 
ATOM     28  N   UNL     1       3.870   4.376  17.244  0.00  0.00    +0.000 NA
ENDBRANCH  17  25
ENDBRANCH   1  19
TORSDOF 3
ENDMDL
MODEL 8
REMARK VINA RESULT:      -8.1      1.919     10.630
REMARK  Name = 
REMARK  5 active torsions:
REMARK  status: ('A' for Active; 'I' for Inactive)
REMARK    1  A    between atoms: C_1  and  C_2
REMARK    2  A    between atoms: C_5  and  C_6
REMARK    3  A    between atoms: N_8  and  C_9
REMARK    4  A    between atoms: C_14  and  C_16
REMARK    5  A    between atoms: C_24  and  C_25
REMARK                            x       y       z     vdW  Elec       q    Type
REMARK                         _______ _______ _______ _____ _____    ______ ____
ROOT
ATOM      1  C   UNL     1      -0.172  11.009  21.740  0.00  0.00    +0.000 A 
ATOM      2  C   UNL     1       0.036   9.787  22.376  0.00  0.00    +0.000 A 
ATOM      3  C   UNL     1       0.693   8.739  21.721  0.00  0.00    +0.000 A 
ATOM      4  C   UNL     1       1.108   8.917  20.413  0.00  0.00    +0.000 A 
ATOM      5  N   UNL     1       1.818   7.862  19.807  0.00  0.00    +0.000 N 
ATOM      6  C   UNL     1       2.331   7.913  18.528  0.00  0.00    +0.000 C 
ATOM      7  O   UNL     1       2.264   8.871  17.763  0.00  0.00    +0.000 OA
ATOM      8  N   UNL     1       0.850  10.058  19.752  0.00  0.00    +0.000 NA
ATOM      9  C   UNL     1       0.228  11.072  20.406  0.00  0.00    +0.000 A 
ATOM     10  H   UNL     1       2.012   7.058  20.384  0.00  0.00    +0.000 HD
ENDROOT
BRANCH   6  11
ATOM     11  C   UNL     1       3.054   6.703  18.028  0.00  0.00    +0.000 A 
ATOM     12  C   UNL     1       2.551   5.400  18.116  0.00  0.00    +0.000 A 
ATOM     13  C   UNL     1       3.256   4.342  17.525  0.00  0.00    +0.000 A 
ATOM     14  C   UNL     1       4.454   4.578  16.849  0.00  0.00    +0.000 A 
ATOM     15  C   UNL     1       4.965   5.870  16.770  0.00  0.00    +0.000 A 
ATOM     16  C   UNL     1       4.270   6.924  17.360  0.00  0.00    +0.000 A 
ENDBRANCH   6  11
BRANCH   1  19
ATOM     17  C   UNL     1      -1.926  12.751  22.007  0.00  0.00    +0.000 C 
ATOM     18  O   UNL     1      -2.613  12.429  21.045  0.00  0.00    +0.000 OA
ATOM     19  N   UNL     1      -0.730  12.148  22.380  0.00  0.00    +0.000 N 
ATOM     20  H   UNL     1      -0.287  12.444  23.243  0.00  0.00    +0.000 HD
BRANCH  17  25
ATOM     21  C   UNL     1      -4.131  17.085  25.060  0.00  0.00    +0.000 C 
ATOM     22  C   UNL     1      -3.495  15.995  24.256  0.00  0.00    +0.000 A 
ATOM     23  C   UNL     1      -2.545  16.256  23.277  0.00  0.00    +0.000 A 
ATOM     24  C   UNL     1      -1.997  15.187  22.567  0.00  0.00    +0.000 A 
ATOM     25  C   UNL     1      -2.418  13.878  22.840  0.00  0.00    +0.000 A 
ATOM     26  C   UNL     1      -3.392  13.695  23.829  0.00  0.00    +0.000 A 
ATOM     27  C   UNL     1      -3.975  12.376  24.247  0.00  0.00    +0.000 C 
ATOM     28  N   UNL     1      -3.907  14.739  24.537  0.00  0.00    +0.000 NA
ENDBRANCH  17  25
ENDBRANCH   1  19
TORSDOF 3
ENDMDL
MODEL 9
REMARK VINA RESULT:      -8.0      2.289     10.973
REMARK  Name = 
REMARK  5 active torsions:
REMARK  status: ('A' for Active; 'I' for Inactive)
REMARK    1  A    between atoms: C_1  and  C_2
REMARK    2  A    between atoms: C_5  and  C_6
REMARK    3  A    between atoms: N_8  and  C_9
REMARK    4  A    between atoms: C_14  and  C_16
REMARK    5  A    between atoms: C_24  and  C_25
REMARK                            x       y       z     vdW  Elec       q    Type
REMARK                         _______ _______ _______ _____ _____    ______ ____
ROOT
ATOM      1  C   UNL     1      -1.183  11.763  22.204  0.00  0.00    +0.000 A 
ATOM      2  C   UNL     1      -0.758  10.688  22.982  0.00  0.00    +0.000 A 
ATOM      3  C   UNL     1       0.013   9.660  22.427  0.00  0.00    +0.000 A 
ATOM      4  C   UNL     1       0.323   9.702  21.079  0.00  0.00    +0.000 A 
ATOM      5  N   UNL     1       1.149   8.683  20.570  0.00  0.00    +0.000 N 
ATOM      6  C   UNL     1       1.578   8.620  19.260  0.00  0.00    +0.000 C 
ATOM      7  O   UNL     1       1.325   9.437  18.380  0.00  0.00    +0.000 OA
ATOM      8  N   UNL     1      -0.140  10.688  20.291  0.00  0.00    +0.000 NA
ATOM      9  C   UNL     1      -0.872  11.687  20.847  0.00  0.00    +0.000 A 
ATOM     10  H   UNL     1       1.494   8.006  21.235  0.00  0.00    +0.000 HD
ENDROOT
BRANCH   6  11
ATOM     11  C   UNL     1       2.446   7.464  18.876  0.00  0.00    +0.000 A 
ATOM     12  C   UNL     1       3.309   7.467  17.774  0.00  0.00    +0.000 A 
ATOM     13  C   UNL     1       4.160   6.375  17.555  0.00  0.00    +0.000 A 
ATOM     14  C   UNL     1       4.154   5.286  18.427  0.00  0.00    +0.000 A 
ATOM     15  C   UNL     1       3.288   5.272  19.517  0.00  0.00    +0.000 A 
ATOM     16  C   UNL     1       2.437   6.353  19.736  0.00  0.00    +0.000 A 
ENDBRANCH   6  11
BRANCH   1  19
ATOM     17  C   UNL     1      -3.008  12.820  23.522  0.00  0.00    +0.000 C 
ATOM     18  O   UNL     1      -3.603  11.790  23.818  0.00  0.00    +0.000 OA
ATOM     19  N   UNL     1      -1.871  12.892  22.725  0.00  0.00    +0.000 N 
ATOM     20  H   UNL     1      -1.414  13.791  22.612  0.00  0.00    +0.000 HD
BRANCH  17  25
ATOM     21  C   UNL     1      -5.042  17.886  25.301  0.00  0.00    +0.000 C 
ATOM     22  C   UNL     1      -4.475  16.560  24.901  0.00  0.00    +0.000 A 
ATOM     23  C   UNL     1      -3.248  16.108  25.369  0.00  0.00    +0.000 A 
ATOM     24  C   UNL     1      -2.784  14.860  24.950  0.00  0.00    +0.000 A 
ATOM     25  C   UNL     1      -3.551  14.093  24.062  0.00  0.00    +0.000 A 
ATOM     26  C   UNL     1      -4.769  14.622  23.620  0.00  0.00    +0.000 A 
ATOM     27  C   UNL     1      -5.714  13.957  22.661  0.00  0.00    +0.000 C 
ATOM     28  N   UNL     1      -5.230  15.830  24.050  0.00  0.00    +0.000 NA
ENDBRANCH  17  25
ENDBRANCH   1  19
TORSDOF 3
ENDMDL
