MODEL 1
REMARK VINA RESULT:      -8.6      0.000      0.000
REMARK  Name = 
REMARK  7 active torsions:
REMARK  status: ('A' for Active; 'I' for Inactive)
REMARK    1  A    between atoms: C_1  and  C_2
REMARK    2  A    between atoms: N_6  and  C_7
REMARK    3  A    between atoms: C_8  and  C_9
REMARK    4  A    between atoms: C_9  and  C_10
REMARK    5  A    between atoms: C_10  and  C_11
REMARK    6  A    between atoms: C_15  and  N_16
REMARK    7  A    between atoms: C_23  and  C_24
REMARK                            x       y       z     vdW  Elec       q    Type
REMARK                         _______ _______ _______ _____ _____    ______ ____
ROOT
ATOM      1  C   UNL     1       7.854   7.637  17.841  0.00  0.00    +0.000 A 
ATOM      2  C   UNL     1       7.869   6.784  18.953  0.00  0.00    +0.000 A 
ATOM      3  C   UNL     1       7.734   5.409  18.798  0.00  0.00    +0.000 A 
ATOM      4  C   UNL     1       7.447   4.884  17.546  0.00  0.00    +0.000 A 
ATOM      5  C   UNL     1       7.157   5.754  16.485  0.00  0.00    +0.000 A 
ATOM      6  C   UNL     1       7.526   7.098  16.590  0.00  0.00    +0.000 A 
ENDROOT
BRANCH   5   7
ATOM      7  N   UNL     1       6.082   5.417  15.559  0.00  0.00    +0.000 N 
ATOM      8  C   UNL     1       4.908   6.292  15.801  0.00  0.00    +0.000 C 
ATOM      9  C   UNL     1       4.127   5.500  16.807  0.00  0.00    +0.000 A 
ATOM     10  C   UNL     1       4.437   4.152  16.601  0.00  0.00    +0.000 A 
ATOM     11  C   UNL     1       4.017   3.145  17.449  0.00  0.00    +0.000 A 
ATOM     12  C   UNL     1       3.263   3.520  18.558  0.00  0.00    +0.000 A 
ATOM     13  C   UNL     1       2.958   4.876  18.792  0.00  0.00    +0.000 A 
ATOM     14  C   UNL     1       3.387   5.898  17.917  0.00  0.00    +0.000 A 
ATOM     15  C   UNL     1       5.583   4.088  15.664  0.00  0.00    +0.000 C 
ATOM     16  O   UNL     1       6.094   3.058  15.273  0.00  0.00    +0.000 OA
BRANCH  14  17
ATOM     17  C   UNL     1       3.130   7.338  18.281  0.00  0.00    +0.000 C 
ATOM     18  F   UNL     1       4.195   8.162  18.092  0.00  0.00    +0.000 F 
ATOM     19  F   UNL     1       2.113   7.878  17.552  0.00  0.00    +0.000 F 
ATOM     20  F   UNL     1       2.775   7.487  19.586  0.00  0.00    +0.000 F 
ENDBRANCH  14  17
ENDBRANCH   5   7
BRANCH   1  21
ATOM     21  C   UNL     1       8.039   9.130  17.968  0.00  0.00    +0.000 C 
BRANCH  21  22
ATOM     22  C   UNL     1       9.058   9.532  19.036  0.00  0.00    +0.000 C 
BRANCH  22  24
ATOM     23  C   UNL     1       9.071  11.789  17.990  0.00  0.00    +0.000 C 
ATOM     24  C   UNL     1       9.323  11.003  19.039  0.00  0.00    +0.000 C 
BRANCH  23  30
ATOM     25  C   UNL     1      11.694  13.066  17.024  0.00  0.00    +0.000 C 
ATOM     26  C   UNL     1      10.476  13.780  17.466  0.00  0.00    +0.000 A 
ATOM     27  N   UNL     1      10.321  15.092  17.517  0.00  0.00    +0.000 NA
ATOM     28  N   UNL     1       9.064  15.351  17.986  0.00  0.00    +0.000 NA
ATOM     29  C   UNL     1       8.476  14.203  18.207  0.00  0.00    +0.000 A 
ATOM     30  N   UNL     1       9.315  13.161  17.892  0.00  0.00    +0.000 N 
ENDBRANCH  23  30
ENDBRANCH  22  24
ENDBRANCH  21  22
ENDBRANCH   1  21
TORSDOF 6
ENDMDL
MODEL 2
REMARK VINA RESULT:      -8.6      0.365      1.293
REMARK  Name = 
REMARK  7 active torsions:
REMARK  status: ('A' for Active; 'I' for Inactive)
REMARK    1  A    between atoms: C_1  and  C_2
REMARK    2  A    between atoms: N_6  and  C_7
REMARK    3  A    between atoms: C_8  and  C_9
REMARK    4  A    between atoms: C_9  and  C_10
REMARK    5  A    between atoms: C_10  and  C_11
REMARK    6  A    between atoms: C_15  and  N_16
REMARK    7  A    between atoms: C_23  and  C_24
REMARK                            x       y       z     vdW  Elec       q    Type
REMARK                         _______ _______ _______ _____ _____    ______ ____
ROOT
ATOM      1  C   UNL     1       7.891   7.608  17.831  0.00  0.00    +0.000 A 
ATOM      2  C   UNL     1       7.884   6.760  18.947  0.00  0.00    +0.000 A 
ATOM      3  C   UNL     1       7.730   5.387  18.797  0.00  0.00    +0.000 A 
ATOM      4  C   UNL     1       7.445   4.861  17.545  0.00  0.00    +0.000 A 
ATOM      5  C   UNL     1       7.177   5.731  16.478  0.00  0.00    +0.000 A 
ATOM      6  C   UNL     1       7.565   7.070  16.580  0.00  0.00    +0.000 A 
ENDROOT
BRANCH   5   7
ATOM      7  N   UNL     1       6.104   5.405  15.545  0.00  0.00    +0.000 N 
ATOM      8  C   UNL     1       4.942   6.300  15.772  0.00  0.00    +0.000 C 
ATOM      9  C   UNL     1       4.140   5.526  16.775  0.00  0.00    +0.000 A 
ATOM     10  C   UNL     1       4.431   4.172  16.579  0.00  0.00    +0.000 A 
ATOM     11  C   UNL     1       3.988   3.176  17.429  0.00  0.00    +0.000 A 
ATOM     12  C   UNL     1       3.231   3.569  18.530  0.00  0.00    +0.000 A 
ATOM     13  C   UNL     1       2.945   4.930  18.754  0.00  0.00    +0.000 A 
ATOM     14  C   UNL     1       3.397   5.941  17.878  0.00  0.00    +0.000 A 
ATOM     15  C   UNL     1       5.584   4.085  15.652  0.00  0.00    +0.000 C 
ATOM     16  O   UNL     1       6.082   3.045  15.271  0.00  0.00    +0.000 OA
BRANCH  14  17
ATOM     17  C   UNL     1       3.160   7.387  18.232  0.00  0.00    +0.000 C 
ATOM     18  F   UNL     1       2.730   7.587  19.507  0.00  0.00    +0.000 F 
ATOM     19  F   UNL     1       4.289   8.138  18.102  0.00  0.00    +0.000 F 
ATOM     20  F   UNL     1       2.228   7.969  17.432  0.00  0.00    +0.000 F 
ENDBRANCH  14  17
ENDBRANCH   5   7
BRANCH   1  21
ATOM     21  C   UNL     1       8.097   9.100  17.954  0.00  0.00    +0.000 C 
BRANCH  21  22
ATOM     22  C   UNL     1       8.954   9.502  19.155  0.00  0.00    +0.000 C 
BRANCH  22  24
ATOM     23  C   UNL     1       9.269  11.671  17.978  0.00  0.00    +0.000 C 
ATOM     24  C   UNL     1       9.601  10.836  18.965  0.00  0.00    +0.000 C 
BRANCH  23  30
ATOM     25  C   UNL     1       8.109  14.386  18.831  0.00  0.00    +0.000 C 
ATOM     26  C   UNL     1       9.355  14.161  18.066  0.00  0.00    +0.000 A 
ATOM     27  N   UNL     1      10.175  15.099  17.623  0.00  0.00    +0.000 NA
ATOM     28  N   UNL     1      11.199  14.487  16.959  0.00  0.00    +0.000 NA
ATOM     29  C   UNL     1      10.993  13.195  17.011  0.00  0.00    +0.000 A 
ATOM     30  N   UNL     1       9.840  12.917  17.706  0.00  0.00    +0.000 N 
ENDBRANCH  23  30
ENDBRANCH  22  24
ENDBRANCH  21  22
ENDBRANCH   1  21
TORSDOF 6
ENDMDL
MODEL 3
REMARK VINA RESULT:      -8.5      0.926      1.030
REMARK  Name = 
REMARK  7 active torsions:
REMARK  status: ('A' for Active; 'I' for Inactive)
REMARK    1  A    between atoms: C_1  and  C_2
REMARK    2  A    between atoms: N_6  and  C_7
REMARK    3  A    between atoms: C_8  and  C_9
REMARK    4  A    between atoms: C_9  and  C_10
REMARK    5  A    between atoms: C_10  and  C_11
REMARK    6  A    between atoms: C_15  and  N_16
REMARK    7  A    between atoms: C_23  and  C_24
REMARK                            x       y       z     vdW  Elec       q    Type
REMARK                         _______ _______ _______ _____ _____    ______ ____
ROOT
ATOM      1  C   UNL     1       7.815   7.608  17.806  0.00  0.00    +0.000 A 
ATOM      2  C   UNL     1       7.855   6.765  18.926  0.00  0.00    +0.000 A 
ATOM      3  C   UNL     1       7.736   5.388  18.785  0.00  0.00    +0.000 A 
ATOM      4  C   UNL     1       7.440   4.847  17.541  0.00  0.00    +0.000 A 
ATOM      5  C   UNL     1       7.126   5.704  16.476  0.00  0.00    +0.000 A 
ATOM      6  C   UNL     1       7.479   7.054  16.565  0.00  0.00    +0.000 A 
ENDROOT
BRANCH   5   7
ATOM      7  N   UNL     1       6.044   5.345  15.567  0.00  0.00    +0.000 N 
ATOM      8  C   UNL     1       4.866   6.214  15.807  0.00  0.00    +0.000 C 
ATOM      9  C   UNL     1       4.101   5.432  16.833  0.00  0.00    +0.000 A 
ATOM     10  C   UNL     1       4.419   4.084  16.645  0.00  0.00    +0.000 A 
ATOM     11  C   UNL     1       4.017   3.087  17.513  0.00  0.00    +0.000 A 
ATOM     12  C   UNL     1       3.271   3.473  18.624  0.00  0.00    +0.000 A 
ATOM     13  C   UNL     1       2.958   4.830  18.840  0.00  0.00    +0.000 A 
ATOM     14  C   UNL     1       3.370   5.841  17.945  0.00  0.00    +0.000 A 
ATOM     15  C   UNL     1       5.557   4.014  15.697  0.00  0.00    +0.000 C 
ATOM     16  O   UNL     1       6.071   2.981  15.317  0.00  0.00    +0.000 OA
BRANCH  14  17
ATOM     17  C   UNL     1       3.105   7.285  18.290  0.00  0.00    +0.000 C 
ATOM     18  F   UNL     1       4.154   8.118  18.055  0.00  0.00    +0.000 F 
ATOM     19  F   UNL     1       2.061   7.798  17.581  0.00  0.00    +0.000 F 
ATOM     20  F   UNL     1       2.787   7.454  19.601  0.00  0.00    +0.000 F 
ENDBRANCH  14  17
ENDBRANCH   5   7
BRANCH   1  21
ATOM     21  C   UNL     1       7.982   9.105  17.918  0.00  0.00    +0.000 C 
BRANCH  21  22
ATOM     22  C   UNL     1       9.053   9.528  18.924  0.00  0.00    +0.000 C 
BRANCH  22  24
ATOM     23  C   UNL     1      10.489  11.524  19.299  0.00  0.00    +0.000 C 
ATOM     24  C   UNL     1       9.350  10.991  18.852  0.00  0.00    +0.000 C 
BRANCH  23  30
ATOM     25  C   UNL     1      11.377  13.141  16.840  0.00  0.00    +0.000 C 
ATOM     26  C   UNL     1      11.243  13.644  18.225  0.00  0.00    +0.000 A 
ATOM     27  N   UNL     1      11.487  14.879  18.629  0.00  0.00    +0.000 NA
ATOM     28  N   UNL     1      11.255  14.937  19.974  0.00  0.00    +0.000 NA
ATOM     29  C   UNL     1      10.872  13.748  20.365  0.00  0.00    +0.000 A 
ATOM     30  N   UNL     1      10.837  12.877  19.302  0.00  0.00    +0.000 N 
ENDBRANCH  23  30
ENDBRANCH  22  24
ENDBRANCH  21  22
ENDBRANCH   1  21
TORSDOF 6
ENDMDL
MODEL 4
REMARK VINA RESULT:      -8.4      5.090      7.611
REMARK  Name = 
REMARK  7 active torsions:
REMARK  status: ('A' for Active; 'I' for Inactive)
REMARK    1  A    between atoms: C_1  and  C_2
REMARK    2  A    between atoms: N_6  and  C_7
REMARK    3  A    between atoms: C_8  and  C_9
REMARK    4  A    between atoms: C_9  and  C_10
REMARK    5  A    between atoms: C_10  and  C_11
REMARK    6  A    between atoms: C_15  and  N_16
REMARK    7  A    between atoms: C_23  and  C_24
REMARK                            x       y       z     vdW  Elec       q    Type
REMARK                         _______ _______ _______ _____ _____    ______ ____
ROOT
ATOM      1  C   UNL     1       1.836   3.846  18.641  0.00  0.00    +0.000 A 
ATOM      2  C   UNL     1       1.673   3.338  19.938  0.00  0.00    +0.000 A 
ATOM      3  C   UNL     1       1.371   4.182  21.000  0.00  0.00    +0.000 A 
ATOM      4  C   UNL     1       1.363   5.556  20.805  0.00  0.00    +0.000 A 
ATOM      5  C   UNL     1       1.798   6.079  19.578  0.00  0.00    +0.000 A 
ATOM      6  C   UNL     1       1.863   5.235  18.466  0.00  0.00    +0.000 A 
ENDROOT
BRANCH   5   7
ATOM      7  N   UNL     1       2.626   7.279  19.568  0.00  0.00    +0.000 N 
ATOM      8  C   UNL     1       2.273   8.153  20.715  0.00  0.00    +0.000 C 
ATOM      9  C   UNL     1       1.208   9.030  20.127  0.00  0.00    +0.000 A 
ATOM     10  C   UNL     1       1.452   9.109  18.752  0.00  0.00    +0.000 A 
ATOM     11  C   UNL     1       0.578   9.710  17.866  0.00  0.00    +0.000 A 
ATOM     12  C   UNL     1      -0.597  10.240  18.392  0.00  0.00    +0.000 A 
ATOM     13  C   UNL     1      -0.868  10.152  19.772  0.00  0.00    +0.000 A 
ATOM     14  C   UNL     1       0.032   9.540  20.671  0.00  0.00    +0.000 A 
ATOM     15  C   UNL     1       2.488   8.104  18.417  0.00  0.00    +0.000 C 
ATOM     16  O   UNL     1       2.932   7.922  17.300  0.00  0.00    +0.000 OA
BRANCH  14  17
ATOM     17  C   UNL     1      -0.366   9.372  22.115  0.00  0.00    +0.000 C 
ATOM     18  F   UNL     1      -1.257  10.296  22.562  0.00  0.00    +0.000 F 
ATOM     19  F   UNL     1      -0.943   8.160  22.350  0.00  0.00    +0.000 F 
ATOM     20  F   UNL     1       0.699   9.448  22.957  0.00  0.00    +0.000 F 
ENDBRANCH  14  17
ENDBRANCH   5   7
BRANCH   1  21
ATOM     21  C   UNL     1       2.124   2.954  17.457  0.00  0.00    +0.000 C 
BRANCH  21  22
ATOM     22  C   UNL     1       3.422   2.155  17.594  0.00  0.00    +0.000 C 
BRANCH  22  24
ATOM     23  C   UNL     1       4.711   3.886  16.357  0.00  0.00    +0.000 C 
ATOM     24  C   UNL     1       4.632   2.998  17.350  0.00  0.00    +0.000 C 
BRANCH  23  30
ATOM     25  C   UNL     1       6.243   3.825  13.693  0.00  0.00    +0.000 C 
ATOM     26  C   UNL     1       6.527   4.696  14.854  0.00  0.00    +0.000 A 
ATOM     27  N   UNL     1       7.495   5.594  14.932  0.00  0.00    +0.000 NA
ATOM     28  N   UNL     1       7.431   6.179  16.164  0.00  0.00    +0.000 NA
ATOM     29  C   UNL     1       6.430   5.637  16.812  0.00  0.00    +0.000 A 
ATOM     30  N   UNL     1       5.808   4.689  16.035  0.00  0.00    +0.000 N 
ENDBRANCH  23  30
ENDBRANCH  22  24
ENDBRANCH  21  22
ENDBRANCH   1  21
TORSDOF 6
ENDMDL
MODEL 5
REMARK VINA RESULT:      -8.3      5.820      8.320
REMARK  Name = 
REMARK  7 active torsions:
REMARK  status: ('A' for Active; 'I' for Inactive)
REMARK    1  A    between atoms: C_1  and  C_2
REMARK    2  A    between atoms: N_6  and  C_7
REMARK    3  A    between atoms: C_8  and  C_9
REMARK    4  A    between atoms: C_9  and  C_10
REMARK    5  A    between atoms: C_10  and  C_11
REMARK    6  A    between atoms: C_15  and  N_16
REMARK    7  A    between atoms: C_23  and  C_24
REMARK                            x       y       z     vdW  Elec       q    Type
REMARK                         _______ _______ _______ _____ _____    ______ ____
ROOT
ATOM      1  C   UNL     1       1.313   8.892  19.823  0.00  0.00    +0.000 A 
ATOM      2  C   UNL     1       1.814   9.305  18.581  0.00  0.00    +0.000 A 
ATOM      3  C   UNL     1       2.401   8.393  17.711  0.00  0.00    +0.000 A 
ATOM      4  C   UNL     1       2.616   7.087  18.128  0.00  0.00    +0.000 A 
ATOM      5  C   UNL     1       2.371   6.742  19.465  0.00  0.00    +0.000 A 
ATOM      6  C   UNL     1       1.571   7.582  20.246  0.00  0.00    +0.000 A 
ENDROOT
BRANCH   5   7
ATOM      7  N   UNL     1       3.301   5.857  20.156  0.00  0.00    +0.000 N 
ATOM      8  C   UNL     1       4.459   5.550  19.279  0.00  0.00    +0.000 C 
ATOM      9  C   UNL     1       3.997   4.311  18.571  0.00  0.00    +0.000 A 
ATOM     10  C   UNL     1       3.090   3.666  19.417  0.00  0.00    +0.000 A 
ATOM     11  C   UNL     1       2.344   2.570  19.027  0.00  0.00    +0.000 A 
ATOM     12  C   UNL     1       2.514   2.117  17.721  0.00  0.00    +0.000 A 
ATOM     13  C   UNL     1       3.409   2.767  16.848  0.00  0.00    +0.000 A 
ATOM     14  C   UNL     1       4.171   3.883  17.257  0.00  0.00    +0.000 A 
ATOM     15  C   UNL     1       2.773   4.591  20.531  0.00  0.00    +0.000 C 
ATOM     16  O   UNL     1       2.017   4.329  21.446  0.00  0.00    +0.000 OA
BRANCH  14  17
ATOM     17  C   UNL     1       5.022   4.608  16.245  0.00  0.00    +0.000 C 
ATOM     18  F   UNL     1       4.667   5.904  16.040  0.00  0.00    +0.000 F 
ATOM     19  F   UNL     1       6.335   4.639  16.609  0.00  0.00    +0.000 F 
ATOM     20  F   UNL     1       4.987   4.016  15.021  0.00  0.00    +0.000 F 
ENDBRANCH  14  17
ENDBRANCH   5   7
BRANCH   1  21
ATOM     21  C   UNL     1       0.634   9.847  20.776  0.00  0.00    +0.000 C 
BRANCH  21  22
ATOM     22  C   UNL     1       0.156  11.138  20.110  0.00  0.00    +0.000 C 
BRANCH  22  24
ATOM     23  C   UNL     1      -1.742  11.582  18.564  0.00  0.00    +0.000 C 
ATOM     24  C   UNL     1      -1.282  11.067  19.706  0.00  0.00    +0.000 C 
BRANCH  23  30
ATOM     25  C   UNL     1      -2.692  10.748  15.763  0.00  0.00    +0.000 C 
ATOM     26  C   UNL     1      -3.541  11.227  16.876  0.00  0.00    +0.000 A 
ATOM     27  N   UNL     1      -4.855  11.376  16.841  0.00  0.00    +0.000 NA
ATOM     28  N   UNL     1      -5.259  11.847  18.057  0.00  0.00    +0.000 NA
ATOM     29  C   UNL     1      -4.195  11.974  18.810  0.00  0.00    +0.000 A 
ATOM     30  N   UNL     1      -3.068  11.591  18.123  0.00  0.00    +0.000 N 
ENDBRANCH  23  30
ENDBRANCH  22  24
ENDBRANCH  21  22
ENDBRANCH   1  21
TORSDOF 6
ENDMDL
MODEL 6
REMARK VINA RESULT:      -8.2      4.864      7.683
REMARK  Name = 
REMARK  7 active torsions:
REMARK  status: ('A' for Active; 'I' for Inactive)
REMARK    1  A    between atoms: C_1  and  C_2
REMARK    2  A    between atoms: N_6  and  C_7
REMARK    3  A    between atoms: C_8  and  C_9
REMARK    4  A    between atoms: C_9  and  C_10
REMARK    5  A    between atoms: C_10  and  C_11
REMARK    6  A    between atoms: C_15  and  N_16
REMARK    7  A    between atoms: C_23  and  C_24
REMARK                            x       y       z     vdW  Elec       q    Type
REMARK                         _______ _______ _______ _____ _____    ______ ____
ROOT
ATOM      1  C   UNL     1       1.993   7.538  19.864  0.00  0.00    +0.000 A 
ATOM      2  C   UNL     1       2.430   8.314  18.782  0.00  0.00    +0.000 A 
ATOM      3  C   UNL     1       2.996   7.718  17.661  0.00  0.00    +0.000 A 
ATOM      4  C   UNL     1       3.256   6.355  17.665  0.00  0.00    +0.000 A 
ATOM      5  C   UNL     1       3.077   5.624  18.849  0.00  0.00    +0.000 A 
ATOM      6  C   UNL     1       2.296   6.170  19.872  0.00  0.00    +0.000 A 
ENDROOT
BRANCH   5   7
ATOM      7  N   UNL     1       4.055   4.605  19.213  0.00  0.00    +0.000 N 
ATOM      8  C   UNL     1       5.408   5.208  19.306  0.00  0.00    +0.000 C 
ATOM      9  C   UNL     1       5.927   5.034  17.910  0.00  0.00    +0.000 A 
ATOM     10  C   UNL     1       5.284   3.916  17.368  0.00  0.00    +0.000 A 
ATOM     11  C   UNL     1       5.402   3.550  16.040  0.00  0.00    +0.000 A 
ATOM     12  C   UNL     1       6.194   4.356  15.226  0.00  0.00    +0.000 A 
ATOM     13  C   UNL     1       6.834   5.496  15.751  0.00  0.00    +0.000 A 
ATOM     14  C   UNL     1       6.711   5.861  17.109  0.00  0.00    +0.000 A 
ATOM     15  C   UNL     1       4.189   3.532  18.289  0.00  0.00    +0.000 C 
ATOM     16  O   UNL     1       3.440   2.592  18.111  0.00  0.00    +0.000 OA
BRANCH  14  17
ATOM     17  C   UNL     1       7.322   7.154  17.586  0.00  0.00    +0.000 C 
ATOM     18  F   UNL     1       6.419   8.135  17.851  0.00  0.00    +0.000 F 
ATOM     19  F   UNL     1       8.036   6.991  18.734  0.00  0.00    +0.000 F 
ATOM     20  F   UNL     1       8.186   7.683  16.679  0.00  0.00    +0.000 F 
ENDBRANCH  14  17
ENDBRANCH   5   7
BRANCH   1  21
ATOM     21  C   UNL     1       1.337   8.147  21.081  0.00  0.00    +0.000 C 
BRANCH  21  22
ATOM     22  C   UNL     1       0.911   9.603  20.880  0.00  0.00    +0.000 C 
BRANCH  22  24
ATOM     23  C   UNL     1      -0.586  10.564  19.141  0.00  0.00    +0.000 C 
ATOM     24  C   UNL     1      -0.390   9.714  20.151  0.00  0.00    +0.000 C 
BRANCH  23  30
ATOM     25  C   UNL     1      -2.796  12.571  19.872  0.00  0.00    +0.000 C 
ATOM     26  C   UNL     1      -2.791  11.646  18.717  0.00  0.00    +0.000 A 
ATOM     27  N   UNL     1      -3.746  11.534  17.809  0.00  0.00    +0.000 NA
ATOM     28  N   UNL     1      -3.371  10.568  16.919  0.00  0.00    +0.000 NA
ATOM     29  C   UNL     1      -2.201  10.113  17.293  0.00  0.00    +0.000 A 
ATOM     30  N   UNL     1      -1.771  10.759  18.427  0.00  0.00    +0.000 N 
ENDBRANCH  23  30
ENDBRANCH  22  24
ENDBRANCH  21  22
ENDBRANCH   1  21
TORSDOF 6
ENDMDL
MODEL 7
REMARK VINA RESULT:      -8.2      5.804      8.287
REMARK  Name = 
REMARK  7 active torsions:
REMARK  status: ('A' for Active; 'I' for Inactive)
REMARK    1  A    between atoms: C_1  and  C_2
REMARK    2  A    between atoms: N_6  and  C_7
REMARK    3  A    between atoms: C_8  and  C_9
REMARK    4  A    between atoms: C_9  and  C_10
REMARK    5  A    between atoms: C_10  and  C_11
REMARK    6  A    between atoms: C_15  and  N_16
REMARK    7  A    between atoms: C_23  and  C_24
REMARK                            x       y       z     vdW  Elec       q    Type
REMARK                         _______ _______ _______ _____ _____    ______ ____
ROOT
ATOM      1  C   UNL     1       1.433   8.769  19.660  0.00  0.00    +0.000 A 
ATOM      2  C   UNL     1       2.012   9.178  18.451  0.00  0.00    +0.000 A 
ATOM      3  C   UNL     1       2.664   8.266  17.630  0.00  0.00    +0.000 A 
ATOM      4  C   UNL     1       2.863   6.965  18.070  0.00  0.00    +0.000 A 
ATOM      5  C   UNL     1       2.531   6.627  19.390  0.00  0.00    +0.000 A 
ATOM      6  C   UNL     1       1.673   7.465  20.109  0.00  0.00    +0.000 A 
ENDROOT
BRANCH   5   7
ATOM      7  N   UNL     1       3.421   5.756  20.148  0.00  0.00    +0.000 N 
ATOM      8  C   UNL     1       4.605   5.397  19.328  0.00  0.00    +0.000 C 
ATOM      9  C   UNL     1       4.149   4.140  18.650  0.00  0.00    +0.000 A 
ATOM     10  C   UNL     1       3.201   3.541  19.486  0.00  0.00    +0.000 A 
ATOM     11  C   UNL     1       2.453   2.442  19.109  0.00  0.00    +0.000 A 
ATOM     12  C   UNL     1       2.664   1.937  17.829  0.00  0.00    +0.000 A 
ATOM     13  C   UNL     1       3.601   2.539  16.966  0.00  0.00    +0.000 A 
ATOM     14  C   UNL     1       4.365   3.659  17.361  0.00  0.00    +0.000 A 
ATOM     15  C   UNL     1       2.858   4.512  20.551  0.00  0.00    +0.000 C 
ATOM     16  O   UNL     1       2.065   4.298  21.446  0.00  0.00    +0.000 OA
BRANCH  14  17
ATOM     17  C   UNL     1       5.265   4.331  16.355  0.00  0.00    +0.000 C 
ATOM     18  F   UNL     1       5.404   3.651  15.186  0.00  0.00    +0.000 F 
ATOM     19  F   UNL     1       4.814   5.569  16.010  0.00  0.00    +0.000 F 
ATOM     20  F   UNL     1       6.527   4.511  16.830  0.00  0.00    +0.000 F 
ENDBRANCH  14  17
ENDBRANCH   5   7
BRANCH   1  21
ATOM     21  C   UNL     1       0.682   9.724  20.558  0.00  0.00    +0.000 C 
BRANCH  21  22
ATOM     22  C   UNL     1       0.159  10.964  19.830  0.00  0.00    +0.000 C 
BRANCH  22  24
ATOM     23  C   UNL     1      -1.557  11.533  18.121  0.00  0.00    +0.000 C 
ATOM     24  C   UNL     1      -1.040  10.661  18.989  0.00  0.00    +0.000 C 
BRANCH  23  30
ATOM     25  C   UNL     1      -4.458  12.049  18.996  0.00  0.00    +0.000 C 
ATOM     26  C   UNL     1      -4.009  11.567  17.671  0.00  0.00    +0.000 A 
ATOM     27  N   UNL     1      -4.790  11.277  16.645  0.00  0.00    +0.000 NA
ATOM     28  N   UNL     1      -3.997  10.858  15.615  0.00  0.00    +0.000 NA
ATOM     29  C   UNL     1      -2.754  10.902  16.024  0.00  0.00    +0.000 A 
ATOM     30  N   UNL     1      -2.689  11.350  17.322  0.00  0.00    +0.000 N 
ENDBRANCH  23  30
ENDBRANCH  22  24
ENDBRANCH  21  22
ENDBRANCH   1  21
TORSDOF 6
ENDMDL
MODEL 8
REMARK VINA RESULT:      -8.2      4.802      6.594
REMARK  Name = 
REMARK  7 active torsions:
REMARK  status: ('A' for Active; 'I' for Inactive)
REMARK    1  A    between atoms: C_1  and  C_2
REMARK    2  A    between atoms: N_6  and  C_7
REMARK    3  A    between atoms: C_8  and  C_9
REMARK    4  A    between atoms: C_9  and  C_10
REMARK    5  A    between atoms: C_10  and  C_11
REMARK    6  A    between atoms: C_15  and  N_16
REMARK    7  A    between atoms: C_23  and  C_24
REMARK                            x       y       z     vdW  Elec       q    Type
REMARK                         _______ _______ _______ _____ _____    ______ ____
ROOT
ATOM      1  C   UNL     1       2.336   6.025  20.047  0.00  0.00    +0.000 A 
ATOM      2  C   UNL     1       1.288   5.300  20.632  0.00  0.00    +0.000 A 
ATOM      3  C   UNL     1       1.437   3.951  20.933  0.00  0.00    +0.000 A 
ATOM      4  C   UNL     1       2.582   3.279  20.529  0.00  0.00    +0.000 A 
ATOM      5  C   UNL     1       3.507   3.933  19.702  0.00  0.00    +0.000 A 
ATOM      6  C   UNL     1       3.469   5.327  19.611  0.00  0.00    +0.000 A 
ENDROOT
BRANCH   5   7
ATOM      7  N   UNL     1       4.125   3.198  18.604  0.00  0.00    +0.000 N 
ATOM      8  C   UNL     1       5.598   3.377  18.636  0.00  0.00    +0.000 C 
ATOM      9  C   UNL     1       5.786   4.588  17.771  0.00  0.00    +0.000 A 
ATOM     10  C   UNL     1       4.720   4.618  16.866  0.00  0.00    +0.000 A 
ATOM     11  C   UNL     1       4.484   5.682  16.017  0.00  0.00    +0.000 A 
ATOM     12  C   UNL     1       5.356   6.764  16.095  0.00  0.00    +0.000 A 
ATOM     13  C   UNL     1       6.424   6.759  17.014  0.00  0.00    +0.000 A 
ATOM     14  C   UNL     1       6.661   5.666  17.875  0.00  0.00    +0.000 A 
ATOM     15  C   UNL     1       3.729   3.605  17.300  0.00  0.00    +0.000 C 
ATOM     16  O   UNL     1       2.686   3.374  16.721  0.00  0.00    +0.000 OA
BRANCH  14  17
ATOM     17  C   UNL     1       7.747   5.768  18.916  0.00  0.00    +0.000 C 
ATOM     18  F   UNL     1       8.441   6.937  18.890  0.00  0.00    +0.000 F 
ATOM     19  F   UNL     1       7.254   5.661  20.182  0.00  0.00    +0.000 F 
ATOM     20  F   UNL     1       8.676   4.783  18.792  0.00  0.00    +0.000 F 
ENDBRANCH  14  17
ENDBRANCH   5   7
BRANCH   1  21
ATOM     21  C   UNL     1       2.225   7.500  19.744  0.00  0.00    +0.000 C 
BRANCH  21  22
ATOM     22  C   UNL     1       2.292   7.824  18.250  0.00  0.00    +0.000 C 
BRANCH  22  24
ATOM     23  C   UNL     1       0.875   9.797  18.784  0.00  0.00    +0.000 C 
ATOM     24  C   UNL     1       1.659   9.139  17.928  0.00  0.00    +0.000 C 
BRANCH  23  30
ATOM     25  C   UNL     1       2.176  12.578  18.910  0.00  0.00    +0.000 C 
ATOM     26  C   UNL     1       0.759  12.281  18.606  0.00  0.00    +0.000 A 
ATOM     27  N   UNL     1      -0.181  13.171  18.338  0.00  0.00    +0.000 NA
ATOM     28  N   UNL     1      -1.350  12.499  18.123  0.00  0.00    +0.000 NA
ATOM     29  C   UNL     1      -1.106  11.220  18.257  0.00  0.00    +0.000 A 
ATOM     30  N   UNL     1       0.218  11.009  18.559  0.00  0.00    +0.000 N 
ENDBRANCH  23  30
ENDBRANCH  22  24
ENDBRANCH  21  22
ENDBRANCH   1  21
TORSDOF 6
ENDMDL
MODEL 9
REMARK VINA RESULT:      -8.2      4.833      7.473
REMARK  Name = 
REMARK  7 active torsions:
REMARK  status: ('A' for Active; 'I' for Inactive)
REMARK    1  A    between atoms: C_1  and  C_2
REMARK    2  A    between atoms: N_6  and  C_7
REMARK    3  A    between atoms: C_8  and  C_9
REMARK    4  A    between atoms: C_9  and  C_10
REMARK    5  A    between atoms: C_10  and  C_11
REMARK    6  A    between atoms: C_15  and  N_16
REMARK    7  A    between atoms: C_23  and  C_24
REMARK                            x       y       z     vdW  Elec       q    Type
REMARK                         _______ _______ _______ _____ _____    ______ ____
ROOT
ATOM      1  C   UNL     1       1.919   7.313  19.931  0.00  0.00    +0.000 A 
ATOM      2  C   UNL     1       2.377   8.190  18.938  0.00  0.00    +0.000 A 
ATOM      3  C   UNL     1       3.019   7.708  17.803  0.00  0.00    +0.000 A 
ATOM      4  C   UNL     1       3.331   6.359  17.711  0.00  0.00    +0.000 A 
ATOM      5  C   UNL     1       3.123   5.528  18.822  0.00  0.00    +0.000 A 
ATOM      6  C   UNL     1       2.274   5.961  19.844  0.00  0.00    +0.000 A 
ENDROOT
BRANCH   5   7
ATOM      7  N   UNL     1       4.121   4.517  19.153  0.00  0.00    +0.000 N 
ATOM      8  C   UNL     1       5.464   5.142  19.260  0.00  0.00    +0.000 C 
ATOM      9  C   UNL     1       5.981   5.018  17.857  0.00  0.00    +0.000 A 
ATOM     10  C   UNL     1       5.357   3.906  17.284  0.00  0.00    +0.000 A 
ATOM     11  C   UNL     1       5.477   3.581  15.946  0.00  0.00    +0.000 A 
ATOM     12  C   UNL     1       6.251   4.425  15.154  0.00  0.00    +0.000 A 
ATOM     13  C   UNL     1       6.871   5.561  15.711  0.00  0.00    +0.000 A 
ATOM     14  C   UNL     1       6.747   5.883  17.080  0.00  0.00    +0.000 A 
ATOM     15  C   UNL     1       4.272   3.474  18.197  0.00  0.00    +0.000 C 
ATOM     16  O   UNL     1       3.540   2.526  17.993  0.00  0.00    +0.000 OA
BRANCH  14  17
ATOM     17  C   UNL     1       7.335   7.173  17.592  0.00  0.00    +0.000 C 
ATOM     18  F   UNL     1       8.209   7.768  16.737  0.00  0.00    +0.000 F 
ATOM     19  F   UNL     1       6.377   8.107  17.849  0.00  0.00    +0.000 F 
ATOM     20  F   UNL     1       8.015   7.004  18.757  0.00  0.00    +0.000 F 
ENDBRANCH  14  17
ENDBRANCH   5   7
BRANCH   1  21
ATOM     21  C   UNL     1       1.182   7.798  21.157  0.00  0.00    +0.000 C 
BRANCH  21  22
ATOM     22  C   UNL     1       1.222   9.317  21.333  0.00  0.00    +0.000 C 
BRANCH  22  24
ATOM     23  C   UNL     1      -0.371  10.446  19.791  0.00  0.00    +0.000 C 
ATOM     24  C   UNL     1      -0.087   9.959  21.000  0.00  0.00    +0.000 C 
BRANCH  23  30
ATOM     25  C   UNL     1      -1.889   9.942  17.167  0.00  0.00    +0.000 C 
ATOM     26  C   UNL     1      -2.265  10.896  18.233  0.00  0.00    +0.000 A 
ATOM     27  N   UNL     1      -3.321  11.692  18.226  0.00  0.00    +0.000 NA
ATOM     28  N   UNL     1      -3.308  12.421  19.381  0.00  0.00    +0.000 NA
ATOM     29  C   UNL     1      -2.255  12.059  20.070  0.00  0.00    +0.000 A 
ATOM     30  N   UNL     1      -1.549  11.088  19.401  0.00  0.00    +0.000 N 
ENDBRANCH  23  30
ENDBRANCH  22  24
ENDBRANCH  21  22
ENDBRANCH   1  21
TORSDOF 6
ENDMDL
