MODEL 1
REMARK VINA RESULT:      -8.2      0.000      0.000
REMARK  Name = 
REMARK  5 active torsions:
REMARK  status: ('A' for Active; 'I' for Inactive)
REMARK    1  A    between atoms: N_1  and  C_2
REMARK    2  A    between atoms: C_2  and  C_3
REMARK    3  A    between atoms: C_7  and  N_8
REMARK    4  A    between atoms: C_9  and  C_11
REMARK    5  A    between atoms: C_15  and  C_16
REMARK                            x       y       z     vdW  Elec       q    Type
REMARK                         _______ _______ _______ _____ _____    ______ ____
ROOT
ATOM      1  N   UNL     1       2.687   6.438  19.950  0.00  0.00    +0.000 N 
ATOM      2  C   UNL     1       2.401   5.198  19.386  0.00  0.00    +0.000 C 
ATOM      3  O   UNL     1       1.586   5.004  18.493  0.00  0.00    +0.000 OA
ATOM      4  H   UNL     1       3.475   6.489  20.584  0.00  0.00    +0.000 HD
ENDROOT
BRANCH   1   9
ATOM      5  C   UNL     1       1.001   9.778  20.111  0.00  0.00    +0.000 A 
ATOM      6  C   UNL     1       1.198  10.214  18.788  0.00  0.00    +0.000 A 
ATOM      7  C   UNL     1       1.807   9.404  17.842  0.00  0.00    +0.000 A 
ATOM      8  C   UNL     1       2.268   8.142  18.207  0.00  0.00    +0.000 A 
ATOM      9  C   UNL     1       2.121   7.669  19.516  0.00  0.00    +0.000 A 
ATOM     10  C   UNL     1       1.439   8.473  20.443  0.00  0.00    +0.000 A 
BRANCH   5  11
ATOM     11  C   UNL     1       0.483  10.756  21.152  0.00  0.00    +0.000 C 
ATOM     12  C   UNL     1      -1.013  10.911  21.326  0.00  0.00    +0.000 C 
ATOM     13  C   UNL     1      -0.194  10.283  22.411  0.00  0.00    +0.000 C 
BRANCH  11  14
ATOM     14  N   UNL     1       1.288  11.983  21.239  0.00  0.00    +0.000 NA
ATOM     15  H   UNL     1       1.791  12.116  20.360  0.00  0.00    +0.000 HD
ATOM     16  H   UNL     1       2.014  11.868  21.944  0.00  0.00    +0.000 HD
ENDBRANCH  11  14
ENDBRANCH   5  11
ENDBRANCH   1   9
BRANCH   2  17
ATOM     17  C   UNL     1       3.192   4.079  19.878  0.00  0.00    +0.000 A 
ATOM     18  C   UNL     1       2.954   3.300  20.993  0.00  0.00    +0.000 A 
ATOM     19  N   UNL     1       3.843   2.268  20.925  0.00  0.00    +0.000 N 
ATOM     20  N   UNL     1       4.702   2.361  19.904  0.00  0.00    +0.000 NA
ATOM     21  C   UNL     1       4.331   3.471  19.240  0.00  0.00    +0.000 A 
ATOM     22  H   UNL     1       3.915   1.459  21.533  0.00  0.00    +0.000 HD
BRANCH  21  23
ATOM     23  C   UNL     1       5.068   3.906  18.043  0.00  0.00    +0.000 A 
ATOM     24  C   UNL     1       6.339   4.491  18.160  0.00  0.00    +0.000 A 
ATOM     25  C   UNL     1       7.054   4.891  17.023  0.00  0.00    +0.000 A 
ATOM     26  C   UNL     1       6.501   4.708  15.758  0.00  0.00    +0.000 A 
ATOM     27 CL   UNL     1       7.381   5.182  14.357  0.00  0.00    +0.000 Cl
ATOM     28  C   UNL     1       5.236   4.147  15.621  0.00  0.00    +0.000 A 
ATOM     29  C   UNL     1       4.519   3.761  16.758  0.00  0.00    +0.000 A 
ENDBRANCH  21  23
ENDBRANCH   2  17
TORSDOF 5
ENDMDL
MODEL 2
REMARK VINA RESULT:      -8.0      1.528      1.950
REMARK  Name = 
REMARK  5 active torsions:
REMARK  status: ('A' for Active; 'I' for Inactive)
REMARK    1  A    between atoms: N_1  and  C_2
REMARK    2  A    between atoms: C_2  and  C_3
REMARK    3  A    between atoms: C_7  and  N_8
REMARK    4  A    between atoms: C_9  and  C_11
REMARK    5  A    between atoms: C_15  and  C_16
REMARK                            x       y       z     vdW  Elec       q    Type
REMARK                         _______ _______ _______ _____ _____    ______ ____
ROOT
ATOM      1  N   UNL     1       2.882   6.281  19.805  0.00  0.00    +0.000 N 
ATOM      2  C   UNL     1       2.522   5.069  19.221  0.00  0.00    +0.000 C 
ATOM      3  O   UNL     1       1.522   4.888  18.538  0.00  0.00    +0.000 OA
ATOM      4  H   UNL     1       3.798   6.337  20.231  0.00  0.00    +0.000 HD
ENDROOT
BRANCH   1   9
ATOM      5  C   UNL     1       0.908   9.349  20.648  0.00  0.00    +0.000 A 
ATOM      6  C   UNL     1       0.960  10.020  19.413  0.00  0.00    +0.000 A 
ATOM      7  C   UNL     1       1.569   9.450  18.305  0.00  0.00    +0.000 A 
ATOM      8  C   UNL     1       2.173   8.200  18.415  0.00  0.00    +0.000 A 
ATOM      9  C   UNL     1       2.171   7.501  19.627  0.00  0.00    +0.000 A 
ATOM     10  C   UNL     1       1.490   8.061  20.720  0.00  0.00    +0.000 A 
BRANCH   5  11
ATOM     11  C   UNL     1       0.382  10.078  21.873  0.00  0.00    +0.000 C 
ATOM     12  C   UNL     1      -0.834   9.523  22.586  0.00  0.00    +0.000 C 
ATOM     13  C   UNL     1       0.506   9.490  23.254  0.00  0.00    +0.000 C 
BRANCH  11  14
ATOM     14  N   UNL     1       0.466  11.540  21.753  0.00  0.00    +0.000 NA
ATOM     15  H   UNL     1       1.410  11.843  21.998  0.00  0.00    +0.000 HD
ATOM     16  H   UNL     1      -0.140  11.978  22.444  0.00  0.00    +0.000 HD
ENDBRANCH  11  14
ENDBRANCH   5  11
ENDBRANCH   1   9
BRANCH   2  17
ATOM     17  C   UNL     1       3.460   3.971  19.410  0.00  0.00    +0.000 A 
ATOM     18  C   UNL     1       3.183   2.684  19.824  0.00  0.00    +0.000 A 
ATOM     19  N   UNL     1       4.338   1.979  19.654  0.00  0.00    +0.000 N 
ATOM     20  N   UNL     1       5.371   2.725  19.248  0.00  0.00    +0.000 NA
ATOM     21  C   UNL     1       4.864   3.962  19.092  0.00  0.00    +0.000 A 
ATOM     22  H   UNL     1       4.493   0.985  19.783  0.00  0.00    +0.000 HD
BRANCH  21  23
ATOM     23  C   UNL     1       5.727   5.073  18.657  0.00  0.00    +0.000 A 
ATOM     24  C   UNL     1       5.352   5.887  17.576  0.00  0.00    +0.000 A 
ATOM     25  C   UNL     1       6.161   6.957  17.169  0.00  0.00    +0.000 A 
ATOM     26  C   UNL     1       7.352   7.220  17.841  0.00  0.00    +0.000 A 
ATOM     27 CL   UNL     1       8.340   8.542  17.355  0.00  0.00    +0.000 Cl
ATOM     28  C   UNL     1       7.750   6.414  18.902  0.00  0.00    +0.000 A 
ATOM     29  C   UNL     1       6.948   5.339  19.298  0.00  0.00    +0.000 A 
ENDBRANCH  21  23
ENDBRANCH   2  17
TORSDOF 5
ENDMDL
MODEL 3
REMARK VINA RESULT:      -7.9      0.749      1.273
REMARK  Name = 
REMARK  5 active torsions:
REMARK  status: ('A' for Active; 'I' for Inactive)
REMARK    1  A    between atoms: N_1  and  C_2
REMARK    2  A    between atoms: C_2  and  C_3
REMARK    3  A    between atoms: C_7  and  N_8
REMARK    4  A    between atoms: C_9  and  C_11
REMARK    5  A    between atoms: C_15  and  C_16
REMARK                            x       y       z     vdW  Elec       q    Type
REMARK                         _______ _______ _______ _____ _____    ______ ____
ROOT
ATOM      1  N   UNL     1       2.612   6.303  20.126  0.00  0.00    +0.000 N 
ATOM      2  C   UNL     1       1.860   5.146  20.307  0.00  0.00    +0.000 C 
ATOM      3  O   UNL     1       0.654   5.055  20.115  0.00  0.00    +0.000 OA
ATOM      4  H   UNL     1       3.619   6.217  20.186  0.00  0.00    +0.000 HD
ENDROOT
BRANCH   1   9
ATOM      5  C   UNL     1       1.039   9.701  20.086  0.00  0.00    +0.000 A 
ATOM      6  C   UNL     1       1.267  10.060  18.746  0.00  0.00    +0.000 A 
ATOM      7  C   UNL     1       1.861   9.181  17.852  0.00  0.00    +0.000 A 
ATOM      8  C   UNL     1       2.274   7.926  18.289  0.00  0.00    +0.000 A 
ATOM      9  C   UNL     1       2.094   7.528  19.619  0.00  0.00    +0.000 A 
ATOM     10  C   UNL     1       1.428   8.402  20.493  0.00  0.00    +0.000 A 
BRANCH   5  11
ATOM     11  C   UNL     1       0.541  10.749  21.067  0.00  0.00    +0.000 C 
ATOM     12  C   UNL     1      -0.948  11.011  21.161  0.00  0.00    +0.000 C 
ATOM     13  C   UNL     1      -0.226  10.370  22.306  0.00  0.00    +0.000 C 
BRANCH  11  14
ATOM     14  N   UNL     1       1.423  11.922  21.153  0.00  0.00    +0.000 NA
ATOM     15  H   UNL     1       0.873  12.735  21.436  0.00  0.00    +0.000 HD
ATOM     16  H   UNL     1       1.780  12.152  20.228  0.00  0.00    +0.000 HD
ENDBRANCH  11  14
ENDBRANCH   5  11
ENDBRANCH   1   9
BRANCH   2  17
ATOM     17  C   UNL     1       2.606   3.959  20.700  0.00  0.00    +0.000 A 
ATOM     18  C   UNL     1       2.364   3.123  21.771  0.00  0.00    +0.000 A 
ATOM     19  N   UNL     1       3.194   2.054  21.607  0.00  0.00    +0.000 N 
ATOM     20  N   UNL     1       4.024   2.169  20.563  0.00  0.00    +0.000 NA
ATOM     21  C   UNL     1       3.690   3.336  19.984  0.00  0.00    +0.000 A 
ATOM     22  H   UNL     1       3.243   1.205  22.160  0.00  0.00    +0.000 HD
BRANCH  21  23
ATOM     23  C   UNL     1       4.409   3.809  18.790  0.00  0.00    +0.000 A 
ATOM     24  C   UNL     1       3.915   3.538  17.504  0.00  0.00    +0.000 A 
ATOM     25  C   UNL     1       4.586   4.000  16.364  0.00  0.00    +0.000 A 
ATOM     26  C   UNL     1       5.759   4.739  16.503  0.00  0.00    +0.000 A 
ATOM     27 CL   UNL     1       6.578   5.323  15.107  0.00  0.00    +0.000 Cl
ATOM     28  C   UNL     1       6.275   5.003  17.767  0.00  0.00    +0.000 A 
ATOM     29  C   UNL     1       5.611   4.528  18.903  0.00  0.00    +0.000 A 
ENDBRANCH  21  23
ENDBRANCH   2  17
TORSDOF 5
ENDMDL
MODEL 4
REMARK VINA RESULT:      -7.8      1.929      2.624
REMARK  Name = 
REMARK  5 active torsions:
REMARK  status: ('A' for Active; 'I' for Inactive)
REMARK    1  A    between atoms: N_1  and  C_2
REMARK    2  A    between atoms: C_2  and  C_3
REMARK    3  A    between atoms: C_7  and  N_8
REMARK    4  A    between atoms: C_9  and  C_11
REMARK    5  A    between atoms: C_15  and  C_16
REMARK                            x       y       z     vdW  Elec       q    Type
REMARK                         _______ _______ _______ _____ _____    ______ ____
ROOT
ATOM      1  N   UNL     1       2.502   5.796  19.611  0.00  0.00    +0.000 N 
ATOM      2  C   UNL     1       1.824   4.594  19.793  0.00  0.00    +0.000 C 
ATOM      3  O   UNL     1       0.772   4.467  20.408  0.00  0.00    +0.000 OA
ATOM      4  H   UNL     1       3.287   5.794  18.971  0.00  0.00    +0.000 HD
ENDROOT
BRANCH   1   9
ATOM      5  C   UNL     1       1.239   9.318  19.468  0.00  0.00    +0.000 A 
ATOM      6  C   UNL     1       0.867   9.499  20.812  0.00  0.00    +0.000 A 
ATOM      7  C   UNL     1       1.089   8.514  21.763  0.00  0.00    +0.000 A 
ATOM      8  C   UNL     1       1.662   7.303  21.383  0.00  0.00    +0.000 A 
ATOM      9  C   UNL     1       2.027   7.062  20.054  0.00  0.00    +0.000 A 
ATOM     10  C   UNL     1       1.861   8.095  19.118  0.00  0.00    +0.000 A 
BRANCH   5  11
ATOM     11  C   UNL     1       0.827  10.351  18.433  0.00  0.00    +0.000 C 
ATOM     12  C   UNL     1      -0.537  10.230  17.785  0.00  0.00    +0.000 C 
ATOM     13  C   UNL     1      -0.248  11.367  18.717  0.00  0.00    +0.000 C 
BRANCH  11  14
ATOM     14  N   UNL     1       1.936  10.768  17.563  0.00  0.00    +0.000 NA
ATOM     15  H   UNL     1       1.705  11.667  17.134  0.00  0.00    +0.000 HD
ATOM     16  H   UNL     1       2.026  10.118  16.785  0.00  0.00    +0.000 HD
ENDBRANCH  11  14
ENDBRANCH   5  11
ENDBRANCH   1   9
BRANCH   2  17
ATOM     17  C   UNL     1       2.407   3.431  19.140  0.00  0.00    +0.000 A 
ATOM     18  C   UNL     1       1.882   2.157  19.053  0.00  0.00    +0.000 A 
ATOM     19  N   UNL     1       2.685   1.479  18.184  0.00  0.00    +0.000 N 
ATOM     20  N   UNL     1       3.745   2.182  17.767  0.00  0.00    +0.000 NA
ATOM     21  C   UNL     1       3.606   3.391  18.342  0.00  0.00    +0.000 A 
ATOM     22  H   UNL     1       2.566   0.539  17.820  0.00  0.00    +0.000 HD
BRANCH  21  23
ATOM     23  C   UNL     1       4.609   4.444  18.117  0.00  0.00    +0.000 A 
ATOM     24  C   UNL     1       4.511   5.297  17.006  0.00  0.00    +0.000 A 
ATOM     25  C   UNL     1       5.453   6.313  16.796  0.00  0.00    +0.000 A 
ATOM     26  C   UNL     1       6.502   6.482  17.696  0.00  0.00    +0.000 A 
ATOM     27 CL   UNL     1       7.652   7.739  17.452  0.00  0.00    +0.000 Cl
ATOM     28  C   UNL     1       6.627   5.636  18.793  0.00  0.00    +0.000 A 
ATOM     29  C   UNL     1       5.693   4.614  18.993  0.00  0.00    +0.000 A 
ENDBRANCH  21  23
ENDBRANCH   2  17
TORSDOF 5
ENDMDL
MODEL 5
REMARK VINA RESULT:      -7.6      3.167      7.537
REMARK  Name = 
REMARK  5 active torsions:
REMARK  status: ('A' for Active; 'I' for Inactive)
REMARK    1  A    between atoms: N_1  and  C_2
REMARK    2  A    between atoms: C_2  and  C_3
REMARK    3  A    between atoms: C_7  and  N_8
REMARK    4  A    between atoms: C_9  and  C_11
REMARK    5  A    between atoms: C_15  and  C_16
REMARK                            x       y       z     vdW  Elec       q    Type
REMARK                         _______ _______ _______ _____ _____    ______ ____
ROOT
ATOM      1  N   UNL     1       4.277   3.680  17.182  0.00  0.00    +0.000 N 
ATOM      2  C   UNL     1       4.367   3.615  18.569  0.00  0.00    +0.000 C 
ATOM      3  O   UNL     1       5.391   3.793  19.217  0.00  0.00    +0.000 OA
ATOM      4  H   UNL     1       3.351   3.648  16.774  0.00  0.00    +0.000 HD
ENDROOT
BRANCH   1   9
ATOM      5  C   UNL     1       6.306   4.025  14.053  0.00  0.00    +0.000 A 
ATOM      6  C   UNL     1       7.310   4.898  14.509  0.00  0.00    +0.000 A 
ATOM      7  C   UNL     1       7.365   5.311  15.831  0.00  0.00    +0.000 A 
ATOM      8  C   UNL     1       6.390   4.884  16.729  0.00  0.00    +0.000 A 
ATOM      9  C   UNL     1       5.354   4.036  16.322  0.00  0.00    +0.000 A 
ATOM     10  C   UNL     1       5.353   3.571  14.997  0.00  0.00    +0.000 A 
BRANCH   5  11
ATOM     11  C   UNL     1       6.187   3.733  12.567  0.00  0.00    +0.000 C 
ATOM     12  C   UNL     1       5.808   2.334  12.126  0.00  0.00    +0.000 C 
ATOM     13  C   UNL     1       4.853   3.468  11.919  0.00  0.00    +0.000 C 
BRANCH  11  14
ATOM     14  N   UNL     1       7.202   4.426  11.761  0.00  0.00    +0.000 NA
ATOM     15  H   UNL     1       7.062   5.435  11.843  0.00  0.00    +0.000 HD
ATOM     16  H   UNL     1       7.059   4.218  10.775  0.00  0.00    +0.000 HD
ENDBRANCH  11  14
ENDBRANCH   5  11
ENDBRANCH   1   9
BRANCH   2  17
ATOM     17  C   UNL     1       3.116   3.372  19.275  0.00  0.00    +0.000 A 
ATOM     18  C   UNL     1       2.647   2.176  19.778  0.00  0.00    +0.000 A 
ATOM     19  N   UNL     1       1.546   2.488  20.520  0.00  0.00    +0.000 N 
ATOM     20  N   UNL     1       1.207   3.781  20.467  0.00  0.00    +0.000 NA
ATOM     21  C   UNL     1       2.154   4.355  19.703  0.00  0.00    +0.000 A 
ATOM     22  H   UNL     1       0.983   1.873  21.098  0.00  0.00    +0.000 HD
BRANCH  21  23
ATOM     23  C   UNL     1       2.103   5.796  19.409  0.00  0.00    +0.000 A 
ATOM     24  C   UNL     1       2.377   6.272  18.117  0.00  0.00    +0.000 A 
ATOM     25  C   UNL     1       2.312   7.641  17.827  0.00  0.00    +0.000 A 
ATOM     26  C   UNL     1       1.974   8.546  18.829  0.00  0.00    +0.000 A 
ATOM     27 CL   UNL     1       1.877  10.228  18.475  0.00  0.00    +0.000 Cl
ATOM     28  C   UNL     1       1.717   8.098  20.121  0.00  0.00    +0.000 A 
ATOM     29  C   UNL     1       1.796   6.732  20.411  0.00  0.00    +0.000 A 
ENDBRANCH  21  23
ENDBRANCH   2  17
TORSDOF 5
ENDMDL
MODEL 6
REMARK VINA RESULT:      -7.6      1.638      1.984
REMARK  Name = 
REMARK  5 active torsions:
REMARK  status: ('A' for Active; 'I' for Inactive)
REMARK    1  A    between atoms: N_1  and  C_2
REMARK    2  A    between atoms: C_2  and  C_3
REMARK    3  A    between atoms: C_7  and  N_8
REMARK    4  A    between atoms: C_9  and  C_11
REMARK    5  A    between atoms: C_15  and  C_16
REMARK                            x       y       z     vdW  Elec       q    Type
REMARK                         _______ _______ _______ _____ _____    ______ ____
ROOT
ATOM      1  N   UNL     1       2.449   5.937  18.978  0.00  0.00    +0.000 N 
ATOM      2  C   UNL     1       1.890   4.764  19.477  0.00  0.00    +0.000 C 
ATOM      3  O   UNL     1       0.908   4.709  20.208  0.00  0.00    +0.000 OA
ATOM      4  H   UNL     1       3.174   5.845  18.277  0.00  0.00    +0.000 HD
ENDROOT
BRANCH   1   9
ATOM      5  C   UNL     1       1.069   8.916  20.780  0.00  0.00    +0.000 A 
ATOM      6  C   UNL     1       1.070   9.856  19.734  0.00  0.00    +0.000 A 
ATOM      7  C   UNL     1       1.448   9.505  18.446  0.00  0.00    +0.000 A 
ATOM      8  C   UNL     1       1.869   8.205  18.179  0.00  0.00    +0.000 A 
ATOM      9  C   UNL     1       1.911   7.238  19.189  0.00  0.00    +0.000 A 
ATOM     10  C   UNL     1       1.459   7.590  20.471  0.00  0.00    +0.000 A 
BRANCH   5  11
ATOM     11  C   UNL     1       0.811   9.381  22.203  0.00  0.00    +0.000 C 
ATOM     12  C   UNL     1      -0.161  10.520  22.433  0.00  0.00    +0.000 C 
ATOM     13  C   UNL     1      -0.509   9.135  22.886  0.00  0.00    +0.000 C 
BRANCH  11  14
ATOM     14  N   UNL     1       2.017   9.365  23.042  0.00  0.00    +0.000 NA
ATOM     15  H   UNL     1       2.765   8.877  22.544  0.00  0.00    +0.000 HD
ATOM     16  H   UNL     1       1.848   8.807  23.877  0.00  0.00    +0.000 HD
ENDBRANCH  11  14
ENDBRANCH   5  11
ENDBRANCH   1   9
BRANCH   2  17
ATOM     17  C   UNL     1       2.510   3.525  19.029  0.00  0.00    +0.000 A 
ATOM     18  C   UNL     1       1.974   2.253  19.056  0.00  0.00    +0.000 A 
ATOM     19  N   UNL     1       2.839   1.467  18.353  0.00  0.00    +0.000 N 
ATOM     20  N   UNL     1       3.941   2.107  17.947  0.00  0.00    +0.000 NA
ATOM     21  C   UNL     1       3.772   3.379  18.351  0.00  0.00    +0.000 A 
ATOM     22  H   UNL     1       2.737   0.490  18.101  0.00  0.00    +0.000 HD
BRANCH  21  23
ATOM     23  C   UNL     1       4.807   4.391  18.085  0.00  0.00    +0.000 A 
ATOM     24  C   UNL     1       4.899   5.005  16.825  0.00  0.00    +0.000 A 
ATOM     25  C   UNL     1       5.871   5.981  16.571  0.00  0.00    +0.000 A 
ATOM     26  C   UNL     1       6.760   6.351  17.576  0.00  0.00    +0.000 A 
ATOM     27 CL   UNL     1       7.946   7.562  17.275  0.00  0.00    +0.000 Cl
ATOM     28  C   UNL     1       6.699   5.742  18.825  0.00  0.00    +0.000 A 
ATOM     29  C   UNL     1       5.736   4.758  19.073  0.00  0.00    +0.000 A 
ENDBRANCH  21  23
ENDBRANCH   2  17
TORSDOF 5
ENDMDL
MODEL 7
REMARK VINA RESULT:      -7.5      1.623      1.840
REMARK  Name = 
REMARK  5 active torsions:
REMARK  status: ('A' for Active; 'I' for Inactive)
REMARK    1  A    between atoms: N_1  and  C_2
REMARK    2  A    between atoms: C_2  and  C_3
REMARK    3  A    between atoms: C_7  and  N_8
REMARK    4  A    between atoms: C_9  and  C_11
REMARK    5  A    between atoms: C_15  and  C_16
REMARK                            x       y       z     vdW  Elec       q    Type
REMARK                         _______ _______ _______ _____ _____    ______ ____
ROOT
ATOM      1  N   UNL     1       2.704   6.456  19.867  0.00  0.00    +0.000 N 
ATOM      2  C   UNL     1       2.489   5.283  19.152  0.00  0.00    +0.000 C 
ATOM      3  O   UNL     1       1.627   5.130  18.294  0.00  0.00    +0.000 OA
ATOM      4  H   UNL     1       3.532   6.500  20.449  0.00  0.00    +0.000 HD
ENDROOT
BRANCH   1   9
ATOM      5  C   UNL     1       0.744   9.559  20.613  0.00  0.00    +0.000 A 
ATOM      6  C   UNL     1       0.793  10.186  19.355  0.00  0.00    +0.000 A 
ATOM      7  C   UNL     1       1.394   9.576  18.264  0.00  0.00    +0.000 A 
ATOM      8  C   UNL     1       1.995   8.329  18.415  0.00  0.00    +0.000 A 
ATOM      9  C   UNL     1       1.997   7.672  19.650  0.00  0.00    +0.000 A 
ATOM     10  C   UNL     1       1.323   8.272  20.726  0.00  0.00    +0.000 A 
BRANCH   5  11
ATOM     11  C   UNL     1       0.226  10.331  21.814  0.00  0.00    +0.000 C 
ATOM     12  C   UNL     1       0.158  11.842  21.735  0.00  0.00    +0.000 C 
ATOM     13  C   UNL     1      -1.104  11.037  21.785  0.00  0.00    +0.000 C 
BRANCH  11  14
ATOM     14  N   UNL     1       0.656   9.756  23.096  0.00  0.00    +0.000 NA
ATOM     15  H   UNL     1      -0.164   9.605  23.687  0.00  0.00    +0.000 HD
ATOM     16  H   UNL     1       1.225  10.432  23.603  0.00  0.00    +0.000 HD
ENDBRANCH  11  14
ENDBRANCH   5  11
ENDBRANCH   1   9
BRANCH   2  17
ATOM     17  C   UNL     1       3.414   4.192  19.427  0.00  0.00    +0.000 A 
ATOM     18  C   UNL     1       3.117   2.926  19.888  0.00  0.00    +0.000 A 
ATOM     19  N   UNL     1       4.275   2.212  19.795  0.00  0.00    +0.000 N 
ATOM     20  N   UNL     1       5.326   2.937  19.396  0.00  0.00    +0.000 NA
ATOM     21  C   UNL     1       4.830   4.166  19.164  0.00  0.00    +0.000 A 
ATOM     22  H   UNL     1       4.421   1.224  19.976  0.00  0.00    +0.000 HD
BRANCH  21  23
ATOM     23  C   UNL     1       5.713   5.253  18.713  0.00  0.00    +0.000 A 
ATOM     24  C   UNL     1       6.965   5.454  19.317  0.00  0.00    +0.000 A 
ATOM     25  C   UNL     1       7.817   6.476  18.879  0.00  0.00    +0.000 A 
ATOM     26  C   UNL     1       7.423   7.307  17.834  0.00  0.00    +0.000 A 
ATOM     27 CL   UNL     1       8.473   8.554  17.282  0.00  0.00    +0.000 Cl
ATOM     28  C   UNL     1       6.180   7.137  17.234  0.00  0.00    +0.000 A 
ATOM     29  C   UNL     1       5.325   6.124  17.681  0.00  0.00    +0.000 A 
ENDBRANCH  21  23
ENDBRANCH   2  17
TORSDOF 5
ENDMDL
MODEL 8
REMARK VINA RESULT:      -7.3      1.965      2.619
REMARK  Name = 
REMARK  5 active torsions:
REMARK  status: ('A' for Active; 'I' for Inactive)
REMARK    1  A    between atoms: N_1  and  C_2
REMARK    2  A    between atoms: C_2  and  C_3
REMARK    3  A    between atoms: C_7  and  N_8
REMARK    4  A    between atoms: C_9  and  C_11
REMARK    5  A    between atoms: C_15  and  C_16
REMARK                            x       y       z     vdW  Elec       q    Type
REMARK                         _______ _______ _______ _____ _____    ______ ____
ROOT
ATOM      1  N   UNL     1       2.310   6.117  19.378  0.00  0.00    +0.000 N 
ATOM      2  C   UNL     1       1.953   4.851  19.832  0.00  0.00    +0.000 C 
ATOM      3  O   UNL     1       1.231   4.627  20.796  0.00  0.00    +0.000 OA
ATOM      4  H   UNL     1       2.799   6.173  18.493  0.00  0.00    +0.000 HD
ENDROOT
BRANCH   1   9
ATOM      5  C   UNL     1       1.253   9.704  19.585  0.00  0.00    +0.000 A 
ATOM      6  C   UNL     1       0.666   9.712  20.863  0.00  0.00    +0.000 A 
ATOM      7  C   UNL     1       0.678   8.585  21.672  0.00  0.00    +0.000 A 
ATOM      8  C   UNL     1       1.251   7.405  21.205  0.00  0.00    +0.000 A 
ATOM      9  C   UNL     1       1.826   7.336  19.931  0.00  0.00    +0.000 A 
ATOM     10  C   UNL     1       1.869   8.504  19.153  0.00  0.00    +0.000 A 
BRANCH   5  11
ATOM     11  C   UNL     1       1.072  10.904  18.671  0.00  0.00    +0.000 C 
ATOM     12  C   UNL     1       1.601  12.250  19.121  0.00  0.00    +0.000 C 
ATOM     13  C   UNL     1       2.239  11.542  17.965  0.00  0.00    +0.000 C 
BRANCH  11  14
ATOM     14  N   UNL     1      -0.221  10.904  17.972  0.00  0.00    +0.000 NA
ATOM     15  H   UNL     1      -0.207  11.618  17.242  0.00  0.00    +0.000 HD
ATOM     16  H   UNL     1      -0.958  11.193  18.612  0.00  0.00    +0.000 HD
ENDBRANCH  11  14
ENDBRANCH   5  11
ENDBRANCH   1   9
BRANCH   2  17
ATOM     17  C   UNL     1       2.444   3.731  19.040  0.00  0.00    +0.000 A 
ATOM     18  C   UNL     1       1.849   2.500  18.856  0.00  0.00    +0.000 A 
ATOM     19  N   UNL     1       2.575   1.874  17.887  0.00  0.00    +0.000 N 
ATOM     20  N   UNL     1       3.651   2.562  17.488  0.00  0.00    +0.000 NA
ATOM     21  C   UNL     1       3.602   3.712  18.184  0.00  0.00    +0.000 A 
ATOM     22  H   UNL     1       2.390   0.981  17.440  0.00  0.00    +0.000 HD
BRANCH  21  23
ATOM     23  C   UNL     1       4.649   4.733  18.013  0.00  0.00    +0.000 A 
ATOM     24  C   UNL     1       5.696   4.844  18.942  0.00  0.00    +0.000 A 
ATOM     25  C   UNL     1       6.705   5.802  18.775  0.00  0.00    +0.000 A 
ATOM     26  C   UNL     1       6.675   6.656  17.676  0.00  0.00    +0.000 A 
ATOM     27 CL   UNL     1       7.921   7.823  17.458  0.00  0.00    +0.000 Cl
ATOM     28  C   UNL     1       5.637   6.574  16.754  0.00  0.00    +0.000 A 
ATOM     29  C   UNL     1       4.623   5.627  16.930  0.00  0.00    +0.000 A 
ENDBRANCH  21  23
ENDBRANCH   2  17
TORSDOF 5
ENDMDL
MODEL 9
REMARK VINA RESULT:      -7.3      1.651      2.015
REMARK  Name = 
REMARK  5 active torsions:
REMARK  status: ('A' for Active; 'I' for Inactive)
REMARK    1  A    between atoms: N_1  and  C_2
REMARK    2  A    between atoms: C_2  and  C_3
REMARK    3  A    between atoms: C_7  and  N_8
REMARK    4  A    between atoms: C_9  and  C_11
REMARK    5  A    between atoms: C_15  and  C_16
REMARK                            x       y       z     vdW  Elec       q    Type
REMARK                         _______ _______ _______ _____ _____    ______ ____
ROOT
ATOM      1  N   UNL     1       2.457   5.921  18.991  0.00  0.00    +0.000 N 
ATOM      2  C   UNL     1       1.936   4.886  18.220  0.00  0.00    +0.000 C 
ATOM      3  O   UNL     1       0.973   4.984  17.469  0.00  0.00    +0.000 OA
ATOM      4  H   UNL     1       3.334   5.751  19.465  0.00  0.00    +0.000 HD
ENDROOT
BRANCH   1   9
ATOM      5  C   UNL     1       1.105   9.198  20.199  0.00  0.00    +0.000 A 
ATOM      6  C   UNL     1       1.265   9.972  19.035  0.00  0.00    +0.000 A 
ATOM      7  C   UNL     1       1.740   9.417  17.856  0.00  0.00    +0.000 A 
ATOM      8  C   UNL     1       2.101   8.072  17.822  0.00  0.00    +0.000 A 
ATOM      9  C   UNL     1       1.985   7.264  18.958  0.00  0.00    +0.000 A 
ATOM     10  C   UNL     1       1.437   7.824  20.123  0.00  0.00    +0.000 A 
BRANCH   5  11
ATOM     11  C   UNL     1       0.742   9.881  21.506  0.00  0.00    +0.000 C 
ATOM     12  C   UNL     1      -0.413   9.333  22.319  0.00  0.00    +0.000 C 
ATOM     13  C   UNL     1       0.988   9.219  22.837  0.00  0.00    +0.000 C 
BRANCH  11  14
ATOM     14  N   UNL     1       0.872  11.344  21.447  0.00  0.00    +0.000 NA
ATOM     15  H   UNL     1       0.523  11.674  20.545  0.00  0.00    +0.000 HD
ATOM     16  H   UNL     1       1.856  11.603  21.461  0.00  0.00    +0.000 HD
ENDBRANCH  11  14
ENDBRANCH   5  11
ENDBRANCH   1   9
BRANCH   2  17
ATOM     17  C   UNL     1       2.651   3.620  18.293  0.00  0.00    +0.000 A 
ATOM     18  C   UNL     1       2.117   2.348  18.343  0.00  0.00    +0.000 A 
ATOM     19  N   UNL     1       3.170   1.493  18.198  0.00  0.00    +0.000 N 
ATOM     20  N   UNL     1       4.359   2.104  18.149  0.00  0.00    +0.000 NA
ATOM     21  C   UNL     1       4.075   3.418  18.209  0.00  0.00    +0.000 A 
ATOM     22  H   UNL     1       3.152   0.482  18.113  0.00  0.00    +0.000 HD
BRANCH  21  23
ATOM     23  C   UNL     1       5.156   4.417  18.191  0.00  0.00    +0.000 A 
ATOM     24  C   UNL     1       5.444   5.136  17.019  0.00  0.00    +0.000 A 
ATOM     25  C   UNL     1       6.460   6.100  17.000  0.00  0.00    +0.000 A 
ATOM     26  C   UNL     1       7.197   6.353  18.154  0.00  0.00    +0.000 A 
ATOM     27 CL   UNL     1       8.435   7.548  18.141  0.00  0.00    +0.000 Cl
ATOM     28  C   UNL     1       6.941   5.639  19.320  0.00  0.00    +0.000 A 
ATOM     29  C   UNL     1       5.935   4.666  19.333  0.00  0.00    +0.000 A 
ENDBRANCH  21  23
ENDBRANCH   2  17
TORSDOF 5
ENDMDL
