MODEL 1
REMARK VINA RESULT:      -9.2      0.000      0.000
REMARK  Name = 
REMARK  7 active torsions:
REMARK  status: ('A' for Active; 'I' for Inactive)
REMARK    1  A    between atoms: C_1  and  C_2
REMARK    2  A    between atoms: C_4  and  C_5
REMARK    3  A    between atoms: N_13  and  C_14
REMARK    4  A    between atoms: C_18  and  C_19
REMARK    5  A    between atoms: C_19  and  C_20
REMARK    6  A    between atoms: C_20  and  C_21
REMARK    7  A    between atoms: N_25  and  C_26
REMARK                            x       y       z     vdW  Elec       q    Type
REMARK                         _______ _______ _______ _____ _____    ______ ____
ROOT
ATOM      1  C   UNL     1       2.627   6.067  18.190  0.00  0.00    +0.000 A 
ATOM      2  C   UNL     1       1.826   4.957  17.927  0.00  0.00    +0.000 A 
ATOM      3  C   UNL     1       2.346   3.882  17.219  0.00  0.00    +0.000 A 
ATOM      4  C   UNL     1       3.687   3.896  16.821  0.00  0.00    +0.000 A 
ATOM      5  C   UNL     1       4.544   4.980  17.109  0.00  0.00    +0.000 A 
ATOM      6  C   UNL     1       3.961   6.084  17.759  0.00  0.00    +0.000 A 
ENDROOT
BRANCH   1  15
ATOM      7  C   UNL     1       2.117   5.652  21.035  0.00  0.00    +0.000 C 
ATOM      8  C   UNL     1       1.781   6.951  20.346  0.00  0.00    +0.000 A 
ATOM      9  C   UNL     1       1.240   7.966  21.045  0.00  0.00    +0.000 A 
ATOM     10  C   UNL     1       0.980   9.251  20.431  0.00  0.00    +0.000 A 
ATOM     11  C   UNL     1       1.330   9.443  19.158  0.00  0.00    +0.000 A 
ATOM     12  F   UNL     1       1.124  10.621  18.534  0.00  0.00    +0.000 F 
ATOM     13  C   UNL     1       1.958   8.373  18.343  0.00  0.00    +0.000 A 
ATOM     14  O   UNL     1       2.259   8.612  17.173  0.00  0.00    +0.000 OA
ATOM     15  N   UNL     1       2.128   7.132  18.998  0.00  0.00    +0.000 N 
BRANCH  10  16
ATOM     16  C   UNL     1       0.354  10.354  21.210  0.00  0.00    +0.000 C 
ATOM     17  F   UNL     1      -0.864  10.711  20.721  0.00  0.00    +0.000 F 
ATOM     18  F   UNL     1       0.155  10.007  22.508  0.00  0.00    +0.000 F 
ATOM     19  F   UNL     1       1.113  11.478  21.207  0.00  0.00    +0.000 F 
ENDBRANCH  10  16
ENDBRANCH   1  15
BRANCH   5  20
ATOM     20  C   UNL     1       6.117   4.912  16.807  0.00  0.00    +0.000 C 
ATOM     21  C   UNL     1       6.995   4.654  18.074  0.00  0.00    +0.000 C 
ATOM     22  O   UNL     1       7.979   5.613  17.611  0.00  0.00    +0.000 OA
ATOM     23  C   UNL     1       6.949   6.231  16.784  0.00  0.00    +0.000 C 
BRANCH  20  24
ATOM     24  C   UNL     1       6.449   3.947  15.651  0.00  0.00    +0.000 C 
BRANCH  24  25
ATOM     25  C   UNL     1       7.018   4.598  14.427  0.00  0.00    +0.000 A 
ATOM     26  N   UNL     1       7.959   5.521  14.388  0.00  0.00    +0.000 NA
ATOM     27  N   UNL     1       8.230   5.813  13.073  0.00  0.00    +0.000 NA
ATOM     28  C   UNL     1       7.465   5.046  12.329  0.00  0.00    +0.000 A 
ATOM     29  N   UNL     1       6.679   4.279  13.134  0.00  0.00    +0.000 N 
ATOM     30  C   UNL     1       5.705   3.328  12.671  0.00  0.00    +0.000 C 
ENDBRANCH  24  25
ENDBRANCH  20  24
ENDBRANCH   5  20
TORSDOF 5
ENDMDL
MODEL 2
REMARK VINA RESULT:      -8.5      1.659      2.880
REMARK  Name = 
REMARK  7 active torsions:
REMARK  status: ('A' for Active; 'I' for Inactive)
REMARK    1  A    between atoms: C_1  and  C_2
REMARK    2  A    between atoms: C_4  and  C_5
REMARK    3  A    between atoms: N_13  and  C_14
REMARK    4  A    between atoms: C_18  and  C_19
REMARK    5  A    between atoms: C_19  and  C_20
REMARK    6  A    between atoms: C_20  and  C_21
REMARK    7  A    between atoms: N_25  and  C_26
REMARK                            x       y       z     vdW  Elec       q    Type
REMARK                         _______ _______ _______ _____ _____    ______ ____
ROOT
ATOM      1  C   UNL     1       2.552   5.629  18.163  0.00  0.00    +0.000 A 
ATOM      2  C   UNL     1       1.790   4.462  18.147  0.00  0.00    +0.000 A 
ATOM      3  C   UNL     1       2.227   3.363  17.420  0.00  0.00    +0.000 A 
ATOM      4  C   UNL     1       3.456   3.414  16.753  0.00  0.00    +0.000 A 
ATOM      5  C   UNL     1       4.280   4.560  16.786  0.00  0.00    +0.000 A 
ATOM      6  C   UNL     1       3.768   5.680  17.467  0.00  0.00    +0.000 A 
ENDROOT
BRANCH   1  15
ATOM      7  C   UNL     1       2.063   5.244  21.016  0.00  0.00    +0.000 C 
ATOM      8  C   UNL     1       1.822   6.570  20.338  0.00  0.00    +0.000 A 
ATOM      9  C   UNL     1       1.379   7.622  21.050  0.00  0.00    +0.000 A 
ATOM     10  C   UNL     1       1.214   8.927  20.445  0.00  0.00    +0.000 A 
ATOM     11  C   UNL     1       1.555   9.096  19.166  0.00  0.00    +0.000 A 
ATOM     12  F   UNL     1       1.435  10.289  18.549  0.00  0.00    +0.000 F 
ATOM     13  C   UNL     1       2.078   7.981  18.336  0.00  0.00    +0.000 A 
ATOM     14  O   UNL     1       2.376   8.200  17.161  0.00  0.00    +0.000 OA
ATOM     15  N   UNL     1       2.158   6.728  18.984  0.00  0.00    +0.000 N 
BRANCH  10  16
ATOM     16  C   UNL     1       0.695  10.074  21.239  0.00  0.00    +0.000 C 
ATOM     17  F   UNL     1       1.488  11.175  21.146  0.00  0.00    +0.000 F 
ATOM     18  F   UNL     1      -0.539  10.459  20.823  0.00  0.00    +0.000 F 
ATOM     19  F   UNL     1       0.600   9.780  22.560  0.00  0.00    +0.000 F 
ENDBRANCH  10  16
ENDBRANCH   1  15
BRANCH   5  20
ATOM     20  C   UNL     1       5.760   4.549  16.171  0.00  0.00    +0.000 C 
ATOM     21  C   UNL     1       5.972   5.575  15.011  0.00  0.00    +0.000 C 
ATOM     22  O   UNL     1       6.753   4.604  14.269  0.00  0.00    +0.000 OA
ATOM     23  C   UNL     1       6.108   3.541  15.032  0.00  0.00    +0.000 C 
BRANCH  20  24
ATOM     24  C   UNL     1       6.846   4.656  17.260  0.00  0.00    +0.000 C 
BRANCH  24  25
ATOM     25  C   UNL     1       7.356   6.043  17.511  0.00  0.00    +0.000 A 
ATOM     26  N   UNL     1       7.304   7.066  16.681  0.00  0.00    +0.000 NA
ATOM     27  N   UNL     1       7.831   8.167  17.311  0.00  0.00    +0.000 NA
ATOM     28  C   UNL     1       8.176   7.804  18.526  0.00  0.00    +0.000 A 
ATOM     29  N   UNL     1       7.910   6.478  18.691  0.00  0.00    +0.000 N 
ATOM     30  C   UNL     1       8.170   5.728  19.889  0.00  0.00    +0.000 C 
ENDBRANCH  24  25
ENDBRANCH  20  24
ENDBRANCH   5  20
TORSDOF 5
ENDMDL
MODEL 3
REMARK VINA RESULT:      -8.4      2.888      4.409
REMARK  Name = 
REMARK  7 active torsions:
REMARK  status: ('A' for Active; 'I' for Inactive)
REMARK    1  A    between atoms: C_1  and  C_2
REMARK    2  A    between atoms: C_4  and  C_5
REMARK    3  A    between atoms: N_13  and  C_14
REMARK    4  A    between atoms: C_18  and  C_19
REMARK    5  A    between atoms: C_19  and  C_20
REMARK    6  A    between atoms: C_20  and  C_21
REMARK    7  A    between atoms: N_25  and  C_26
REMARK                            x       y       z     vdW  Elec       q    Type
REMARK                         _______ _______ _______ _____ _____    ______ ____
ROOT
ATOM      1  C   UNL     1       1.826   8.387  19.317  0.00  0.00    +0.000 A 
ATOM      2  C   UNL     1       2.415   8.939  18.181  0.00  0.00    +0.000 A 
ATOM      3  C   UNL     1       3.230   8.155  17.375  0.00  0.00    +0.000 A 
ATOM      4  C   UNL     1       3.409   6.801  17.677  0.00  0.00    +0.000 A 
ATOM      5  C   UNL     1       2.790   6.192  18.790  0.00  0.00    +0.000 A 
ATOM      6  C   UNL     1       2.036   7.036  19.627  0.00  0.00    +0.000 A 
ENDROOT
BRANCH   1  15
ATOM      7  C   UNL     1      -0.244   9.985  18.017  0.00  0.00    +0.000 C 
ATOM      8  C   UNL     1      -0.035  10.013  19.511  0.00  0.00    +0.000 A 
ATOM      9  C   UNL     1      -0.821  10.782  20.287  0.00  0.00    +0.000 A 
ATOM     10  C   UNL     1      -0.697  10.771  21.730  0.00  0.00    +0.000 A 
ATOM     11  C   UNL     1       0.182   9.944  22.298  0.00  0.00    +0.000 A 
ATOM     12  F   UNL     1       0.335   9.880  23.637  0.00  0.00    +0.000 F 
ATOM     13  C   UNL     1       1.055   9.050  21.497  0.00  0.00    +0.000 A 
ATOM     14  O   UNL     1       1.847   8.309  22.080  0.00  0.00    +0.000 OA
ATOM     15  N   UNL     1       0.913   9.159  20.095  0.00  0.00    +0.000 N 
BRANCH  10  16
ATOM     16  C   UNL     1      -1.553  11.650  22.573  0.00  0.00    +0.000 C 
ATOM     17  F   UNL     1      -0.836  12.602  23.228  0.00  0.00    +0.000 F 
ATOM     18  F   UNL     1      -2.480  12.313  21.835  0.00  0.00    +0.000 F 
ATOM     19  F   UNL     1      -2.222  10.951  23.524  0.00  0.00    +0.000 F 
ENDBRANCH  10  16
ENDBRANCH   1  15
BRANCH   5  20
ATOM     20  C   UNL     1       2.857   4.608  19.027  0.00  0.00    +0.000 C 
ATOM     21  C   UNL     1       1.508   3.868  18.748  0.00  0.00    +0.000 C 
ATOM     22  O   UNL     1       1.707   3.026  19.912  0.00  0.00    +0.000 OA
ATOM     23  C   UNL     1       2.607   4.037  20.457  0.00  0.00    +0.000 C 
BRANCH  20  24
ATOM     24  C   UNL     1       4.049   3.957  18.296  0.00  0.00    +0.000 C 
BRANCH  24  25
ATOM     25  C   UNL     1       5.389   4.542  18.626  0.00  0.00    +0.000 A 
ATOM     26  N   UNL     1       5.822   4.901  19.819  0.00  0.00    +0.000 NA
ATOM     27  N   UNL     1       7.118   5.340  19.698  0.00  0.00    +0.000 NA
ATOM     28  C   UNL     1       7.464   5.222  18.436  0.00  0.00    +0.000 A 
ATOM     29  N   UNL     1       6.407   4.739  17.725  0.00  0.00    +0.000 N 
ATOM     30  C   UNL     1       6.410   4.493  16.308  0.00  0.00    +0.000 C 
ENDBRANCH  24  25
ENDBRANCH  20  24
ENDBRANCH   5  20
TORSDOF 5
ENDMDL
MODEL 4
REMARK VINA RESULT:      -8.3      0.729      1.442
REMARK  Name = 
REMARK  7 active torsions:
REMARK  status: ('A' for Active; 'I' for Inactive)
REMARK    1  A    between atoms: C_1  and  C_2
REMARK    2  A    between atoms: C_4  and  C_5
REMARK    3  A    between atoms: N_13  and  C_14
REMARK    4  A    between atoms: C_18  and  C_19
REMARK    5  A    between atoms: C_19  and  C_20
REMARK    6  A    between atoms: C_20  and  C_21
REMARK    7  A    between atoms: N_25  and  C_26
REMARK                            x       y       z     vdW  Elec       q    Type
REMARK                         _______ _______ _______ _____ _____    ______ ____
ROOT
ATOM      1  C   UNL     1       2.592   6.177  18.247  0.00  0.00    +0.000 A 
ATOM      2  C   UNL     1       1.895   4.974  18.152  0.00  0.00    +0.000 A 
ATOM      3  C   UNL     1       2.436   3.916  17.435  0.00  0.00    +0.000 A 
ATOM      4  C   UNL     1       3.704   4.045  16.857  0.00  0.00    +0.000 A 
ATOM      5  C   UNL     1       4.463   5.230  16.971  0.00  0.00    +0.000 A 
ATOM      6  C   UNL     1       3.848   6.306  17.639  0.00  0.00    +0.000 A 
ENDROOT
BRANCH   1  15
ATOM      7  C   UNL     1       2.084   5.742  21.089  0.00  0.00    +0.000 C 
ATOM      8  C   UNL     1       1.739   7.043  20.407  0.00  0.00    +0.000 A 
ATOM      9  C   UNL     1       1.191   8.050  21.112  0.00  0.00    +0.000 A 
ATOM     10  C   UNL     1       0.922   9.336  20.505  0.00  0.00    +0.000 A 
ATOM     11  C   UNL     1       1.271   9.538  19.233  0.00  0.00    +0.000 A 
ATOM     12  F   UNL     1       1.057  10.718  18.615  0.00  0.00    +0.000 F 
ATOM     13  C   UNL     1       1.907   8.477  18.412  0.00  0.00    +0.000 A 
ATOM     14  O   UNL     1       2.207   8.724  17.244  0.00  0.00    +0.000 OA
ATOM     15  N   UNL     1       2.086   7.234  19.061  0.00  0.00    +0.000 N 
BRANCH  10  16
ATOM     16  C   UNL     1       0.287  10.431  21.290  0.00  0.00    +0.000 C 
ATOM     17  F   UNL     1       1.019  11.577  21.271  0.00  0.00    +0.000 F 
ATOM     18  F   UNL     1      -0.939  10.755  20.806  0.00  0.00    +0.000 F 
ATOM     19  F   UNL     1       0.129  10.098  22.595  0.00  0.00    +0.000 F 
ENDBRANCH  10  16
ENDBRANCH   1  15
BRANCH   5  20
ATOM     20  C   UNL     1       5.981   5.308  16.462  0.00  0.00    +0.000 C 
ATOM     21  C   UNL     1       6.774   3.971  16.624  0.00  0.00    +0.000 C 
ATOM     22  O   UNL     1       7.951   4.699  17.057  0.00  0.00    +0.000 OA
ATOM     23  C   UNL     1       7.090   5.815  17.435  0.00  0.00    +0.000 C 
BRANCH  20  24
ATOM     24  C   UNL     1       6.090   5.890  15.038  0.00  0.00    +0.000 C 
BRANCH  24  25
ATOM     25  C   UNL     1       6.211   4.870  13.945  0.00  0.00    +0.000 A 
ATOM     26  N   UNL     1       5.346   3.918  13.655  0.00  0.00    +0.000 NA
ATOM     27  N   UNL     1       5.804   3.234  12.555  0.00  0.00    +0.000 NA
ATOM     28  C   UNL     1       6.931   3.794  12.177  0.00  0.00    +0.000 A 
ATOM     29  N   UNL     1       7.232   4.814  13.028  0.00  0.00    +0.000 N 
ATOM     30  C   UNL     1       8.401   5.647  12.936  0.00  0.00    +0.000 C 
ENDBRANCH  24  25
ENDBRANCH  20  24
ENDBRANCH   5  20
TORSDOF 5
ENDMDL
MODEL 5
REMARK VINA RESULT:      -8.3      5.126      8.757
REMARK  Name = 
REMARK  7 active torsions:
REMARK  status: ('A' for Active; 'I' for Inactive)
REMARK    1  A    between atoms: C_1  and  C_2
REMARK    2  A    between atoms: C_4  and  C_5
REMARK    3  A    between atoms: N_13  and  C_14
REMARK    4  A    between atoms: C_18  and  C_19
REMARK    5  A    between atoms: C_19  and  C_20
REMARK    6  A    between atoms: C_20  and  C_21
REMARK    7  A    between atoms: N_25  and  C_26
REMARK                            x       y       z     vdW  Elec       q    Type
REMARK                         _______ _______ _______ _____ _____    ______ ____
ROOT
ATOM      1  C   UNL     1       0.475  10.473  19.398  0.00  0.00    +0.000 A 
ATOM      2  C   UNL     1      -0.617  10.679  18.558  0.00  0.00    +0.000 A 
ATOM      3  C   UNL     1      -1.139  11.956  18.403  0.00  0.00    +0.000 A 
ATOM      4  C   UNL     1      -0.530  13.038  19.049  0.00  0.00    +0.000 A 
ATOM      5  C   UNL     1       0.607  12.878  19.871  0.00  0.00    +0.000 A 
ATOM      6  C   UNL     1       1.059  11.559  20.065  0.00  0.00    +0.000 A 
ENDROOT
BRANCH   1  15
ATOM      7  C   UNL     1      -0.039   8.758  21.705  0.00  0.00    +0.000 C 
ATOM      8  C   UNL     1       0.930   8.364  20.619  0.00  0.00    +0.000 A 
ATOM      9  C   UNL     1       1.581   7.188  20.689  0.00  0.00    +0.000 A 
ATOM     10  C   UNL     1       2.456   6.745  19.625  0.00  0.00    +0.000 A 
ATOM     11  C   UNL     1       2.581   7.501  18.532  0.00  0.00    +0.000 A 
ATOM     12  F   UNL     1       3.373   7.138  17.503  0.00  0.00    +0.000 F 
ATOM     13  C   UNL     1       1.866   8.794  18.382  0.00  0.00    +0.000 A 
ATOM     14  O   UNL     1       2.022   9.446  17.350  0.00  0.00    +0.000 OA
ATOM     15  N   UNL     1       1.075   9.181  19.487  0.00  0.00    +0.000 N 
BRANCH  10  16
ATOM     16  C   UNL     1       3.192   5.455  19.731  0.00  0.00    +0.000 C 
ATOM     17  F   UNL     1       2.947   4.628  18.679  0.00  0.00    +0.000 F 
ATOM     18  F   UNL     1       4.536   5.640  19.763  0.00  0.00    +0.000 F 
ATOM     19  F   UNL     1       2.854   4.765  20.849  0.00  0.00    +0.000 F 
ENDBRANCH  10  16
ENDBRANCH   1  15
BRANCH   5  20
ATOM     20  C   UNL     1       1.401  14.139  20.462  0.00  0.00    +0.000 C 
ATOM     21  C   UNL     1       2.721  13.763  21.209  0.00  0.00    +0.000 C 
ATOM     22  O   UNL     1       2.440  14.744  22.240  0.00  0.00    +0.000 OA
ATOM     23  C   UNL     1       1.028  14.683  21.875  0.00  0.00    +0.000 C 
BRANCH  20  24
ATOM     24  C   UNL     1       1.614  15.243  19.406  0.00  0.00    +0.000 C 
BRANCH  24  25
ATOM     25  C   UNL     1       3.027  15.402  18.933  0.00  0.00    +0.000 A 
ATOM     26  N   UNL     1       3.649  14.658  18.039  0.00  0.00    +0.000 NA
ATOM     27  N   UNL     1       4.912  15.165  17.851  0.00  0.00    +0.000 NA
ATOM     28  C   UNL     1       5.034  16.225  18.618  0.00  0.00    +0.000 A 
ATOM     29  N   UNL     1       3.882  16.403  19.325  0.00  0.00    +0.000 N 
ATOM     30  C   UNL     1       3.654  17.455  20.278  0.00  0.00    +0.000 C 
ENDBRANCH  24  25
ENDBRANCH  20  24
ENDBRANCH   5  20
TORSDOF 5
ENDMDL
MODEL 6
REMARK VINA RESULT:      -8.3      5.154      9.521
REMARK  Name = 
REMARK  7 active torsions:
REMARK  status: ('A' for Active; 'I' for Inactive)
REMARK    1  A    between atoms: C_1  and  C_2
REMARK    2  A    between atoms: C_4  and  C_5
REMARK    3  A    between atoms: N_13  and  C_14
REMARK    4  A    between atoms: C_18  and  C_19
REMARK    5  A    between atoms: C_19  and  C_20
REMARK    6  A    between atoms: C_20  and  C_21
REMARK    7  A    between atoms: N_25  and  C_26
REMARK                            x       y       z     vdW  Elec       q    Type
REMARK                         _______ _______ _______ _____ _____    ______ ____
ROOT
ATOM      1  C   UNL     1       0.609  10.638  19.217  0.00  0.00    +0.000 A 
ATOM      2  C   UNL     1      -0.660  10.819  18.670  0.00  0.00    +0.000 A 
ATOM      3  C   UNL     1      -1.126  12.102  18.414  0.00  0.00    +0.000 A 
ATOM      4  C   UNL     1      -0.296  13.202  18.655  0.00  0.00    +0.000 A 
ATOM      5  C   UNL     1       1.013  13.059  19.162  0.00  0.00    +0.000 A 
ATOM      6  C   UNL     1       1.421  11.750  19.482  0.00  0.00    +0.000 A 
ENDROOT
BRANCH   1  15
ATOM      7  C   UNL     1       0.041   9.137  21.656  0.00  0.00    +0.000 C 
ATOM      8  C   UNL     1       0.961   8.602  20.586  0.00  0.00    +0.000 A 
ATOM      9  C   UNL     1       1.539   7.396  20.734  0.00  0.00    +0.000 A 
ATOM     10  C   UNL     1       2.362   6.821  19.691  0.00  0.00    +0.000 A 
ATOM     11  C   UNL     1       2.509   7.484  18.542  0.00  0.00    +0.000 A 
ATOM     12  F   UNL     1       3.255   6.995  17.530  0.00  0.00    +0.000 F 
ATOM     13  C   UNL     1       1.872   8.804  18.307  0.00  0.00    +0.000 A 
ATOM     14  O   UNL     1       2.045   9.366  17.226  0.00  0.00    +0.000 OA
ATOM     15  N   UNL     1       1.130   9.322  19.393  0.00  0.00    +0.000 N 
BRANCH  10  16
ATOM     16  C   UNL     1       3.019   5.499  19.882  0.00  0.00    +0.000 C 
ATOM     17  F   UNL     1       2.682   4.915  21.063  0.00  0.00    +0.000 F 
ATOM     18  F   UNL     1       2.673   4.616  18.910  0.00  0.00    +0.000 F 
ATOM     19  F   UNL     1       4.372   5.594  19.874  0.00  0.00    +0.000 F 
ENDBRANCH  10  16
ENDBRANCH   1  15
BRANCH   5  20
ATOM     20  C   UNL     1       2.016  14.305  19.266  0.00  0.00    +0.000 C 
ATOM     21  C   UNL     1       1.392  15.661  18.801  0.00  0.00    +0.000 C 
ATOM     22  O   UNL     1       2.629  16.024  18.136  0.00  0.00    +0.000 OA
ATOM     23  C   UNL     1       2.984  14.610  18.082  0.00  0.00    +0.000 C 
BRANCH  20  24
ATOM     24  C   UNL     1       2.680  14.406  20.654  0.00  0.00    +0.000 C 
BRANCH  24  25
ATOM     25  C   UNL     1       1.862  15.105  21.698  0.00  0.00    +0.000 A 
ATOM     26  N   UNL     1       0.857  14.597  22.385  0.00  0.00    +0.000 NA
ATOM     27  N   UNL     1       0.413  15.546  23.274  0.00  0.00    +0.000 NA
ATOM     28  C   UNL     1       1.169  16.611  23.132  0.00  0.00    +0.000 A 
ATOM     29  N   UNL     1       2.081  16.385  22.146  0.00  0.00    +0.000 N 
ATOM     30  C   UNL     1       3.067  17.334  21.702  0.00  0.00    +0.000 C 
ENDBRANCH  24  25
ENDBRANCH  20  24
ENDBRANCH   5  20
TORSDOF 5
ENDMDL
MODEL 7
REMARK VINA RESULT:      -8.2      1.929      3.062
REMARK  Name = 
REMARK  7 active torsions:
REMARK  status: ('A' for Active; 'I' for Inactive)
REMARK    1  A    between atoms: C_1  and  C_2
REMARK    2  A    between atoms: C_4  and  C_5
REMARK    3  A    between atoms: N_13  and  C_14
REMARK    4  A    between atoms: C_18  and  C_19
REMARK    5  A    between atoms: C_19  and  C_20
REMARK    6  A    between atoms: C_20  and  C_21
REMARK    7  A    between atoms: N_25  and  C_26
REMARK                            x       y       z     vdW  Elec       q    Type
REMARK                         _______ _______ _______ _____ _____    ______ ____
ROOT
ATOM      1  C   UNL     1       2.548   5.761  18.189  0.00  0.00    +0.000 A 
ATOM      2  C   UNL     1       1.910   4.528  18.316  0.00  0.00    +0.000 A 
ATOM      3  C   UNL     1       2.373   3.434  17.597  0.00  0.00    +0.000 A 
ATOM      4  C   UNL     1       3.510   3.562  16.792  0.00  0.00    +0.000 A 
ATOM      5  C   UNL     1       4.213   4.781  16.675  0.00  0.00    +0.000 A 
ATOM      6  C   UNL     1       3.668   5.886  17.356  0.00  0.00    +0.000 A 
ENDROOT
BRANCH   1  15
ATOM      7  C   UNL     1       2.065   5.404  21.047  0.00  0.00    +0.000 C 
ATOM      8  C   UNL     1       1.804   6.718  20.352  0.00  0.00    +0.000 A 
ATOM      9  C   UNL     1       1.346   7.772  21.051  0.00  0.00    +0.000 A 
ATOM     10  C   UNL     1       1.161   9.066  20.430  0.00  0.00    +0.000 A 
ATOM     11  C   UNL     1       1.499   9.224  19.149  0.00  0.00    +0.000 A 
ATOM     12  F   UNL     1       1.360  10.408  18.517  0.00  0.00    +0.000 F 
ATOM     13  C   UNL     1       2.039   8.107  18.333  0.00  0.00    +0.000 A 
ATOM     14  O   UNL     1       2.332   8.316  17.155  0.00  0.00    +0.000 OA
ATOM     15  N   UNL     1       2.137   6.863  18.996  0.00  0.00    +0.000 N 
BRANCH  10  16
ATOM     16  C   UNL     1       0.625  10.215  21.210  0.00  0.00    +0.000 C 
ATOM     17  F   UNL     1       0.507   9.936  22.536  0.00  0.00    +0.000 F 
ATOM     18  F   UNL     1       1.429  11.306  21.122  0.00  0.00    +0.000 F 
ATOM     19  F   UNL     1      -0.608  10.590  20.785  0.00  0.00    +0.000 F 
ENDBRANCH  10  16
ENDBRANCH   1  15
BRANCH   5  20
ATOM     20  C   UNL     1       5.610   4.874  15.895  0.00  0.00    +0.000 C 
ATOM     21  C   UNL     1       5.476   4.774  14.340  0.00  0.00    +0.000 C 
ATOM     22  O   UNL     1       6.656   3.934  14.274  0.00  0.00    +0.000 OA
ATOM     23  C   UNL     1       6.451   3.579  15.674  0.00  0.00    +0.000 C 
BRANCH  20  24
ATOM     24  C   UNL     1       6.447   6.091  16.338  0.00  0.00    +0.000 C 
BRANCH  24  25
ATOM     25  C   UNL     1       7.122   5.944  17.669  0.00  0.00    +0.000 A 
ATOM     26  N   UNL     1       7.204   4.847  18.396  0.00  0.00    +0.000 NA
ATOM     27  N   UNL     1       7.947   5.121  19.518  0.00  0.00    +0.000 NA
ATOM     28  C   UNL     1       8.326   6.377  19.448  0.00  0.00    +0.000 A 
ATOM     29  N   UNL     1       7.820   6.936  18.313  0.00  0.00    +0.000 N 
ATOM     30  C   UNL     1       8.015   8.302  17.909  0.00  0.00    +0.000 C 
ENDBRANCH  24  25
ENDBRANCH  20  24
ENDBRANCH   5  20
TORSDOF 5
ENDMDL
MODEL 8
REMARK VINA RESULT:      -8.2      5.277      9.417
REMARK  Name = 
REMARK  7 active torsions:
REMARK  status: ('A' for Active; 'I' for Inactive)
REMARK    1  A    between atoms: C_1  and  C_2
REMARK    2  A    between atoms: C_4  and  C_5
REMARK    3  A    between atoms: N_13  and  C_14
REMARK    4  A    between atoms: C_18  and  C_19
REMARK    5  A    between atoms: C_19  and  C_20
REMARK    6  A    between atoms: C_20  and  C_21
REMARK    7  A    between atoms: N_25  and  C_26
REMARK                            x       y       z     vdW  Elec       q    Type
REMARK                         _______ _______ _______ _____ _____    ______ ____
ROOT
ATOM      1  C   UNL     1       0.486  10.360  19.259  0.00  0.00    +0.000 A 
ATOM      2  C   UNL     1      -0.750  10.470  18.625  0.00  0.00    +0.000 A 
ATOM      3  C   UNL     1      -1.315  11.722  18.424  0.00  0.00    +0.000 A 
ATOM      4  C   UNL     1      -0.614  12.870  18.810  0.00  0.00    +0.000 A 
ATOM      5  C   UNL     1       0.662  12.804  19.411  0.00  0.00    +0.000 A 
ATOM      6  C   UNL     1       1.166  11.515  19.669  0.00  0.00    +0.000 A 
ENDROOT
BRANCH   1  15
ATOM      7  C   UNL     1       0.035   8.712  21.628  0.00  0.00    +0.000 C 
ATOM      8  C   UNL     1       1.001   8.303  20.543  0.00  0.00    +0.000 A 
ATOM      9  C   UNL     1       1.678   7.144  20.644  0.00  0.00    +0.000 A 
ATOM     10  C   UNL     1       2.550   6.685  19.584  0.00  0.00    +0.000 A 
ATOM     11  C   UNL     1       2.646   7.407  18.466  0.00  0.00    +0.000 A 
ATOM     12  F   UNL     1       3.434   7.027  17.439  0.00  0.00    +0.000 F 
ATOM     13  C   UNL     1       1.902   8.678  18.282  0.00  0.00    +0.000 A 
ATOM     14  O   UNL     1       2.031   9.299  17.227  0.00  0.00    +0.000 OA
ATOM     15  N   UNL     1       1.115   9.085  19.383  0.00  0.00    +0.000 N 
BRANCH  10  16
ATOM     16  C   UNL     1       3.315   5.415  19.724  0.00  0.00    +0.000 C 
ATOM     17  F   UNL     1       3.105   4.564  18.684  0.00  0.00    +0.000 F 
ATOM     18  F   UNL     1       4.654   5.634  19.771  0.00  0.00    +0.000 F 
ATOM     19  F   UNL     1       2.979   4.737  20.849  0.00  0.00    +0.000 F 
ENDBRANCH  10  16
ENDBRANCH   1  15
BRANCH   5  20
ATOM     20  C   UNL     1       1.531  14.122  19.686  0.00  0.00    +0.000 C 
ATOM     21  C   UNL     1       2.442  14.543  18.487  0.00  0.00    +0.000 C 
ATOM     22  O   UNL     1       3.522  14.871  19.398  0.00  0.00    +0.000 OA
ATOM     23  C   UNL     1       2.916  13.991  20.392  0.00  0.00    +0.000 C 
BRANCH  20  24
ATOM     24  C   UNL     1       0.672  15.289  20.213  0.00  0.00    +0.000 C 
BRANCH  24  25
ATOM     25  C   UNL     1       0.444  16.400  19.233  0.00  0.00    +0.000 A 
ATOM     26  N   UNL     1      -0.443  16.423  18.258  0.00  0.00    +0.000 NA
ATOM     27  N   UNL     1      -0.365  17.640  17.625  0.00  0.00    +0.000 NA
ATOM     28  C   UNL     1       0.555  18.350  18.239  0.00  0.00    +0.000 A 
ATOM     29  N   UNL     1       1.099  17.608  19.244  0.00  0.00    +0.000 N 
ATOM     30  C   UNL     1       2.147  18.052  20.122  0.00  0.00    +0.000 C 
ENDBRANCH  24  25
ENDBRANCH  20  24
ENDBRANCH   5  20
TORSDOF 5
ENDMDL
MODEL 9
REMARK VINA RESULT:      -8.2      5.250      9.100
REMARK  Name = 
REMARK  7 active torsions:
REMARK  status: ('A' for Active; 'I' for Inactive)
REMARK    1  A    between atoms: C_1  and  C_2
REMARK    2  A    between atoms: C_4  and  C_5
REMARK    3  A    between atoms: N_13  and  C_14
REMARK    4  A    between atoms: C_18  and  C_19
REMARK    5  A    between atoms: C_19  and  C_20
REMARK    6  A    between atoms: C_20  and  C_21
REMARK    7  A    between atoms: N_25  and  C_26
REMARK                            x       y       z     vdW  Elec       q    Type
REMARK                         _______ _______ _______ _____ _____    ______ ____
ROOT
ATOM      1  C   UNL     1       0.571  10.994  19.305  0.00  0.00    +0.000 A 
ATOM      2  C   UNL     1      -0.688  11.223  18.754  0.00  0.00    +0.000 A 
ATOM      3  C   UNL     1      -1.113  12.524  18.517  0.00  0.00    +0.000 A 
ATOM      4  C   UNL     1      -0.251  13.594  18.781  0.00  0.00    +0.000 A 
ATOM      5  C   UNL     1       1.051  13.402  19.293  0.00  0.00    +0.000 A 
ATOM      6  C   UNL     1       1.415  12.076  19.593  0.00  0.00    +0.000 A 
ENDROOT
BRANCH   1  15
ATOM      7  C   UNL     1      -0.036   9.480  21.727  0.00  0.00    +0.000 C 
ATOM      8  C   UNL     1       0.862   8.930  20.646  0.00  0.00    +0.000 A 
ATOM      9  C   UNL     1       1.401   7.704  20.776  0.00  0.00    +0.000 A 
ATOM     10  C   UNL     1       2.201   7.116  19.723  0.00  0.00    +0.000 A 
ATOM     11  C   UNL     1       2.365   7.789  18.582  0.00  0.00    +0.000 A 
ATOM     12  F   UNL     1       3.090   7.290  17.561  0.00  0.00    +0.000 F 
ATOM     13  C   UNL     1       1.770   9.132  18.367  0.00  0.00    +0.000 A 
ATOM     14  O   UNL     1       1.957   9.702  17.292  0.00  0.00    +0.000 OA
ATOM     15  N   UNL     1       1.050   9.659  19.462  0.00  0.00    +0.000 N 
BRANCH  10  16
ATOM     16  C   UNL     1       2.816   5.771  19.894  0.00  0.00    +0.000 C 
ATOM     17  F   UNL     1       4.175   5.811  19.861  0.00  0.00    +0.000 F 
ATOM     18  F   UNL     1       2.482   5.211  21.085  0.00  0.00    +0.000 F 
ATOM     19  F   UNL     1       2.433   4.906  18.922  0.00  0.00    +0.000 F 
ENDBRANCH  10  16
ENDBRANCH   1  15
BRANCH   5  20
ATOM     20  C   UNL     1       2.090  14.614  19.424  0.00  0.00    +0.000 C 
ATOM     21  C   UNL     1       1.584  15.789  20.322  0.00  0.00    +0.000 C 
ATOM     22  O   UNL     1       2.130  16.760  19.394  0.00  0.00    +0.000 OA
ATOM     23  C   UNL     1       2.090  15.743  18.348  0.00  0.00    +0.000 C 
BRANCH  20  24
ATOM     24  C   UNL     1       3.501  14.134  19.820  0.00  0.00    +0.000 C 
BRANCH  24  25
ATOM     25  C   UNL     1       3.976  14.602  21.163  0.00  0.00    +0.000 A 
ATOM     26  N   UNL     1       3.662  14.086  22.335  0.00  0.00    +0.000 NA
ATOM     27  N   UNL     1       4.346  14.771  23.310  0.00  0.00    +0.000 NA
ATOM     28  C   UNL     1       5.084  15.681  22.716  0.00  0.00    +0.000 A 
ATOM     29  N   UNL     1       4.873  15.621  21.371  0.00  0.00    +0.000 N 
ATOM     30  C   UNL     1       5.499  16.477  20.400  0.00  0.00    +0.000 C 
ENDBRANCH  24  25
ENDBRANCH  20  24
ENDBRANCH   5  20
TORSDOF 5
ENDMDL
