MODEL 1
REMARK VINA RESULT:      -8.7      0.000      0.000
REMARK  Name = 
REMARK  5 active torsions:
REMARK  status: ('A' for Active; 'I' for Inactive)
REMARK    1  A    between atoms: C_2  and  C_3
REMARK    2  A    between atoms: C_6  and  N_7
REMARK    3  A    between atoms: N_7  and  S_8
REMARK    4  A    between atoms: S_8  and  C_11
REMARK    5  A    between atoms: C_24  and  C_25
REMARK                            x       y       z     vdW  Elec       q    Type
REMARK                         _______ _______ _______ _____ _____    ______ ____
ROOT
ATOM      1  C   UNL     1       2.522   7.016  19.213  0.00  0.00    +0.000 A 
ATOM      2  C   UNL     1       1.867   6.822  20.434  0.00  0.00    +0.000 A 
ATOM      3  C   UNL     1       0.992   7.795  20.939  0.00  0.00    +0.000 A 
ATOM      4  C   UNL     1       0.683   8.916  20.172  0.00  0.00    +0.000 A 
ATOM      5  C   UNL     1       1.242   9.069  18.907  0.00  0.00    +0.000 A 
ATOM      6  C   UNL     1       2.164   8.128  18.433  0.00  0.00    +0.000 A 
ENDROOT
BRANCH   1   8
ATOM      7  O   UNL     1       4.774   6.427  19.006  0.00  0.00    +0.000 OA
ATOM      8  C   UNL     1       3.620   6.135  18.694  0.00  0.00    +0.000 C 
ATOM      9  N   UNL     1       3.325   4.965  17.992  0.00  0.00    +0.000 N 
ATOM     10  C   UNL     1       2.008   4.399  17.724  0.00  0.00    +0.000 C 
ATOM     11  C   UNL     1       2.143   2.931  18.038  0.00  0.00    +0.000 C 
ATOM     12  C   UNL     1       3.571   2.607  17.643  0.00  0.00    +0.000 C 
ATOM     13  C   UNL     1       4.352   3.919  17.870  0.00  0.00    +0.000 C 
BRANCH  13  14
ATOM     14  C   UNL     1       5.360   4.130  16.761  0.00  0.00    +0.000 A 
ATOM     15  C   UNL     1       4.964   4.124  15.419  0.00  0.00    +0.000 A 
ATOM     16  C   UNL     1       5.877   4.455  14.419  0.00  0.00    +0.000 A 
ATOM     17  C   UNL     1       7.169   4.782  14.794  0.00  0.00    +0.000 A 
ATOM     18  N   UNL     1       7.601   4.784  16.072  0.00  0.00    +0.000 NA
ATOM     19  C   UNL     1       6.691   4.448  17.018  0.00  0.00    +0.000 A 
ENDBRANCH  13  14
ENDBRANCH   1   8
BRANCH   4  20
ATOM     20  N   UNL     1      -0.237   9.884  20.645  0.00  0.00    +0.000 N 
ATOM     21  H   UNL     1      -1.225   9.641  20.690  0.00  0.00    +0.000 HD
BRANCH  20  22
ATOM     22  S   UNL     1       0.226  10.977  21.842  0.00  0.00    +0.000 S 
ATOM     23  O   UNL     1       0.415  10.194  23.047  0.00  0.00    +0.000 OA
ATOM     24  O   UNL     1       1.275  11.826  21.326  0.00  0.00    +0.000 OA
BRANCH  22  25
ATOM     25  C   UNL     1      -1.239  11.951  22.088  0.00  0.00    +0.000 A 
ATOM     26  C   UNL     1      -2.049  11.700  23.204  0.00  0.00    +0.000 A 
ATOM     27  C   UNL     1      -3.214  12.445  23.385  0.00  0.00    +0.000 A 
ATOM     28  C   UNL     1      -3.545  13.438  22.467  0.00  0.00    +0.000 A 
ATOM     29  F   UNL     1      -4.663  14.152  22.645  0.00  0.00    +0.000 F 
ATOM     30  C   UNL     1      -2.736  13.700  21.365  0.00  0.00    +0.000 A 
ATOM     31  C   UNL     1      -1.573  12.952  21.168  0.00  0.00    +0.000 A 
ENDBRANCH  22  25
ENDBRANCH  20  22
ENDBRANCH   4  20
TORSDOF 5
ENDMDL
MODEL 2
REMARK VINA RESULT:      -8.7      1.002      1.291
REMARK  Name = 
REMARK  5 active torsions:
REMARK  status: ('A' for Active; 'I' for Inactive)
REMARK    1  A    between atoms: C_2  and  C_3
REMARK    2  A    between atoms: C_6  and  N_7
REMARK    3  A    between atoms: N_7  and  S_8
REMARK    4  A    between atoms: S_8  and  C_11
REMARK    5  A    between atoms: C_24  and  C_25
REMARK                            x       y       z     vdW  Elec       q    Type
REMARK                         _______ _______ _______ _____ _____    ______ ____
ROOT
ATOM      1  C   UNL     1       2.455   7.276  19.216  0.00  0.00    +0.000 A 
ATOM      2  C   UNL     1       1.853   7.219  20.479  0.00  0.00    +0.000 A 
ATOM      3  C   UNL     1       1.018   8.256  20.920  0.00  0.00    +0.000 A 
ATOM      4  C   UNL     1       0.692   9.300  20.058  0.00  0.00    +0.000 A 
ATOM      5  C   UNL     1       1.196   9.315  18.761  0.00  0.00    +0.000 A 
ATOM      6  C   UNL     1       2.080   8.311  18.345  0.00  0.00    +0.000 A 
ENDROOT
BRANCH   1   8
ATOM      7  O   UNL     1       4.673   6.550  19.088  0.00  0.00    +0.000 OA
ATOM      8  C   UNL     1       3.513   6.324  18.742  0.00  0.00    +0.000 C 
ATOM      9  N   UNL     1       3.170   5.165  18.043  0.00  0.00    +0.000 N 
ATOM     10  C   UNL     1       1.831   4.677  17.739  0.00  0.00    +0.000 C 
ATOM     11  C   UNL     1       1.867   3.207  18.072  0.00  0.00    +0.000 C 
ATOM     12  C   UNL     1       3.285   2.793  17.726  0.00  0.00    +0.000 C 
ATOM     13  C   UNL     1       4.135   4.059  17.965  0.00  0.00    +0.000 C 
BRANCH  13  14
ATOM     14  C   UNL     1       5.189   4.195  16.886  0.00  0.00    +0.000 A 
ATOM     15  C   UNL     1       4.836   4.198  15.532  0.00  0.00    +0.000 A 
ATOM     16  C   UNL     1       5.798   4.461  14.560  0.00  0.00    +0.000 A 
ATOM     17  C   UNL     1       7.095   4.714  14.972  0.00  0.00    +0.000 A 
ATOM     18  N   UNL     1       7.485   4.705  16.263  0.00  0.00    +0.000 NA
ATOM     19  C   UNL     1       6.528   4.436  17.183  0.00  0.00    +0.000 A 
ENDBRANCH  13  14
ENDBRANCH   1   8
BRANCH   4  20
ATOM     20  N   UNL     1      -0.188  10.331  20.471  0.00  0.00    +0.000 N 
ATOM     21  H   UNL     1      -0.951  10.098  21.104  0.00  0.00    +0.000 HD
BRANCH  20  22
ATOM     22  S   UNL     1       0.385  11.901  20.680  0.00  0.00    +0.000 S 
ATOM     23  O   UNL     1       1.682  11.772  21.315  0.00  0.00    +0.000 OA
ATOM     24  O   UNL     1       0.224  12.632  19.444  0.00  0.00    +0.000 OA
BRANCH  22  25
ATOM     25  C   UNL     1      -0.717  12.575  21.900  0.00  0.00    +0.000 A 
ATOM     26  C   UNL     1      -0.450  13.839  22.440  0.00  0.00    +0.000 A 
ATOM     27  C   UNL     1      -1.298  14.360  23.417  0.00  0.00    +0.000 A 
ATOM     28  C   UNL     1      -2.407  13.624  23.828  0.00  0.00    +0.000 A 
ATOM     29  F   UNL     1      -3.221  14.127  24.764  0.00  0.00    +0.000 F 
ATOM     30  C   UNL     1      -2.684  12.373  23.282  0.00  0.00    +0.000 A 
ATOM     31  C   UNL     1      -1.835  11.839  22.311  0.00  0.00    +0.000 A 
ENDBRANCH  22  25
ENDBRANCH  20  22
ENDBRANCH   4  20
TORSDOF 5
ENDMDL
MODEL 3
REMARK VINA RESULT:      -8.6      4.104     10.060
REMARK  Name = 
REMARK  5 active torsions:
REMARK  status: ('A' for Active; 'I' for Inactive)
REMARK    1  A    between atoms: C_2  and  C_3
REMARK    2  A    between atoms: C_6  and  N_7
REMARK    3  A    between atoms: N_7  and  S_8
REMARK    4  A    between atoms: S_8  and  C_11
REMARK    5  A    between atoms: C_24  and  C_25
REMARK                            x       y       z     vdW  Elec       q    Type
REMARK                         _______ _______ _______ _____ _____    ______ ____
ROOT
ATOM      1  C   UNL     1       1.568   8.271  19.580  0.00  0.00    +0.000 A 
ATOM      2  C   UNL     1       1.569   7.257  20.545  0.00  0.00    +0.000 A 
ATOM      3  C   UNL     1       2.115   5.997  20.258  0.00  0.00    +0.000 A 
ATOM      4  C   UNL     1       2.761   5.781  19.044  0.00  0.00    +0.000 A 
ATOM      5  C   UNL     1       2.865   6.813  18.117  0.00  0.00    +0.000 A 
ATOM      6  C   UNL     1       2.264   8.050  18.380  0.00  0.00    +0.000 A 
ENDROOT
BRANCH   1   8
ATOM      7  O   UNL     1       0.343  10.058  18.704  0.00  0.00    +0.000 OA
ATOM      8  C   UNL     1       0.834   9.571  19.723  0.00  0.00    +0.000 C 
ATOM      9  N   UNL     1       0.616  10.134  20.982  0.00  0.00    +0.000 N 
ATOM     10  C   UNL     1       0.967   9.569  22.279  0.00  0.00    +0.000 C 
ATOM     11  C   UNL     1      -0.257   9.767  23.136  0.00  0.00    +0.000 C 
ATOM     12  C   UNL     1      -0.839  11.077  22.637  0.00  0.00    +0.000 C 
ATOM     13  C   UNL     1      -0.441  11.143  21.146  0.00  0.00    +0.000 C 
BRANCH  13  14
ATOM     14  C   UNL     1      -0.050  12.556  20.769  0.00  0.00    +0.000 A 
ATOM     15  C   UNL     1       1.265  13.006  20.935  0.00  0.00    +0.000 A 
ATOM     16  C   UNL     1       1.639  14.261  20.457  0.00  0.00    +0.000 A 
ATOM     17  C   UNL     1       0.681  15.034  19.825  0.00  0.00    +0.000 A 
ATOM     18  N   UNL     1      -0.601  14.650  19.659  0.00  0.00    +0.000 NA
ATOM     19  C   UNL     1      -0.935  13.430  20.143  0.00  0.00    +0.000 A 
ENDBRANCH  13  14
ENDBRANCH   1   8
BRANCH   4  20
ATOM     20  N   UNL     1       3.360   4.529  18.757  0.00  0.00    +0.000 N 
ATOM     21  H   UNL     1       2.988   3.971  17.991  0.00  0.00    +0.000 HD
BRANCH  20  22
ATOM     22  S   UNL     1       5.016   4.312  18.984  0.00  0.00    +0.000 S 
ATOM     23  O   UNL     1       5.480   5.484  19.699  0.00  0.00    +0.000 OA
ATOM     24  O   UNL     1       5.253   2.980  19.492  0.00  0.00    +0.000 OA
BRANCH  22  25
ATOM     25  C   UNL     1       5.668   4.426  17.335  0.00  0.00    +0.000 A 
ATOM     26  C   UNL     1       7.021   4.742  17.154  0.00  0.00    +0.000 A 
ATOM     27  C   UNL     1       7.530   4.859  15.861  0.00  0.00    +0.000 A 
ATOM     28  C   UNL     1       6.691   4.644  14.770  0.00  0.00    +0.000 A 
ATOM     29  F   UNL     1       7.184   4.755  13.530  0.00  0.00    +0.000 F 
ATOM     30  C   UNL     1       5.350   4.316  14.946  0.00  0.00    +0.000 A 
ATOM     31  C   UNL     1       4.829   4.206  16.237  0.00  0.00    +0.000 A 
ENDBRANCH  22  25
ENDBRANCH  20  22
ENDBRANCH   4  20
TORSDOF 5
ENDMDL
MODEL 4
REMARK VINA RESULT:      -8.5      0.896      1.541
REMARK  Name = 
REMARK  5 active torsions:
REMARK  status: ('A' for Active; 'I' for Inactive)
REMARK    1  A    between atoms: C_2  and  C_3
REMARK    2  A    between atoms: C_6  and  N_7
REMARK    3  A    between atoms: N_7  and  S_8
REMARK    4  A    between atoms: S_8  and  C_11
REMARK    5  A    between atoms: C_24  and  C_25
REMARK                            x       y       z     vdW  Elec       q    Type
REMARK                         _______ _______ _______ _____ _____    ______ ____
ROOT
ATOM      1  C   UNL     1       2.760   7.616  18.601  0.00  0.00    +0.000 A 
ATOM      2  C   UNL     1       2.258   8.642  17.792  0.00  0.00    +0.000 A 
ATOM      3  C   UNL     1       1.167   9.416  18.215  0.00  0.00    +0.000 A 
ATOM      4  C   UNL     1       0.646   9.242  19.495  0.00  0.00    +0.000 A 
ATOM      5  C   UNL     1       1.206   8.300  20.352  0.00  0.00    +0.000 A 
ATOM      6  C   UNL     1       2.253   7.485  19.904  0.00  0.00    +0.000 A 
ENDROOT
BRANCH   1   8
ATOM      7  O   UNL     1       4.967   6.895  18.328  0.00  0.00    +0.000 OA
ATOM      8  C   UNL     1       3.781   6.612  18.153  0.00  0.00    +0.000 C 
ATOM      9  N   UNL     1       3.390   5.361  17.673  0.00  0.00    +0.000 N 
ATOM     10  C   UNL     1       2.038   4.823  17.597  0.00  0.00    +0.000 C 
ATOM     11  C   UNL     1       2.145   3.418  18.135  0.00  0.00    +0.000 C 
ATOM     12  C   UNL     1       3.525   2.968  17.693  0.00  0.00    +0.000 C 
ATOM     13  C   UNL     1       4.367   4.262  17.647  0.00  0.00    +0.000 C 
BRANCH  13  14
ATOM     14  C   UNL     1       5.290   4.245  16.448  0.00  0.00    +0.000 A 
ATOM     15  C   UNL     1       4.784   4.080  15.153  0.00  0.00    +0.000 A 
ATOM     16  C   UNL     1       5.628   4.204  14.052  0.00  0.00    +0.000 A 
ATOM     17  C   UNL     1       6.964   4.490  14.279  0.00  0.00    +0.000 A 
ATOM     18  N   UNL     1       7.500   4.640  15.507  0.00  0.00    +0.000 NA
ATOM     19  C   UNL     1       6.654   4.503  16.557  0.00  0.00    +0.000 A 
ENDBRANCH  13  14
ENDBRANCH   1   8
BRANCH   4  20
ATOM     20  N   UNL     1      -0.423  10.049  19.956  0.00  0.00    +0.000 N 
ATOM     21  H   UNL     1      -1.188   9.606  20.462  0.00  0.00    +0.000 HD
BRANCH  20  22
ATOM     22  S   UNL     1      -0.135  11.632  20.455  0.00  0.00    +0.000 S 
ATOM     23  O   UNL     1       0.949  11.558  21.415  0.00  0.00    +0.000 OA
ATOM     24  O   UNL     1      -0.051  12.486  19.292  0.00  0.00    +0.000 OA
BRANCH  22  25
ATOM     25  C   UNL     1      -1.602  12.042  21.369  0.00  0.00    +0.000 A 
ATOM     26  C   UNL     1      -2.675  12.651  20.704  0.00  0.00    +0.000 A 
ATOM     27  C   UNL     1      -3.818  12.998  21.425  0.00  0.00    +0.000 A 
ATOM     28  C   UNL     1      -3.883  12.718  22.787  0.00  0.00    +0.000 A 
ATOM     29  F   UNL     1      -4.983  13.051  23.475  0.00  0.00    +0.000 F 
ATOM     30  C   UNL     1      -2.825  12.100  23.448  0.00  0.00    +0.000 A 
ATOM     31  C   UNL     1      -1.673  11.758  22.738  0.00  0.00    +0.000 A 
ENDBRANCH  22  25
ENDBRANCH  20  22
ENDBRANCH   4  20
TORSDOF 5
ENDMDL
MODEL 5
REMARK VINA RESULT:      -8.4      2.823      3.316
REMARK  Name = 
REMARK  5 active torsions:
REMARK  status: ('A' for Active; 'I' for Inactive)
REMARK    1  A    between atoms: C_2  and  C_3
REMARK    2  A    between atoms: C_6  and  N_7
REMARK    3  A    between atoms: N_7  and  S_8
REMARK    4  A    between atoms: S_8  and  C_11
REMARK    5  A    between atoms: C_24  and  C_25
REMARK                            x       y       z     vdW  Elec       q    Type
REMARK                         _______ _______ _______ _____ _____    ______ ____
ROOT
ATOM      1  C   UNL     1       2.525   7.507  18.734  0.00  0.00    +0.000 A 
ATOM      2  C   UNL     1       1.984   7.586  20.022  0.00  0.00    +0.000 A 
ATOM      3  C   UNL     1       1.117   8.632  20.370  0.00  0.00    +0.000 A 
ATOM      4  C   UNL     1       0.700   9.540  19.401  0.00  0.00    +0.000 A 
ATOM      5  C   UNL     1       1.144   9.411  18.089  0.00  0.00    +0.000 A 
ATOM      6  C   UNL     1       2.059   8.403  17.758  0.00  0.00    +0.000 A 
ENDROOT
BRANCH   1   8
ATOM      7  O   UNL     1       4.771   6.884  18.562  0.00  0.00    +0.000 OA
ATOM      8  C   UNL     1       3.609   6.551  18.331  0.00  0.00    +0.000 C 
ATOM      9  N   UNL     1       3.296   5.286  17.829  0.00  0.00    +0.000 N 
ATOM     10  C   UNL     1       1.973   4.691  17.688  0.00  0.00    +0.000 C 
ATOM     11  C   UNL     1       2.116   3.289  18.225  0.00  0.00    +0.000 C 
ATOM     12  C   UNL     1       3.534   2.902  17.847  0.00  0.00    +0.000 C 
ATOM     13  C   UNL     1       4.319   4.231  17.846  0.00  0.00    +0.000 C 
BRANCH  13  14
ATOM     14  C   UNL     1       5.298   4.261  16.691  0.00  0.00    +0.000 A 
ATOM     15  C   UNL     1       4.857   4.105  15.371  0.00  0.00    +0.000 A 
ATOM     16  C   UNL     1       5.748   4.272  14.313  0.00  0.00    +0.000 A 
ATOM     17  C   UNL     1       7.063   4.590  14.607  0.00  0.00    +0.000 A 
ATOM     18  N   UNL     1       7.537   4.733  15.862  0.00  0.00    +0.000 NA
ATOM     19  C   UNL     1       6.647   4.554  16.868  0.00  0.00    +0.000 A 
ENDBRANCH  13  14
ENDBRANCH   1   8
BRANCH   4  20
ATOM     20  N   UNL     1      -0.213  10.574  19.724  0.00  0.00    +0.000 N 
ATOM     21  H   UNL     1      -1.211  10.369  19.711  0.00  0.00    +0.000 HD
BRANCH  20  22
ATOM     22  S   UNL     1       0.201  11.745  20.863  0.00  0.00    +0.000 S 
ATOM     23  O   UNL     1      -0.984  12.559  21.051  0.00  0.00    +0.000 OA
ATOM     24  O   UNL     1       0.857  11.105  21.981  0.00  0.00    +0.000 OA
BRANCH  22  25
ATOM     25  C   UNL     1       1.382  12.750  19.998  0.00  0.00    +0.000 A 
ATOM     26  C   UNL     1       2.415  13.366  20.717  0.00  0.00    +0.000 A 
ATOM     27  C   UNL     1       3.329  14.178  20.045  0.00  0.00    +0.000 A 
ATOM     28  C   UNL     1       3.211  14.350  18.668  0.00  0.00    +0.000 A 
ATOM     29  F   UNL     1       4.091  15.129  18.026  0.00  0.00    +0.000 F 
ATOM     30  C   UNL     1       2.195  13.729  17.947  0.00  0.00    +0.000 A 
ATOM     31  C   UNL     1       1.270  12.922  18.613  0.00  0.00    +0.000 A 
ENDBRANCH  22  25
ENDBRANCH  20  22
ENDBRANCH   4  20
TORSDOF 5
ENDMDL
MODEL 6
REMARK VINA RESULT:      -8.4      2.202      2.632
REMARK  Name = 
REMARK  5 active torsions:
REMARK  status: ('A' for Active; 'I' for Inactive)
REMARK    1  A    between atoms: C_2  and  C_3
REMARK    2  A    between atoms: C_6  and  N_7
REMARK    3  A    between atoms: N_7  and  S_8
REMARK    4  A    between atoms: S_8  and  C_11
REMARK    5  A    between atoms: C_24  and  C_25
REMARK                            x       y       z     vdW  Elec       q    Type
REMARK                         _______ _______ _______ _____ _____    ______ ____
ROOT
ATOM      1  C   UNL     1       2.569   7.120  19.250  0.00  0.00    +0.000 A 
ATOM      2  C   UNL     1       1.992   7.013  20.521  0.00  0.00    +0.000 A 
ATOM      3  C   UNL     1       1.167   8.033  21.019  0.00  0.00    +0.000 A 
ATOM      4  C   UNL     1       0.826   9.110  20.205  0.00  0.00    +0.000 A 
ATOM      5  C   UNL     1       1.304   9.175  18.900  0.00  0.00    +0.000 A 
ATOM      6  C   UNL     1       2.178   8.189  18.427  0.00  0.00    +0.000 A 
ENDROOT
BRANCH   1   8
ATOM      7  O   UNL     1       4.784   6.406  19.040  0.00  0.00    +0.000 OA
ATOM      8  C   UNL     1       3.616   6.187  18.718  0.00  0.00    +0.000 C 
ATOM      9  N   UNL     1       3.258   5.050  17.991  0.00  0.00    +0.000 N 
ATOM     10  C   UNL     1       1.913   4.567  17.707  0.00  0.00    +0.000 C 
ATOM     11  C   UNL     1       1.961   3.087  17.992  0.00  0.00    +0.000 C 
ATOM     12  C   UNL     1       3.370   2.689  17.596  0.00  0.00    +0.000 C 
ATOM     13  C   UNL     1       4.224   3.950  17.853  0.00  0.00    +0.000 C 
BRANCH  13  14
ATOM     14  C   UNL     1       5.248   4.123  16.752  0.00  0.00    +0.000 A 
ATOM     15  C   UNL     1       4.870   4.082  15.405  0.00  0.00    +0.000 A 
ATOM     16  C   UNL     1       5.798   4.380  14.409  0.00  0.00    +0.000 A 
ATOM     17  C   UNL     1       7.087   4.711  14.792  0.00  0.00    +0.000 A 
ATOM     18  N   UNL     1       7.501   4.746  16.075  0.00  0.00    +0.000 NA
ATOM     19  C   UNL     1       6.577   4.442  17.018  0.00  0.00    +0.000 A 
ENDBRANCH  13  14
ENDBRANCH   1   8
BRANCH   4  20
ATOM     20  N   UNL     1      -0.046  10.124  20.675  0.00  0.00    +0.000 N 
ATOM     21  H   UNL     1      -0.186  10.222  21.679  0.00  0.00    +0.000 HD
BRANCH  20  22
ATOM     22  S   UNL     1      -0.166  11.587  19.849  0.00  0.00    +0.000 S 
ATOM     23  O   UNL     1      -0.456  12.591  20.853  0.00  0.00    +0.000 OA
ATOM     24  O   UNL     1       0.964  11.721  18.958  0.00  0.00    +0.000 OA
BRANCH  22  25
ATOM     25  C   UNL     1      -1.644  11.386  18.884  0.00  0.00    +0.000 A 
ATOM     26  C   UNL     1      -1.599  10.614  17.716  0.00  0.00    +0.000 A 
ATOM     27  C   UNL     1      -2.751  10.476  16.942  0.00  0.00    +0.000 A 
ATOM     28  C   UNL     1      -3.932  11.091  17.350  0.00  0.00    +0.000 A 
ATOM     29  F   UNL     1      -5.036  10.955  16.605  0.00  0.00    +0.000 F 
ATOM     30  C   UNL     1      -3.984  11.847  18.518  0.00  0.00    +0.000 A 
ATOM     31  C   UNL     1      -2.833  12.000  19.294  0.00  0.00    +0.000 A 
ENDBRANCH  22  25
ENDBRANCH  20  22
ENDBRANCH   4  20
TORSDOF 5
ENDMDL
MODEL 7
REMARK VINA RESULT:      -8.4      3.938     10.374
REMARK  Name = 
REMARK  5 active torsions:
REMARK  status: ('A' for Active; 'I' for Inactive)
REMARK    1  A    between atoms: C_2  and  C_3
REMARK    2  A    between atoms: C_6  and  N_7
REMARK    3  A    between atoms: N_7  and  S_8
REMARK    4  A    between atoms: S_8  and  C_11
REMARK    5  A    between atoms: C_24  and  C_25
REMARK                            x       y       z     vdW  Elec       q    Type
REMARK                         _______ _______ _______ _____ _____    ______ ____
ROOT
ATOM      1  C   UNL     1       1.502   7.960  20.181  0.00  0.00    +0.000 A 
ATOM      2  C   UNL     1       2.143   7.976  18.936  0.00  0.00    +0.000 A 
ATOM      3  C   UNL     1       2.821   6.840  18.468  0.00  0.00    +0.000 A 
ATOM      4  C   UNL     1       2.767   5.652  19.191  0.00  0.00    +0.000 A 
ATOM      5  C   UNL     1       2.042   5.590  20.377  0.00  0.00    +0.000 A 
ATOM      6  C   UNL     1       1.419   6.742  20.874  0.00  0.00    +0.000 A 
ENDROOT
BRANCH   1   8
ATOM      7  O   UNL     1       0.772   9.127  22.070  0.00  0.00    +0.000 OA
ATOM      8  C   UNL     1       0.931   9.175  20.850  0.00  0.00    +0.000 C 
ATOM      9  N   UNL     1       0.707  10.350  20.129  0.00  0.00    +0.000 N 
ATOM     10  C   UNL     1       1.032  10.608  18.732  0.00  0.00    +0.000 C 
ATOM     11  C   UNL     1       1.680  11.969  18.726  0.00  0.00    +0.000 C 
ATOM     12  C   UNL     1       0.963  12.714  19.836  0.00  0.00    +0.000 C 
ATOM     13  C   UNL     1       0.563  11.622  20.852  0.00  0.00    +0.000 C 
BRANCH  13  14
ATOM     14  C   UNL     1      -0.819  11.899  21.404  0.00  0.00    +0.000 A 
ATOM     15  C   UNL     1      -1.060  11.872  22.783  0.00  0.00    +0.000 A 
ATOM     16  C   UNL     1      -2.301  12.263  23.282  0.00  0.00    +0.000 A 
ATOM     17  C   UNL     1      -3.271  12.671  22.382  0.00  0.00    +0.000 A 
ATOM     18  N   UNL     1      -3.090  12.697  21.046  0.00  0.00    +0.000 NA
ATOM     19  C   UNL     1      -1.876  12.301  20.592  0.00  0.00    +0.000 A 
ENDBRANCH  13  14
ENDBRANCH   1   8
BRANCH   4  20
ATOM     20  N   UNL     1       3.406   4.482  18.708  0.00  0.00    +0.000 N 
ATOM     21  H   UNL     1       3.060   4.054  17.851  0.00  0.00    +0.000 HD
BRANCH  20  22
ATOM     22  S   UNL     1       5.063   4.272  18.926  0.00  0.00    +0.000 S 
ATOM     23  O   UNL     1       5.519   5.427  19.675  0.00  0.00    +0.000 OA
ATOM     24  O   UNL     1       5.311   2.928  19.397  0.00  0.00    +0.000 OA
BRANCH  22  25
ATOM     25  C   UNL     1       5.712   4.438  17.281  0.00  0.00    +0.000 A 
ATOM     26  C   UNL     1       4.882   4.161  16.187  0.00  0.00    +0.000 A 
ATOM     27  C   UNL     1       5.397   4.265  14.894  0.00  0.00    +0.000 A 
ATOM     28  C   UNL     1       6.720   4.659  14.710  0.00  0.00    +0.000 A 
ATOM     29  F   UNL     1       7.209   4.760  13.468  0.00  0.00    +0.000 F 
ATOM     30  C   UNL     1       7.543   4.950  15.795  0.00  0.00    +0.000 A 
ATOM     31  C   UNL     1       7.040   4.838  17.093  0.00  0.00    +0.000 A 
ENDBRANCH  22  25
ENDBRANCH  20  22
ENDBRANCH   4  20
TORSDOF 5
ENDMDL
MODEL 8
REMARK VINA RESULT:      -8.3      2.269      2.644
REMARK  Name = 
REMARK  5 active torsions:
REMARK  status: ('A' for Active; 'I' for Inactive)
REMARK    1  A    between atoms: C_2  and  C_3
REMARK    2  A    between atoms: C_6  and  N_7
REMARK    3  A    between atoms: N_7  and  S_8
REMARK    4  A    between atoms: S_8  and  C_11
REMARK    5  A    between atoms: C_24  and  C_25
REMARK                            x       y       z     vdW  Elec       q    Type
REMARK                         _______ _______ _______ _____ _____    ______ ____
ROOT
ATOM      1  C   UNL     1       2.886   7.090  18.764  0.00  0.00    +0.000 A 
ATOM      2  C   UNL     1       2.365   6.936  20.054  0.00  0.00    +0.000 A 
ATOM      3  C   UNL     1       1.496   7.898  20.593  0.00  0.00    +0.000 A 
ATOM      4  C   UNL     1       1.058   8.958  19.803  0.00  0.00    +0.000 A 
ATOM      5  C   UNL     1       1.482   9.064  18.483  0.00  0.00    +0.000 A 
ATOM      6  C   UNL     1       2.399   8.139  17.968  0.00  0.00    +0.000 A 
ENDROOT
BRANCH   1   8
ATOM      7  O   UNL     1       5.133   6.599  18.347  0.00  0.00    +0.000 OA
ATOM      8  C   UNL     1       3.970   6.230  18.185  0.00  0.00    +0.000 C 
ATOM      9  N   UNL     1       3.669   5.000  17.596  0.00  0.00    +0.000 N 
ATOM     10  C   UNL     1       2.365   4.353  17.513  0.00  0.00    +0.000 C 
ATOM     11  C   UNL     1       2.616   2.918  17.904  0.00  0.00    +0.000 C 
ATOM     12  C   UNL     1       4.010   2.639  17.374  0.00  0.00    +0.000 C 
ATOM     13  C   UNL     1       4.734   4.001  17.429  0.00  0.00    +0.000 C 
BRANCH  13  14
ATOM     14  C   UNL     1       5.604   4.183  16.203  0.00  0.00    +0.000 A 
ATOM     15  C   UNL     1       5.147   3.805  14.935  0.00  0.00    +0.000 A 
ATOM     16  C   UNL     1       5.902   4.105  13.803  0.00  0.00    +0.000 A 
ATOM     17  C   UNL     1       7.101   4.775  13.973  0.00  0.00    +0.000 A 
ATOM     18  N   UNL     1       7.590   5.143  15.175  0.00  0.00    +0.000 NA
ATOM     19  C   UNL     1       6.836   4.828  16.256  0.00  0.00    +0.000 A 
ENDBRANCH  13  14
ENDBRANCH   1   8
BRANCH   4  20
ATOM     20  N   UNL     1       0.143   9.910  20.316  0.00  0.00    +0.000 N 
ATOM     21  H   UNL     1      -0.018   9.944  21.321  0.00  0.00    +0.000 HD
BRANCH  20  22
ATOM     22  S   UNL     1      -0.018  11.414  19.574  0.00  0.00    +0.000 S 
ATOM     23  O   UNL     1      -0.206  12.372  20.646  0.00  0.00    +0.000 OA
ATOM     24  O   UNL     1       1.038  11.576  18.600  0.00  0.00    +0.000 OA
BRANCH  22  25
ATOM     25  C   UNL     1      -1.573  11.283  18.725  0.00  0.00    +0.000 A 
ATOM     26  C   UNL     1      -2.682  11.983  19.217  0.00  0.00    +0.000 A 
ATOM     27  C   UNL     1      -3.912  11.861  18.569  0.00  0.00    +0.000 A 
ATOM     28  C   UNL     1      -4.014  11.060  17.434  0.00  0.00    +0.000 A 
ATOM     29  F   UNL     1      -5.195  10.946  16.814  0.00  0.00    +0.000 F 
ATOM     30  C   UNL     1      -2.910  10.373  16.935  0.00  0.00    +0.000 A 
ATOM     31  C   UNL     1      -1.678  10.481  17.582  0.00  0.00    +0.000 A 
ENDBRANCH  22  25
ENDBRANCH  20  22
ENDBRANCH   4  20
TORSDOF 5
ENDMDL
MODEL 9
REMARK VINA RESULT:      -8.3      3.920     10.321
REMARK  Name = 
REMARK  5 active torsions:
REMARK  status: ('A' for Active; 'I' for Inactive)
REMARK    1  A    between atoms: C_2  and  C_3
REMARK    2  A    between atoms: C_6  and  N_7
REMARK    3  A    between atoms: N_7  and  S_8
REMARK    4  A    between atoms: S_8  and  C_11
REMARK    5  A    between atoms: C_24  and  C_25
REMARK                            x       y       z     vdW  Elec       q    Type
REMARK                         _______ _______ _______ _____ _____    ______ ____
ROOT
ATOM      1  C   UNL     1       1.503   8.161  20.168  0.00  0.00    +0.000 A 
ATOM      2  C   UNL     1       2.115   8.137  18.910  0.00  0.00    +0.000 A 
ATOM      3  C   UNL     1       2.752   6.976  18.447  0.00  0.00    +0.000 A 
ATOM      4  C   UNL     1       2.683   5.802  19.193  0.00  0.00    +0.000 A 
ATOM      5  C   UNL     1       1.984   5.782  20.395  0.00  0.00    +0.000 A 
ATOM      6  C   UNL     1       1.403   6.958  20.885  0.00  0.00    +0.000 A 
ENDROOT
BRANCH   1   8
ATOM      7  O   UNL     1       0.820   9.371  22.048  0.00  0.00    +0.000 OA
ATOM      8  C   UNL     1       0.979   9.403  20.828  0.00  0.00    +0.000 C 
ATOM      9  N   UNL     1       0.800  10.579  20.097  0.00  0.00    +0.000 N 
ATOM     10  C   UNL     1       1.132  10.813  18.697  0.00  0.00    +0.000 C 
ATOM     11  C   UNL     1       1.832  12.148  18.680  0.00  0.00    +0.000 C 
ATOM     12  C   UNL     1       1.145  12.930  19.784  0.00  0.00    +0.000 C 
ATOM     13  C   UNL     1       0.706  11.862  20.809  0.00  0.00    +0.000 C 
BRANCH  13  14
ATOM     14  C   UNL     1      -0.664  12.197  21.361  0.00  0.00    +0.000 A 
ATOM     15  C   UNL     1      -1.711  12.565  20.509  0.00  0.00    +0.000 A 
ATOM     16  C   UNL     1      -2.998  12.736  21.017  0.00  0.00    +0.000 A 
ATOM     17  C   UNL     1      -3.200  12.533  22.371  0.00  0.00    +0.000 A 
ATOM     18  N   UNL     1      -2.219  12.195  23.233  0.00  0.00    +0.000 NA
ATOM     19  C   UNL     1      -0.978  12.047  22.709  0.00  0.00    +0.000 A 
ENDBRANCH  13  14
ENDBRANCH   1   8
BRANCH   4  20
ATOM     20  N   UNL     1       3.279   4.608  18.717  0.00  0.00    +0.000 N 
ATOM     21  H   UNL     1       2.935   4.201  17.849  0.00  0.00    +0.000 HD
BRANCH  20  22
ATOM     22  S   UNL     1       4.920   4.321  18.973  0.00  0.00    +0.000 S 
ATOM     23  O   UNL     1       5.415   5.462  19.717  0.00  0.00    +0.000 OA
ATOM     24  O   UNL     1       5.092   2.973  19.465  0.00  0.00    +0.000 OA
BRANCH  22  25
ATOM     25  C   UNL     1       5.610   4.434  17.341  0.00  0.00    +0.000 A 
ATOM     26  C   UNL     1       6.964   4.760  17.191  0.00  0.00    +0.000 A 
ATOM     27  C   UNL     1       7.503   4.876  15.909  0.00  0.00    +0.000 A 
ATOM     28  C   UNL     1       6.692   4.649  14.800  0.00  0.00    +0.000 A 
ATOM     29  F   UNL     1       7.213   4.760  13.571  0.00  0.00    +0.000 F 
ATOM     30  C   UNL     1       5.350   4.311  14.945  0.00  0.00    +0.000 A 
ATOM     31  C   UNL     1       4.799   4.202  16.223  0.00  0.00    +0.000 A 
ENDBRANCH  22  25
ENDBRANCH  20  22
ENDBRANCH   4  20
TORSDOF 5
ENDMDL
