MODEL 1
REMARK VINA RESULT:      -8.9      0.000      0.000
REMARK  Name = 
REMARK  3 active torsions:
REMARK  status: ('A' for Active; 'I' for Inactive)
REMARK    1  A    between atoms: C_2  and  C_3
REMARK    2  A    between atoms: C_5  and  C_6
REMARK    3  A    between atoms: N_12  and  C_13
REMARK                            x       y       z     vdW  Elec       q    Type
REMARK                         _______ _______ _______ _____ _____    ______ ____
ROOT
ATOM      1  C   UNL     1       1.334   9.609  18.497  0.00  0.00    +0.000 A 
ATOM      2  N   UNL     1       0.149   9.778  17.825  0.00  0.00    +0.000 NA
ATOM      3  C   UNL     1      -0.541  10.595  18.582  0.00  0.00    +0.000 A 
ATOM      4  N   UNL     1       0.228  10.946  19.688  0.00  0.00    +0.000 N 
ATOM      5  N   UNL     1       1.479  10.435  19.545  0.00  0.00    +0.000 NA
ENDROOT
BRANCH   1   7
ATOM      6  O   UNL     1       2.946   8.577  17.107  0.00  0.00    +0.000 OA
ATOM      7  C   UNL     1       2.223   8.487  18.103  0.00  0.00    +0.000 C 
ATOM      8  N   UNL     1       2.219   7.324  18.860  0.00  0.00    +0.000 N 
ATOM      9  C   UNL     1       1.554   7.183  20.162  0.00  0.00    +0.000 C 
ATOM     10  C   UNL     1       2.173   6.057  21.000  0.00  0.00    +0.000 C 
ATOM     11  C   UNL     1       1.986   4.800  20.190  0.00  0.00    +0.000 A 
ATOM     12  C   UNL     1       1.347   3.676  20.702  0.00  0.00    +0.000 A 
ATOM     13  C   UNL     1       0.919   2.682  19.826  0.00  0.00    +0.000 A 
ATOM     14  C   UNL     1       1.151   2.800  18.452  0.00  0.00    +0.000 A 
ATOM     15  C   UNL     1       1.860   3.888  17.945  0.00  0.00    +0.000 A 
ATOM     16  C   UNL     1       2.286   4.891  18.814  0.00  0.00    +0.000 A 
ATOM     17  C   UNL     1       2.937   6.163  18.332  0.00  0.00    +0.000 C 
ENDBRANCH   1   7
BRANCH   3  18
ATOM     18  C   UNL     1      -1.959  10.894  18.350  0.00  0.00    +0.000 A 
ATOM     19  C   UNL     1      -2.659   9.982  17.555  0.00  0.00    +0.000 A 
ATOM     20  C   UNL     1      -4.049  10.048  17.471  0.00  0.00    +0.000 A 
ATOM     21  C   UNL     1      -4.729  11.039  18.167  0.00  0.00    +0.000 A 
ATOM     22  C   UNL     1      -4.028  12.003  18.890  0.00  0.00    +0.000 A 
ATOM     23  C   UNL     1      -2.635  11.953  18.958  0.00  0.00    +0.000 A 
ENDBRANCH   3  18
BRANCH   4  24
ATOM     24  C   UNL     1      -0.169  11.600  20.882  0.00  0.00    +0.000 A 
ATOM     25  C   UNL     1      -0.805  10.867  21.901  0.00  0.00    +0.000 A 
ATOM     26  C   UNL     1      -1.336  11.517  23.012  0.00  0.00    +0.000 A 
ATOM     27  C   UNL     1      -1.207  12.896  23.129  0.00  0.00    +0.000 A 
ATOM     28  C   UNL     1      -0.514  13.621  22.156  0.00  0.00    +0.000 A 
ATOM     29  C   UNL     1       0.030  12.976  21.038  0.00  0.00    +0.000 A 
ENDBRANCH   4  24
TORSDOF 3
ENDMDL
MODEL 2
REMARK VINA RESULT:      -8.3      0.469      1.332
REMARK  Name = 
REMARK  3 active torsions:
REMARK  status: ('A' for Active; 'I' for Inactive)
REMARK    1  A    between atoms: C_2  and  C_3
REMARK    2  A    between atoms: C_5  and  C_6
REMARK    3  A    between atoms: N_12  and  C_13
REMARK                            x       y       z     vdW  Elec       q    Type
REMARK                         _______ _______ _______ _____ _____    ______ ____
ROOT
ATOM      1  C   UNL     1       1.390   9.381  18.433  0.00  0.00    +0.000 A 
ATOM      2  N   UNL     1       0.262   9.501  17.660  0.00  0.00    +0.000 NA
ATOM      3  C   UNL     1      -0.523  10.292  18.349  0.00  0.00    +0.000 A 
ATOM      4  N   UNL     1       0.132  10.676  19.516  0.00  0.00    +0.000 N 
ATOM      5  N   UNL     1       1.411  10.215  19.484  0.00  0.00    +0.000 NA
ENDROOT
BRANCH   1   7
ATOM      6  O   UNL     1       3.168   8.420  17.206  0.00  0.00    +0.000 OA
ATOM      7  C   UNL     1       2.354   8.295  18.124  0.00  0.00    +0.000 C 
ATOM      8  N   UNL     1       2.317   7.127  18.872  0.00  0.00    +0.000 N 
ATOM      9  C   UNL     1       1.531   6.952  20.101  0.00  0.00    +0.000 C 
ATOM     10  C   UNL     1       2.104   5.842  20.991  0.00  0.00    +0.000 C 
ATOM     11  C   UNL     1       2.045   4.586  20.160  0.00  0.00    +0.000 A 
ATOM     12  C   UNL     1       1.399   3.435  20.601  0.00  0.00    +0.000 A 
ATOM     13  C   UNL     1       1.096   2.434  19.682  0.00  0.00    +0.000 A 
ATOM     14  C   UNL     1       1.459   2.571  18.338  0.00  0.00    +0.000 A 
ATOM     15  C   UNL     1       2.175   3.688  17.910  0.00  0.00    +0.000 A 
ATOM     16  C   UNL     1       2.476   4.698  18.822  0.00  0.00    +0.000 A 
ATOM     17  C   UNL     1       3.125   5.997  18.413  0.00  0.00    +0.000 C 
ENDBRANCH   1   7
BRANCH   3  18
ATOM     18  C   UNL     1      -1.926  10.533  17.993  0.00  0.00    +0.000 A 
ATOM     19  C   UNL     1      -2.621  11.438  18.802  0.00  0.00    +0.000 A 
ATOM     20  C   UNL     1      -3.872  11.911  18.411  0.00  0.00    +0.000 A 
ATOM     21  C   UNL     1      -4.432  11.460  17.222  0.00  0.00    +0.000 A 
ATOM     22  C   UNL     1      -3.781  10.492  16.456  0.00  0.00    +0.000 A 
ATOM     23  C   UNL     1      -2.537  10.000  16.857  0.00  0.00    +0.000 A 
ENDBRANCH   3  18
BRANCH   4  24
ATOM     24  C   UNL     1      -0.393  11.316  20.667  0.00  0.00    +0.000 A 
ATOM     25  C   UNL     1      -0.461  12.720  20.716  0.00  0.00    +0.000 A 
ATOM     26  C   UNL     1      -0.832  13.369  21.891  0.00  0.00    +0.000 A 
ATOM     27  C   UNL     1      -1.168  12.620  23.013  0.00  0.00    +0.000 A 
ATOM     28  C   UNL     1      -1.171  11.224  22.950  0.00  0.00    +0.000 A 
ATOM     29  C   UNL     1      -0.807  10.562  21.771  0.00  0.00    +0.000 A 
ENDBRANCH   4  24
TORSDOF 3
ENDMDL
MODEL 3
REMARK VINA RESULT:      -8.3      2.135      8.258
REMARK  Name = 
REMARK  3 active torsions:
REMARK  status: ('A' for Active; 'I' for Inactive)
REMARK    1  A    between atoms: C_2  and  C_3
REMARK    2  A    between atoms: C_5  and  C_6
REMARK    3  A    between atoms: N_12  and  C_13
REMARK                            x       y       z     vdW  Elec       q    Type
REMARK                         _______ _______ _______ _____ _____    ______ ____
ROOT
ATOM      1  C   UNL     1       1.433   8.088  20.720  0.00  0.00    +0.000 A 
ATOM      2  N   UNL     1       2.393   8.110  19.740  0.00  0.00    +0.000 NA
ATOM      3  C   UNL     1       2.549   6.852  19.408  0.00  0.00    +0.000 A 
ATOM      4  N   UNL     1       1.669   6.074  20.155  0.00  0.00    +0.000 N 
ATOM      5  N   UNL     1       0.853   6.888  20.876  0.00  0.00    +0.000 NA
ENDROOT
BRANCH   1   7
ATOM      6  O   UNL     1       1.832   9.407  22.642  0.00  0.00    +0.000 OA
ATOM      7  C   UNL     1       1.246   9.297  21.562  0.00  0.00    +0.000 C 
ATOM      8  N   UNL     1       0.388  10.297  21.128  0.00  0.00    +0.000 N 
ATOM      9  C   UNL     1      -0.202  10.359  19.783  0.00  0.00    +0.000 C 
ATOM     10  C   UNL     1      -0.604  11.790  19.403  0.00  0.00    +0.000 C 
ATOM     11  C   UNL     1      -1.624  12.210  20.431  0.00  0.00    +0.000 A 
ATOM     12  C   UNL     1      -2.888  12.668  20.076  0.00  0.00    +0.000 A 
ATOM     13  C   UNL     1      -3.884  12.730  21.047  0.00  0.00    +0.000 A 
ATOM     14  C   UNL     1      -3.609  12.361  22.368  0.00  0.00    +0.000 A 
ATOM     15  C   UNL     1      -2.322  11.976  22.742  0.00  0.00    +0.000 A 
ATOM     16  C   UNL     1      -1.322  11.904  21.775  0.00  0.00    +0.000 A 
ATOM     17  C   UNL     1       0.057  11.368  22.068  0.00  0.00    +0.000 C 
ENDBRANCH   1   7
BRANCH   3  18
ATOM     18  C   UNL     1       3.628   6.385  18.531  0.00  0.00    +0.000 A 
ATOM     19  C   UNL     1       3.714   6.998  17.277  0.00  0.00    +0.000 A 
ATOM     20  C   UNL     1       4.834   6.796  16.472  0.00  0.00    +0.000 A 
ATOM     21  C   UNL     1       5.854   5.965  16.917  0.00  0.00    +0.000 A 
ATOM     22  C   UNL     1       5.733   5.284  18.128  0.00  0.00    +0.000 A 
ATOM     23  C   UNL     1       4.602   5.466  18.926  0.00  0.00    +0.000 A 
ENDBRANCH   3  18
BRANCH   4  24
ATOM     24  C   UNL     1       1.639   4.666  20.320  0.00  0.00    +0.000 A 
ATOM     25  C   UNL     1       2.208   4.085  21.467  0.00  0.00    +0.000 A 
ATOM     26  C   UNL     1       2.323   2.701  21.575  0.00  0.00    +0.000 A 
ATOM     27  C   UNL     1       1.841   1.890  20.555  0.00  0.00    +0.000 A 
ATOM     28  C   UNL     1       1.210   2.458  19.445  0.00  0.00    +0.000 A 
ATOM     29  C   UNL     1       1.083   3.847  19.330  0.00  0.00    +0.000 A 
ENDBRANCH   4  24
TORSDOF 3
ENDMDL
MODEL 4
REMARK VINA RESULT:      -8.2      1.810      2.837
REMARK  Name = 
REMARK  3 active torsions:
REMARK  status: ('A' for Active; 'I' for Inactive)
REMARK    1  A    between atoms: C_2  and  C_3
REMARK    2  A    between atoms: C_5  and  C_6
REMARK    3  A    between atoms: N_12  and  C_13
REMARK                            x       y       z     vdW  Elec       q    Type
REMARK                         _______ _______ _______ _____ _____    ______ ____
ROOT
ATOM      1  C   UNL     1       1.739   9.549  18.395  0.00  0.00    +0.000 A 
ATOM      2  N   UNL     1       0.662   9.410  19.235  0.00  0.00    +0.000 NA
ATOM      3  C   UNL     1       0.448  10.619  19.693  0.00  0.00    +0.000 A 
ATOM      4  N   UNL     1       1.363  11.492  19.114  0.00  0.00    +0.000 N 
ATOM      5  N   UNL     1       2.082  10.827  18.170  0.00  0.00    +0.000 NA
ENDROOT
BRANCH   1   7
ATOM      6  O   UNL     1       3.103   8.321  16.904  0.00  0.00    +0.000 OA
ATOM      7  C   UNL     1       2.466   8.330  17.961  0.00  0.00    +0.000 C 
ATOM      8  N   UNL     1       2.408   7.191  18.752  0.00  0.00    +0.000 N 
ATOM      9  C   UNL     1       1.850   7.151  20.111  0.00  0.00    +0.000 C 
ATOM     10  C   UNL     1       2.420   5.984  20.927  0.00  0.00    +0.000 C 
ATOM     11  C   UNL     1       2.031   4.737  20.174  0.00  0.00    +0.000 A 
ATOM     12  C   UNL     1       1.325   3.699  20.775  0.00  0.00    +0.000 A 
ATOM     13  C   UNL     1       0.718   2.739  19.971  0.00  0.00    +0.000 A 
ATOM     14  C   UNL     1       0.838   2.800  18.579  0.00  0.00    +0.000 A 
ATOM     15  C   UNL     1       1.609   3.795  17.978  0.00  0.00    +0.000 A 
ATOM     16  C   UNL     1       2.214   4.765  18.776  0.00  0.00    +0.000 A 
ATOM     17  C   UNL     1       2.949   5.949  18.200  0.00  0.00    +0.000 C 
ENDBRANCH   1   7
BRANCH   3  18
ATOM     18  C   UNL     1      -0.490  10.905  20.786  0.00  0.00    +0.000 A 
ATOM     19  C   UNL     1      -0.287  10.195  21.973  0.00  0.00    +0.000 A 
ATOM     20  C   UNL     1      -0.967  10.561  23.134  0.00  0.00    +0.000 A 
ATOM     21  C   UNL     1      -1.861  11.623  23.095  0.00  0.00    +0.000 A 
ATOM     22  C   UNL     1      -2.131  12.277  21.893  0.00  0.00    +0.000 A 
ATOM     23  C   UNL     1      -1.468  11.898  20.725  0.00  0.00    +0.000 A 
ENDBRANCH   3  18
BRANCH   4  24
ATOM     24  C   UNL     1       1.676  12.828  19.473  0.00  0.00    +0.000 A 
ATOM     25  C   UNL     1       2.155  13.110  20.765  0.00  0.00    +0.000 A 
ATOM     26  C   UNL     1       2.323  14.427  21.184  0.00  0.00    +0.000 A 
ATOM     27  C   UNL     1       2.046  15.469  20.307  0.00  0.00    +0.000 A 
ATOM     28  C   UNL     1       1.638  15.194  18.999  0.00  0.00    +0.000 A 
ATOM     29  C   UNL     1       1.473  13.873  18.565  0.00  0.00    +0.000 A 
ENDBRANCH   4  24
TORSDOF 3
ENDMDL
MODEL 5
REMARK VINA RESULT:      -8.2      1.588      3.598
REMARK  Name = 
REMARK  3 active torsions:
REMARK  status: ('A' for Active; 'I' for Inactive)
REMARK    1  A    between atoms: C_2  and  C_3
REMARK    2  A    between atoms: C_5  and  C_6
REMARK    3  A    between atoms: N_12  and  C_13
REMARK                            x       y       z     vdW  Elec       q    Type
REMARK                         _______ _______ _______ _____ _____    ______ ____
ROOT
ATOM      1  C   UNL     1       0.419  10.259  18.793  0.00  0.00    +0.000 A 
ATOM      2  N   UNL     1       0.744  11.492  19.304  0.00  0.00    +0.000 NA
ATOM      3  C   UNL     1      -0.391  12.146  19.322  0.00  0.00    +0.000 A 
ATOM      4  N   UNL     1      -1.403  11.310  18.858  0.00  0.00    +0.000 N 
ATOM      5  N   UNL     1      -0.902  10.061  18.671  0.00  0.00    +0.000 NA
ENDROOT
BRANCH   1   7
ATOM      6  O   UNL     1       2.182   9.678  17.328  0.00  0.00    +0.000 OA
ATOM      7  C   UNL     1       1.512   9.374  18.318  0.00  0.00    +0.000 C 
ATOM      8  N   UNL     1       1.762   8.187  18.992  0.00  0.00    +0.000 N 
ATOM      9  C   UNL     1       1.164   7.825  20.285  0.00  0.00    +0.000 C 
ATOM     10  C   UNL     1       2.017   6.797  21.040  0.00  0.00    +0.000 C 
ATOM     11  C   UNL     1       2.077   5.586  20.144  0.00  0.00    +0.000 A 
ATOM     12  C   UNL     1       1.692   4.322  20.580  0.00  0.00    +0.000 A 
ATOM     13  C   UNL     1       1.460   3.323  19.640  0.00  0.00    +0.000 A 
ATOM     14  C   UNL     1       1.637   3.578  18.276  0.00  0.00    +0.000 A 
ATOM     15  C   UNL     1       2.098   4.821  17.842  0.00  0.00    +0.000 A 
ATOM     16  C   UNL     1       2.325   5.829  18.777  0.00  0.00    +0.000 A 
ATOM     17  C   UNL     1       2.692   7.237  18.381  0.00  0.00    +0.000 C 
ENDBRANCH   1   7
BRANCH   3  18
ATOM     18  C   UNL     1      -0.481  13.583  19.607  0.00  0.00    +0.000 A 
ATOM     19  C   UNL     1      -0.048  14.441  18.592  0.00  0.00    +0.000 A 
ATOM     20  C   UNL     1      -0.309  15.808  18.669  0.00  0.00    +0.000 A 
ATOM     21  C   UNL     1      -0.985  16.312  19.773  0.00  0.00    +0.000 A 
ATOM     22  C   UNL     1      -1.342  15.472  20.828  0.00  0.00    +0.000 A 
ATOM     23  C   UNL     1      -1.061  14.107  20.763  0.00  0.00    +0.000 A 
ENDBRANCH   3  18
BRANCH   4  24
ATOM     24  C   UNL     1      -2.729  11.639  18.475  0.00  0.00    +0.000 A 
ATOM     25  C   UNL     1      -3.633  12.124  19.436  0.00  0.00    +0.000 A 
ATOM     26  C   UNL     1      -4.976  12.308  19.113  0.00  0.00    +0.000 A 
ATOM     27  C   UNL     1      -5.415  12.041  17.822  0.00  0.00    +0.000 A 
ATOM     28  C   UNL     1      -4.507  11.627  16.843  0.00  0.00    +0.000 A 
ATOM     29  C   UNL     1      -3.154  11.446  17.156  0.00  0.00    +0.000 A 
ENDBRANCH   4  24
TORSDOF 3
ENDMDL
MODEL 6
REMARK VINA RESULT:      -8.0      1.997      8.316
REMARK  Name = 
REMARK  3 active torsions:
REMARK  status: ('A' for Active; 'I' for Inactive)
REMARK    1  A    between atoms: C_2  and  C_3
REMARK    2  A    between atoms: C_5  and  C_6
REMARK    3  A    between atoms: N_12  and  C_13
REMARK                            x       y       z     vdW  Elec       q    Type
REMARK                         _______ _______ _______ _____ _____    ______ ____
ROOT
ATOM      1  C   UNL     1       2.521   8.052  18.561  0.00  0.00    +0.000 A 
ATOM      2  N   UNL     1       1.943   7.053  19.304  0.00  0.00    +0.000 NA
ATOM      3  C   UNL     1       2.772   6.044  19.194  0.00  0.00    +0.000 A 
ATOM      4  N   UNL     1       3.860   6.435  18.419  0.00  0.00    +0.000 N 
ATOM      5  N   UNL     1       3.765   7.764  18.150  0.00  0.00    +0.000 NA
ENDROOT
BRANCH   1   7
ATOM      6  O   UNL     1       1.752   9.697  17.045  0.00  0.00    +0.000 OA
ATOM      7  C   UNL     1       1.697   9.228  18.185  0.00  0.00    +0.000 C 
ATOM      8  N   UNL     1       0.872   9.809  19.139  0.00  0.00    +0.000 N 
ATOM      9  C   UNL     1       0.582   9.220  20.454  0.00  0.00    +0.000 C 
ATOM     10  C   UNL     1      -0.741   9.738  21.031  0.00  0.00    +0.000 C 
ATOM     11  C   UNL     1      -0.569  11.230  21.162  0.00  0.00    +0.000 A 
ATOM     12  C   UNL     1      -0.765  11.895  22.367  0.00  0.00    +0.000 A 
ATOM     13  C   UNL     1      -0.285  13.194  22.510  0.00  0.00    +0.000 A 
ATOM     14  C   UNL     1       0.362  13.832  21.447  0.00  0.00    +0.000 A 
ATOM     15  C   UNL     1       0.491  13.195  20.213  0.00  0.00    +0.000 A 
ATOM     16  C   UNL     1       0.019  11.892  20.064  0.00  0.00    +0.000 A 
ATOM     17  C   UNL     1       0.240  11.086  18.809  0.00  0.00    +0.000 C 
ENDBRANCH   1   7
BRANCH   3  18
ATOM     18  C   UNL     1       2.453   4.693  19.667  0.00  0.00    +0.000 A 
ATOM     19  C   UNL     1       2.584   4.473  21.042  0.00  0.00    +0.000 A 
ATOM     20  C   UNL     1       2.084   3.306  21.617  0.00  0.00    +0.000 A 
ATOM     21  C   UNL     1       1.472   2.355  20.810  0.00  0.00    +0.000 A 
ATOM     22  C   UNL     1       1.417   2.531  19.428  0.00  0.00    +0.000 A 
ATOM     23  C   UNL     1       1.938   3.688  18.847  0.00  0.00    +0.000 A 
ENDBRANCH   3  18
BRANCH   4  24
ATOM     24  C   UNL     1       4.874   5.634  17.834  0.00  0.00    +0.000 A 
ATOM     25  C   UNL     1       6.119   5.504  18.476  0.00  0.00    +0.000 A 
ATOM     26  C   UNL     1       7.174   4.849  17.846  0.00  0.00    +0.000 A 
ATOM     27  C   UNL     1       6.983   4.292  16.586  0.00  0.00    +0.000 A 
ATOM     28  C   UNL     1       5.729   4.356  15.974  0.00  0.00    +0.000 A 
ATOM     29  C   UNL     1       4.660   5.006  16.602  0.00  0.00    +0.000 A 
ENDBRANCH   4  24
TORSDOF 3
ENDMDL
MODEL 7
REMARK VINA RESULT:      -8.0      3.016      8.269
REMARK  Name = 
REMARK  3 active torsions:
REMARK  status: ('A' for Active; 'I' for Inactive)
REMARK    1  A    between atoms: C_2  and  C_3
REMARK    2  A    between atoms: C_5  and  C_6
REMARK    3  A    between atoms: N_12  and  C_13
REMARK                            x       y       z     vdW  Elec       q    Type
REMARK                         _______ _______ _______ _____ _____    ______ ____
ROOT
ATOM      1  C   UNL     1      -2.092  11.426  18.201  0.00  0.00    +0.000 A 
ATOM      2  N   UNL     1      -1.468  10.214  18.368  0.00  0.00    +0.000 NA
ATOM      3  C   UNL     1      -0.285  10.520  18.841  0.00  0.00    +0.000 A 
ATOM      4  N   UNL     1      -0.200  11.901  18.992  0.00  0.00    +0.000 N 
ATOM      5  N   UNL     1      -1.412  12.456  18.728  0.00  0.00    +0.000 NA
ENDROOT
BRANCH   1   7
ATOM      6  O   UNL     1      -3.297  11.138  16.186  0.00  0.00    +0.000 OA
ATOM      7  C   UNL     1      -3.320  11.487  17.369  0.00  0.00    +0.000 C 
ATOM      8  N   UNL     1      -4.496  11.958  17.936  0.00  0.00    +0.000 N 
ATOM      9  C   UNL     1      -4.684  12.210  19.371  0.00  0.00    +0.000 C 
ATOM     10  C   UNL     1      -6.164  12.157  19.771  0.00  0.00    +0.000 C 
ATOM     11  C   UNL     1      -6.839  13.238  18.966  0.00  0.00    +0.000 A 
ATOM     12  C   UNL     1      -7.593  14.244  19.562  0.00  0.00    +0.000 A 
ATOM     13  C   UNL     1      -7.914  15.379  18.823  0.00  0.00    +0.000 A 
ATOM     14  C   UNL     1      -7.507  15.495  17.490  0.00  0.00    +0.000 A 
ATOM     15  C   UNL     1      -6.820  14.454  16.867  0.00  0.00    +0.000 A 
ATOM     16  C   UNL     1      -6.488  13.318  17.602  0.00  0.00    +0.000 A 
ATOM     17  C   UNL     1      -5.630  12.210  17.045  0.00  0.00    +0.000 C 
ENDBRANCH   1   7
BRANCH   3  18
ATOM     18  C   UNL     1       0.797   9.539  18.981  0.00  0.00    +0.000 A 
ATOM     19  C   UNL     1       0.953   8.969  20.248  0.00  0.00    +0.000 A 
ATOM     20  C   UNL     1       1.788   7.866  20.423  0.00  0.00    +0.000 A 
ATOM     21  C   UNL     1       2.478   7.352  19.333  0.00  0.00    +0.000 A 
ATOM     22  C   UNL     1       2.393   7.971  18.086  0.00  0.00    +0.000 A 
ATOM     23  C   UNL     1       1.575   9.089  17.913  0.00  0.00    +0.000 A 
ENDBRANCH   3  18
BRANCH   4  24
ATOM     24  C   UNL     1       0.943  12.705  19.236  0.00  0.00    +0.000 A 
ATOM     25  C   UNL     1       1.784  13.064  18.168  0.00  0.00    +0.000 A 
ATOM     26  C   UNL     1       2.987  13.723  18.407  0.00  0.00    +0.000 A 
ATOM     27  C   UNL     1       3.342  14.057  19.709  0.00  0.00    +0.000 A 
ATOM     28  C   UNL     1       2.476  13.766  20.768  0.00  0.00    +0.000 A 
ATOM     29  C   UNL     1       1.261  13.111  20.537  0.00  0.00    +0.000 A 
ENDBRANCH   4  24
TORSDOF 3
ENDMDL
MODEL 8
REMARK VINA RESULT:      -8.0      1.387      3.566
REMARK  Name = 
REMARK  3 active torsions:
REMARK  status: ('A' for Active; 'I' for Inactive)
REMARK    1  A    between atoms: C_2  and  C_3
REMARK    2  A    between atoms: C_5  and  C_6
REMARK    3  A    between atoms: N_12  and  C_13
REMARK                            x       y       z     vdW  Elec       q    Type
REMARK                         _______ _______ _______ _____ _____    ______ ____
ROOT
ATOM      1  C   UNL     1       0.964   9.887  19.022  0.00  0.00    +0.000 A 
ATOM      2  N   UNL     1       1.552  11.077  19.370  0.00  0.00    +0.000 NA
ATOM      3  C   UNL     1       0.544  11.877  19.618  0.00  0.00    +0.000 A 
ATOM      4  N   UNL     1      -0.645  11.173  19.454  0.00  0.00    +0.000 N 
ATOM      5  N   UNL     1      -0.362   9.863  19.226  0.00  0.00    +0.000 NA
ENDROOT
BRANCH   1   7
ATOM      6  O   UNL     1       2.293   9.064  17.246  0.00  0.00    +0.000 OA
ATOM      7  C   UNL     1       1.792   8.851  18.353  0.00  0.00    +0.000 C 
ATOM      8  N   UNL     1       1.983   7.629  18.982  0.00  0.00    +0.000 N 
ATOM      9  C   UNL     1       1.602   7.342  20.373  0.00  0.00    +0.000 C 
ATOM     10  C   UNL     1       2.418   6.183  20.959  0.00  0.00    +0.000 C 
ATOM     11  C   UNL     1       2.113   4.992  20.087  0.00  0.00    +0.000 A 
ATOM     12  C   UNL     1       1.631   3.796  20.608  0.00  0.00    +0.000 A 
ATOM     13  C   UNL     1       1.067   2.860  19.746  0.00  0.00    +0.000 A 
ATOM     14  C   UNL     1       1.009   3.107  18.370  0.00  0.00    +0.000 A 
ATOM     15  C   UNL     1       1.562   4.270  17.837  0.00  0.00    +0.000 A 
ATOM     16  C   UNL     1       2.122   5.216  18.694  0.00  0.00    +0.000 A 
ATOM     17  C   UNL     1       2.617   6.557  18.214  0.00  0.00    +0.000 C 
ENDBRANCH   1   7
BRANCH   3  18
ATOM     18  C   UNL     1       0.705  13.320  19.833  0.00  0.00    +0.000 A 
ATOM     19  C   UNL     1       0.887  13.729  21.157  0.00  0.00    +0.000 A 
ATOM     20  C   UNL     1       1.281  15.036  21.440  0.00  0.00    +0.000 A 
ATOM     21  C   UNL     1       1.470  15.933  20.397  0.00  0.00    +0.000 A 
ATOM     22  C   UNL     1       1.205  15.553  19.081  0.00  0.00    +0.000 A 
ATOM     23  C   UNL     1       0.789  14.252  18.797  0.00  0.00    +0.000 A 
ENDBRANCH   3  18
BRANCH   4  24
ATOM     24  C   UNL     1      -1.972  11.666  19.376  0.00  0.00    +0.000 A 
ATOM     25  C   UNL     1      -2.511  12.395  20.451  0.00  0.00    +0.000 A 
ATOM     26  C   UNL     1      -3.856  12.756  20.457  0.00  0.00    +0.000 A 
ATOM     27  C   UNL     1      -4.663  12.420  19.376  0.00  0.00    +0.000 A 
ATOM     28  C   UNL     1      -4.117  11.757  18.273  0.00  0.00    +0.000 A 
ATOM     29  C   UNL     1      -2.764  11.397  18.254  0.00  0.00    +0.000 A 
ENDBRANCH   4  24
TORSDOF 3
ENDMDL
MODEL 9
REMARK VINA RESULT:      -8.0      1.635      3.726
REMARK  Name = 
REMARK  3 active torsions:
REMARK  status: ('A' for Active; 'I' for Inactive)
REMARK    1  A    between atoms: C_2  and  C_3
REMARK    2  A    between atoms: C_5  and  C_6
REMARK    3  A    between atoms: N_12  and  C_13
REMARK                            x       y       z     vdW  Elec       q    Type
REMARK                         _______ _______ _______ _____ _____    ______ ____
ROOT
ATOM      1  C   UNL     1       0.378  10.312  18.772  0.00  0.00    +0.000 A 
ATOM      2  N   UNL     1       0.668  11.598  19.155  0.00  0.00    +0.000 NA
ATOM      3  C   UNL     1      -0.494  12.205  19.164  0.00  0.00    +0.000 A 
ATOM      4  N   UNL     1      -1.485  11.290  18.822  0.00  0.00    +0.000 N 
ATOM      5  N   UNL     1      -0.937  10.049  18.726  0.00  0.00    +0.000 NA
ENDROOT
BRANCH   1   7
ATOM      6  O   UNL     1       2.176   9.730  17.351  0.00  0.00    +0.000 OA
ATOM      7  C   UNL     1       1.490   9.432  18.331  0.00  0.00    +0.000 C 
ATOM      8  N   UNL     1       1.737   8.257  19.026  0.00  0.00    +0.000 N 
ATOM      9  C   UNL     1       1.117   7.906  20.311  0.00  0.00    +0.000 C 
ATOM     10  C   UNL     1       1.965   6.897  21.097  0.00  0.00    +0.000 C 
ATOM     11  C   UNL     1       2.056   5.675  20.219  0.00  0.00    +0.000 A 
ATOM     12  C   UNL     1       1.675   4.413  20.663  0.00  0.00    +0.000 A 
ATOM     13  C   UNL     1       1.472   3.399  19.732  0.00  0.00    +0.000 A 
ATOM     14  C   UNL     1       1.675   3.638  18.369  0.00  0.00    +0.000 A 
ATOM     15  C   UNL     1       2.131   4.879  17.928  0.00  0.00    +0.000 A 
ATOM     16  C   UNL     1       2.329   5.902  18.854  0.00  0.00    +0.000 A 
ATOM     17  C   UNL     1       2.690   7.309  18.447  0.00  0.00    +0.000 C 
ENDBRANCH   1   7
BRANCH   3  18
ATOM     18  C   UNL     1      -0.636  13.657  19.322  0.00  0.00    +0.000 A 
ATOM     19  C   UNL     1      -1.154  14.096  20.543  0.00  0.00    +0.000 A 
ATOM     20  C   UNL     1      -1.108  15.448  20.880  0.00  0.00    +0.000 A 
ATOM     21  C   UNL     1      -0.560  16.356  19.983  0.00  0.00    +0.000 A 
ATOM     22  C   UNL     1      -0.122  15.934  18.728  0.00  0.00    +0.000 A 
ATOM     23  C   UNL     1      -0.188  14.584  18.380  0.00  0.00    +0.000 A 
ENDBRANCH   3  18
BRANCH   4  24
ATOM     24  C   UNL     1      -2.838  11.527  18.469  0.00  0.00    +0.000 A 
ATOM     25  C   UNL     1      -3.268  11.292  17.151  0.00  0.00    +0.000 A 
ATOM     26  C   UNL     1      -4.549  11.661  16.749  0.00  0.00    +0.000 A 
ATOM     27  C   UNL     1      -5.419  12.236  17.668  0.00  0.00    +0.000 A 
ATOM     28  C   UNL     1      -5.023  12.407  18.997  0.00  0.00    +0.000 A 
ATOM     29  C   UNL     1      -3.740  12.033  19.413  0.00  0.00    +0.000 A 
ENDBRANCH   4  24
TORSDOF 3
ENDMDL
