MODEL 1
REMARK VINA RESULT:      -9.5      0.000      0.000
REMARK  Name = 
REMARK  7 active torsions:
REMARK  status: ('A' for Active; 'I' for Inactive)
REMARK    1  A    between atoms: C_1  and  C_2
REMARK    2  A    between atoms: C_6  and  N_7
REMARK    3  A    between atoms: C_8  and  C_10
REMARK    4  A    between atoms: C_10  and  N_11
REMARK    5  A    between atoms: C_12  and  C_13
REMARK    6  A    between atoms: C_13  and  N_14
REMARK    7  A    between atoms: C_15  and  C_17
REMARK                            x       y       z     vdW  Elec       q    Type
REMARK                         _______ _______ _______ _____ _____    ______ ____
ROOT
ATOM      1  N   UNL     1       3.639   5.516  18.041  0.00  0.00    +0.000 N 
ATOM      2  C   UNL     1       2.560   6.283  18.450  0.00  0.00    +0.000 A 
ATOM      3  N   UNL     1       1.586   5.512  18.901  0.00  0.00    +0.000 NA
ATOM      4  C   UNL     1       2.034   4.225  18.792  0.00  0.00    +0.000 A 
ATOM      5  C   UNL     1       1.395   3.031  19.158  0.00  0.00    +0.000 A 
ATOM      6  C   UNL     1       2.061   1.818  18.957  0.00  0.00    +0.000 A 
ATOM      7  C   UNL     1       3.338   1.795  18.398  0.00  0.00    +0.000 A 
ATOM      8  C   UNL     1       3.991   2.978  18.027  0.00  0.00    +0.000 A 
ATOM      9  C   UNL     1       3.308   4.186  18.238  0.00  0.00    +0.000 A 
ENDROOT
BRANCH   1  10
ATOM     10  C   UNL     1       4.969   5.979  17.675  0.00  0.00    +0.000 C 
BRANCH  10  12
ATOM     11  N   UNL     1       6.051   4.832  15.785  0.00  0.00    +0.000 N 
ATOM     12  C   UNL     1       5.319   5.932  16.205  0.00  0.00    +0.000 C 
ATOM     13  O   UNL     1       5.015   6.883  15.490  0.00  0.00    +0.000 OA
ATOM     14  H   UNL     1       6.224   4.087  16.449  0.00  0.00    +0.000 HD
BRANCH  11  20
ATOM     15  C   UNL     1       5.430   2.410  11.518  0.00  0.00    +0.000 C 
ATOM     16  C   UNL     1       6.176   3.418  12.342  0.00  0.00    +0.000 A 
ATOM     17  C   UNL     1       7.200   4.174  11.761  0.00  0.00    +0.000 A 
ATOM     18  C   UNL     1       7.884   5.114  12.520  0.00  0.00    +0.000 A 
ATOM     19  C   UNL     1       7.535   5.322  13.854  0.00  0.00    +0.000 A 
ATOM     20  C   UNL     1       6.494   4.606  14.453  0.00  0.00    +0.000 A 
ATOM     21  C   UNL     1       5.835   3.631  13.691  0.00  0.00    +0.000 A 
ENDBRANCH  11  20
ENDBRANCH  10  12
ENDBRANCH   1  10
BRANCH   2  22
ATOM     22  C   UNL     1       2.475   7.773  18.394  0.00  0.00    +0.000 C 
BRANCH  22  23
ATOM     23  N   UNL     1       1.894   8.275  19.622  0.00  0.00    +0.000 N 
ATOM     24  C   UNL     1       1.085   9.387  19.612  0.00  0.00    +0.000 C 
ATOM     25  O   UNL     1       0.901  10.047  18.597  0.00  0.00    +0.000 OA
ATOM     26  H   UNL     1       2.179   7.829  20.481  0.00  0.00    +0.000 HD
BRANCH  24  27
ATOM     27  C   UNL     1       0.416   9.813  20.871  0.00  0.00    +0.000 A 
ATOM     28  C   UNL     1       0.431   9.059  22.049  0.00  0.00    +0.000 A 
ATOM     29  C   UNL     1      -0.277   9.508  23.169  0.00  0.00    +0.000 A 
ATOM     30  C   UNL     1      -1.001  10.700  23.118  0.00  0.00    +0.000 A 
ATOM     31  C   UNL     1      -1.024  11.455  21.949  0.00  0.00    +0.000 A 
ATOM     32  C   UNL     1      -0.320  11.009  20.832  0.00  0.00    +0.000 A 
ENDBRANCH  24  27
ENDBRANCH  22  23
ENDBRANCH   2  22
TORSDOF 6
ENDMDL
MODEL 2
REMARK VINA RESULT:      -9.2      1.633      8.474
REMARK  Name = 
REMARK  7 active torsions:
REMARK  status: ('A' for Active; 'I' for Inactive)
REMARK    1  A    between atoms: C_1  and  C_2
REMARK    2  A    between atoms: C_6  and  N_7
REMARK    3  A    between atoms: C_8  and  C_10
REMARK    4  A    between atoms: C_10  and  N_11
REMARK    5  A    between atoms: C_12  and  C_13
REMARK    6  A    between atoms: C_13  and  N_14
REMARK    7  A    between atoms: C_15  and  C_17
REMARK                            x       y       z     vdW  Elec       q    Type
REMARK                         _______ _______ _______ _____ _____    ______ ____
ROOT
ATOM      1  N   UNL     1       3.844   4.687  18.644  0.00  0.00    +0.000 N 
ATOM      2  C   UNL     1       5.084   4.127  18.897  0.00  0.00    +0.000 A 
ATOM      3  N   UNL     1       4.995   3.209  19.844  0.00  0.00    +0.000 NA
ATOM      4  C   UNL     1       3.679   3.164  20.211  0.00  0.00    +0.000 A 
ATOM      5  C   UNL     1       3.052   2.339  21.156  0.00  0.00    +0.000 A 
ATOM      6  C   UNL     1       1.674   2.468  21.358  0.00  0.00    +0.000 A 
ATOM      7  C   UNL     1       0.936   3.404  20.634  0.00  0.00    +0.000 A 
ATOM      8  C   UNL     1       1.547   4.235  19.685  0.00  0.00    +0.000 A 
ATOM      9  C   UNL     1       2.930   4.090  19.495  0.00  0.00    +0.000 A 
ENDROOT
BRANCH   1  10
ATOM     10  C   UNL     1       3.479   5.576  17.551  0.00  0.00    +0.000 C 
BRANCH  10  12
ATOM     11  N   UNL     1       2.082   7.440  18.349  0.00  0.00    +0.000 N 
ATOM     12  C   UNL     1       3.329   7.041  17.895  0.00  0.00    +0.000 C 
ATOM     13  O   UNL     1       4.271   7.801  17.683  0.00  0.00    +0.000 OA
ATOM     14  H   UNL     1       1.381   6.728  18.518  0.00  0.00    +0.000 HD
BRANCH  11  20
ATOM     15  C   UNL     1       0.199  10.502  21.745  0.00  0.00    +0.000 C 
ATOM     16  C   UNL     1       0.812  10.282  20.393  0.00  0.00    +0.000 A 
ATOM     17  C   UNL     1       1.116  11.377  19.578  0.00  0.00    +0.000 A 
ATOM     18  C   UNL     1       1.692  11.174  18.331  0.00  0.00    +0.000 A 
ATOM     19  C   UNL     1       1.991   9.881  17.902  0.00  0.00    +0.000 A 
ATOM     20  C   UNL     1       1.730   8.769  18.709  0.00  0.00    +0.000 A 
ATOM     21  C   UNL     1       1.111   8.980  19.949  0.00  0.00    +0.000 A 
ENDBRANCH  11  20
ENDBRANCH  10  12
ENDBRANCH   1  10
BRANCH   2  22
ATOM     22  C   UNL     1       6.365   4.492  18.219  0.00  0.00    +0.000 C 
BRANCH  22  23
ATOM     23  N   UNL     1       6.262   4.216  16.802  0.00  0.00    +0.000 N 
ATOM     24  C   UNL     1       6.818   5.070  15.878  0.00  0.00    +0.000 C 
ATOM     25  O   UNL     1       7.334   6.132  16.204  0.00  0.00    +0.000 OA
ATOM     26  H   UNL     1       5.694   3.428  16.526  0.00  0.00    +0.000 HD
BRANCH  24  27
ATOM     27  C   UNL     1       6.790   4.703  14.436  0.00  0.00    +0.000 A 
ATOM     28  C   UNL     1       5.952   3.718  13.905  0.00  0.00    +0.000 A 
ATOM     29  C   UNL     1       6.035   3.395  12.546  0.00  0.00    +0.000 A 
ATOM     30  C   UNL     1       6.951   4.047  11.719  0.00  0.00    +0.000 A 
ATOM     31  C   UNL     1       7.792   5.027  12.240  0.00  0.00    +0.000 A 
ATOM     32  C   UNL     1       7.711   5.348  13.594  0.00  0.00    +0.000 A 
ENDBRANCH  24  27
ENDBRANCH  22  23
ENDBRANCH   2  22
TORSDOF 6
ENDMDL
MODEL 3
REMARK VINA RESULT:      -9.1      2.164      8.672
REMARK  Name = 
REMARK  7 active torsions:
REMARK  status: ('A' for Active; 'I' for Inactive)
REMARK    1  A    between atoms: C_1  and  C_2
REMARK    2  A    between atoms: C_6  and  N_7
REMARK    3  A    between atoms: C_8  and  C_10
REMARK    4  A    between atoms: C_10  and  N_11
REMARK    5  A    between atoms: C_12  and  C_13
REMARK    6  A    between atoms: C_13  and  N_14
REMARK    7  A    between atoms: C_15  and  C_17
REMARK                            x       y       z     vdW  Elec       q    Type
REMARK                         _______ _______ _______ _____ _____    ______ ____
ROOT
ATOM      1  N   UNL     1       3.447   5.517  18.657  0.00  0.00    +0.000 N 
ATOM      2  C   UNL     1       4.775   5.133  18.747  0.00  0.00    +0.000 A 
ATOM      3  N   UNL     1       4.893   4.028  19.462  0.00  0.00    +0.000 NA
ATOM      4  C   UNL     1       3.626   3.681  19.841  0.00  0.00    +0.000 A 
ATOM      5  C   UNL     1       3.198   2.574  20.589  0.00  0.00    +0.000 A 
ATOM      6  C   UNL     1       1.832   2.420  20.848  0.00  0.00    +0.000 A 
ATOM      7  C   UNL     1       0.911   3.353  20.374  0.00  0.00    +0.000 A 
ATOM      8  C   UNL     1       1.321   4.463  19.624  0.00  0.00    +0.000 A 
ATOM      9  C   UNL     1       2.695   4.601  19.372  0.00  0.00    +0.000 A 
ENDROOT
BRANCH   1  10
ATOM     10  C   UNL     1       2.878   6.549  17.804  0.00  0.00    +0.000 C 
BRANCH  10  12
ATOM     11  N   UNL     1       1.776   8.748  17.687  0.00  0.00    +0.000 N 
ATOM     12  C   UNL     1       2.284   7.751  18.505  0.00  0.00    +0.000 C 
ATOM     13  O   UNL     1       2.352   7.819  19.730  0.00  0.00    +0.000 OA
ATOM     14  H   UNL     1       1.740   8.579  16.688  0.00  0.00    +0.000 HD
BRANCH  11  20
ATOM     15  C   UNL     1       2.383  13.523  18.820  0.00  0.00    +0.000 C 
ATOM     16  C   UNL     1       1.492  12.323  18.690  0.00  0.00    +0.000 A 
ATOM     17  C   UNL     1       0.117  12.447  18.913  0.00  0.00    +0.000 A 
ATOM     18  C   UNL     1      -0.710  11.339  18.783  0.00  0.00    +0.000 A 
ATOM     19  C   UNL     1      -0.174  10.108  18.407  0.00  0.00    +0.000 A 
ATOM     20  C   UNL     1       1.192   9.961  18.144  0.00  0.00    +0.000 A 
ATOM     21  C   UNL     1       2.025  11.075  18.317  0.00  0.00    +0.000 A 
ENDBRANCH  11  20
ENDBRANCH  10  12
ENDBRANCH   1  10
BRANCH   2  22
ATOM     22  C   UNL     1       5.936   5.851  18.139  0.00  0.00    +0.000 C 
BRANCH  22  23
ATOM     23  N   UNL     1       5.933   5.656  16.704  0.00  0.00    +0.000 N 
ATOM     24  C   UNL     1       6.902   4.892  16.097  0.00  0.00    +0.000 C 
ATOM     25  O   UNL     1       7.849   4.430  16.721  0.00  0.00    +0.000 OA
ATOM     26  H   UNL     1       5.249   6.173  16.171  0.00  0.00    +0.000 HD
BRANCH  24  27
ATOM     27  C   UNL     1       6.809   4.623  14.637  0.00  0.00    +0.000 A 
ATOM     28  C   UNL     1       5.949   3.671  14.078  0.00  0.00    +0.000 A 
ATOM     29  C   UNL     1       5.972   3.440  12.699  0.00  0.00    +0.000 A 
ATOM     30  C   UNL     1       6.849   4.150  11.877  0.00  0.00    +0.000 A 
ATOM     31  C   UNL     1       7.711   5.096  12.424  0.00  0.00    +0.000 A 
ATOM     32  C   UNL     1       7.690   5.327  13.799  0.00  0.00    +0.000 A 
ENDBRANCH  24  27
ENDBRANCH  22  23
ENDBRANCH   2  22
TORSDOF 6
ENDMDL
MODEL 4
REMARK VINA RESULT:      -9.1      2.180      8.536
REMARK  Name = 
REMARK  7 active torsions:
REMARK  status: ('A' for Active; 'I' for Inactive)
REMARK    1  A    between atoms: C_1  and  C_2
REMARK    2  A    between atoms: C_6  and  N_7
REMARK    3  A    between atoms: C_8  and  C_10
REMARK    4  A    between atoms: C_10  and  N_11
REMARK    5  A    between atoms: C_12  and  C_13
REMARK    6  A    between atoms: C_13  and  N_14
REMARK    7  A    between atoms: C_15  and  C_17
REMARK                            x       y       z     vdW  Elec       q    Type
REMARK                         _______ _______ _______ _____ _____    ______ ____
ROOT
ATOM      1  N   UNL     1       3.531   5.158  18.776  0.00  0.00    +0.000 N 
ATOM      2  C   UNL     1       4.824   4.665  18.833  0.00  0.00    +0.000 A 
ATOM      3  N   UNL     1       4.890   3.629  19.651  0.00  0.00    +0.000 NA
ATOM      4  C   UNL     1       3.625   3.439  20.133  0.00  0.00    +0.000 A 
ATOM      5  C   UNL     1       3.151   2.456  21.014  0.00  0.00    +0.000 A 
ATOM      6  C   UNL     1       1.796   2.455  21.361  0.00  0.00    +0.000 A 
ATOM      7  C   UNL     1       0.931   3.418  20.842  0.00  0.00    +0.000 A 
ATOM      8  C   UNL     1       1.388   4.407  19.960  0.00  0.00    +0.000 A 
ATOM      9  C   UNL     1       2.749   4.391  19.622  0.00  0.00    +0.000 A 
ENDROOT
BRANCH   1  10
ATOM     10  C   UNL     1       3.001   6.150  17.852  0.00  0.00    +0.000 C 
BRANCH  10  12
ATOM     11  N   UNL     1       2.044   8.402  17.579  0.00  0.00    +0.000 N 
ATOM     12  C   UNL     1       2.456   7.420  18.466  0.00  0.00    +0.000 C 
ATOM     13  O   UNL     1       2.480   7.548  19.688  0.00  0.00    +0.000 OA
ATOM     14  H   UNL     1       2.036   8.183  16.589  0.00  0.00    +0.000 HD
BRANCH  11  20
ATOM     15  C   UNL     1      -1.914  11.103  18.802  0.00  0.00    +0.000 C 
ATOM     16  C   UNL     1      -0.436  10.999  18.567  0.00  0.00    +0.000 A 
ATOM     17  C   UNL     1       0.390  12.100  18.816  0.00  0.00    +0.000 A 
ATOM     18  C   UNL     1       1.759  12.002  18.608  0.00  0.00    +0.000 A 
ATOM     19  C   UNL     1       2.315  10.798  18.174  0.00  0.00    +0.000 A 
ATOM     20  C   UNL     1       1.519   9.670  17.950  0.00  0.00    +0.000 A 
ATOM     21  C   UNL     1       0.133   9.790  18.123  0.00  0.00    +0.000 A 
ENDBRANCH  11  20
ENDBRANCH  10  12
ENDBRANCH   1  10
BRANCH   2  22
ATOM     22  C   UNL     1       6.002   5.208  18.092  0.00  0.00    +0.000 C 
BRANCH  22  23
ATOM     23  N   UNL     1       5.930   4.809  16.702  0.00  0.00    +0.000 N 
ATOM     24  C   UNL     1       6.779   5.358  15.769  0.00  0.00    +0.000 C 
ATOM     25  O   UNL     1       7.555   6.262  16.051  0.00  0.00    +0.000 OA
ATOM     26  H   UNL     1       5.180   4.186  16.440  0.00  0.00    +0.000 HD
BRANCH  24  27
ATOM     27  C   UNL     1       6.753   4.848  14.371  0.00  0.00    +0.000 A 
ATOM     28  C   UNL     1       5.904   3.826  13.936  0.00  0.00    +0.000 A 
ATOM     29  C   UNL     1       5.991   3.367  12.617  0.00  0.00    +0.000 A 
ATOM     30  C   UNL     1       6.920   3.920  11.735  0.00  0.00    +0.000 A 
ATOM     31  C   UNL     1       7.772   4.936  12.161  0.00  0.00    +0.000 A 
ATOM     32  C   UNL     1       7.687   5.393  13.475  0.00  0.00    +0.000 A 
ENDBRANCH  24  27
ENDBRANCH  22  23
ENDBRANCH   2  22
TORSDOF 6
ENDMDL
MODEL 5
REMARK VINA RESULT:      -9.0      1.227      1.650
REMARK  Name = 
REMARK  7 active torsions:
REMARK  status: ('A' for Active; 'I' for Inactive)
REMARK    1  A    between atoms: C_1  and  C_2
REMARK    2  A    between atoms: C_6  and  N_7
REMARK    3  A    between atoms: C_8  and  C_10
REMARK    4  A    between atoms: C_10  and  N_11
REMARK    5  A    between atoms: C_12  and  C_13
REMARK    6  A    between atoms: C_13  and  N_14
REMARK    7  A    between atoms: C_15  and  C_17
REMARK                            x       y       z     vdW  Elec       q    Type
REMARK                         _______ _______ _______ _____ _____    ______ ____
ROOT
ATOM      1  N   UNL     1       4.130   5.099  18.152  0.00  0.00    +0.000 N 
ATOM      2  C   UNL     1       3.112   6.039  18.160  0.00  0.00    +0.000 A 
ATOM      3  N   UNL     1       1.941   5.454  18.339  0.00  0.00    +0.000 NA
ATOM      4  C   UNL     1       2.194   4.115  18.454  0.00  0.00    +0.000 A 
ATOM      5  C   UNL     1       1.298   3.061  18.683  0.00  0.00    +0.000 A 
ATOM      6  C   UNL     1       1.796   1.757  18.774  0.00  0.00    +0.000 A 
ATOM      7  C   UNL     1       3.161   1.510  18.636  0.00  0.00    +0.000 A 
ATOM      8  C   UNL     1       4.071   2.551  18.409  0.00  0.00    +0.000 A 
ATOM      9  C   UNL     1       3.553   3.853  18.323  0.00  0.00    +0.000 A 
ENDROOT
BRANCH   1  10
ATOM     10  C   UNL     1       5.564   5.345  18.183  0.00  0.00    +0.000 C 
BRANCH  10  12
ATOM     11  N   UNL     1       5.723   5.107  15.737  0.00  0.00    +0.000 N 
ATOM     12  C   UNL     1       6.347   4.920  16.961  0.00  0.00    +0.000 C 
ATOM     13  O   UNL     1       7.436   4.372  17.113  0.00  0.00    +0.000 OA
ATOM     14  H   UNL     1       4.836   5.597  15.719  0.00  0.00    +0.000 HD
BRANCH  11  20
ATOM     15  C   UNL     1       5.377   2.414  11.604  0.00  0.00    +0.000 C 
ATOM     16  C   UNL     1       6.098   3.439  12.429  0.00  0.00    +0.000 A 
ATOM     17  C   UNL     1       7.216   4.096  11.905  0.00  0.00    +0.000 A 
ATOM     18  C   UNL     1       7.878   5.052  12.664  0.00  0.00    +0.000 A 
ATOM     19  C   UNL     1       7.414   5.375  13.938  0.00  0.00    +0.000 A 
ATOM     20  C   UNL     1       6.278   4.761  14.476  0.00  0.00    +0.000 A 
ATOM     21  C   UNL     1       5.641   3.768  13.719  0.00  0.00    +0.000 A 
ENDBRANCH  11  20
ENDBRANCH  10  12
ENDBRANCH   1  10
BRANCH   2  22
ATOM     22  C   UNL     1       3.281   7.513  17.985  0.00  0.00    +0.000 C 
BRANCH  22  23
ATOM     23  N   UNL     1       2.248   8.213  18.721  0.00  0.00    +0.000 N 
ATOM     24  C   UNL     1       1.729   9.395  18.249  0.00  0.00    +0.000 C 
ATOM     25  O   UNL     1       2.176   9.948  17.251  0.00  0.00    +0.000 OA
ATOM     26  H   UNL     1       1.997   7.843  19.626  0.00  0.00    +0.000 HD
BRANCH  24  27
ATOM     27  C   UNL     1       0.595  10.033  18.971  0.00  0.00    +0.000 A 
ATOM     28  C   UNL     1      -0.560  10.503  18.337  0.00  0.00    +0.000 A 
ATOM     29  C   UNL     1      -1.551  11.145  19.087  0.00  0.00    +0.000 A 
ATOM     30  C   UNL     1      -1.393  11.323  20.463  0.00  0.00    +0.000 A 
ATOM     31  C   UNL     1      -0.245  10.862  21.101  0.00  0.00    +0.000 A 
ATOM     32  C   UNL     1       0.743  10.223  20.355  0.00  0.00    +0.000 A 
ENDBRANCH  24  27
ENDBRANCH  22  23
ENDBRANCH   2  22
TORSDOF 6
ENDMDL
MODEL 6
REMARK VINA RESULT:      -9.0      0.765      1.167
REMARK  Name = 
REMARK  7 active torsions:
REMARK  status: ('A' for Active; 'I' for Inactive)
REMARK    1  A    between atoms: C_1  and  C_2
REMARK    2  A    between atoms: C_6  and  N_7
REMARK    3  A    between atoms: C_8  and  C_10
REMARK    4  A    between atoms: C_10  and  N_11
REMARK    5  A    between atoms: C_12  and  C_13
REMARK    6  A    between atoms: C_13  and  N_14
REMARK    7  A    between atoms: C_15  and  C_17
REMARK                            x       y       z     vdW  Elec       q    Type
REMARK                         _______ _______ _______ _____ _____    ______ ____
ROOT
ATOM      1  N   UNL     1       3.773   5.393  18.088  0.00  0.00    +0.000 N 
ATOM      2  C   UNL     1       2.669   6.212  18.265  0.00  0.00    +0.000 A 
ATOM      3  N   UNL     1       1.583   5.489  18.474  0.00  0.00    +0.000 NA
ATOM      4  C   UNL     1       1.980   4.181  18.437  0.00  0.00    +0.000 A 
ATOM      5  C   UNL     1       1.219   3.018  18.628  0.00  0.00    +0.000 A 
ATOM      6  C   UNL     1       1.853   1.774  18.551  0.00  0.00    +0.000 A 
ATOM      7  C   UNL     1       3.219   1.691  18.287  0.00  0.00    +0.000 A 
ATOM      8  C   UNL     1       3.995   2.841  18.096  0.00  0.00    +0.000 A 
ATOM      9  C   UNL     1       3.342   4.081  18.178  0.00  0.00    +0.000 A 
ENDROOT
BRANCH   1  10
ATOM     10  C   UNL     1       5.172   5.790  18.034  0.00  0.00    +0.000 C 
BRANCH  10  12
ATOM     11  N   UNL     1       5.520   5.424  15.624  0.00  0.00    +0.000 N 
ATOM     12  C   UNL     1       5.996   5.207  16.909  0.00  0.00    +0.000 C 
ATOM     13  O   UNL     1       6.976   4.519  17.184  0.00  0.00    +0.000 OA
ATOM     14  H   UNL     1       4.719   6.032  15.505  0.00  0.00    +0.000 HD
BRANCH  11  20
ATOM     15  C   UNL     1       5.271   2.448  11.682  0.00  0.00    +0.000 C 
ATOM     16  C   UNL     1       6.003   3.486  12.481  0.00  0.00    +0.000 A 
ATOM     17  C   UNL     1       7.196   4.029  11.993  0.00  0.00    +0.000 A 
ATOM     18  C   UNL     1       7.869   4.997  12.727  0.00  0.00    +0.000 A 
ATOM     19  C   UNL     1       7.343   5.446  13.938  0.00  0.00    +0.000 A 
ATOM     20  C   UNL     1       6.135   4.948  14.435  0.00  0.00    +0.000 A 
ATOM     21  C   UNL     1       5.483   3.942  13.708  0.00  0.00    +0.000 A 
ENDBRANCH  11  20
ENDBRANCH  10  12
ENDBRANCH   1  10
BRANCH   2  22
ATOM     22  C   UNL     1       2.672   7.705  18.226  0.00  0.00    +0.000 C 
BRANCH  22  23
ATOM     23  N   UNL     1       1.991   8.226  19.393  0.00  0.00    +0.000 N 
ATOM     24  C   UNL     1       1.223   9.363  19.308  0.00  0.00    +0.000 C 
ATOM     25  O   UNL     1       1.159  10.028  18.282  0.00  0.00    +0.000 OA
ATOM     26  H   UNL     1       2.178   7.771  20.275  0.00  0.00    +0.000 HD
BRANCH  24  27
ATOM     27  C   UNL     1       0.450   9.810  20.498  0.00  0.00    +0.000 A 
ATOM     28  C   UNL     1      -0.280  11.003  20.544  0.00  0.00    +0.000 A 
ATOM     29  C   UNL     1      -0.927  11.375  21.727  0.00  0.00    +0.000 A 
ATOM     30  C   UNL     1      -0.847  10.567  22.862  0.00  0.00    +0.000 A 
ATOM     31  C   UNL     1      -0.120   9.380  22.827  0.00  0.00    +0.000 A 
ATOM     32  C   UNL     1       0.527   9.009  21.650  0.00  0.00    +0.000 A 
ENDBRANCH  24  27
ENDBRANCH  22  23
ENDBRANCH   2  22
TORSDOF 6
ENDMDL
MODEL 7
REMARK VINA RESULT:      -9.0      1.550      1.880
REMARK  Name = 
REMARK  7 active torsions:
REMARK  status: ('A' for Active; 'I' for Inactive)
REMARK    1  A    between atoms: C_1  and  C_2
REMARK    2  A    between atoms: C_6  and  N_7
REMARK    3  A    between atoms: C_8  and  C_10
REMARK    4  A    between atoms: C_10  and  N_11
REMARK    5  A    between atoms: C_12  and  C_13
REMARK    6  A    between atoms: C_13  and  N_14
REMARK    7  A    between atoms: C_15  and  C_17
REMARK                            x       y       z     vdW  Elec       q    Type
REMARK                         _______ _______ _______ _____ _____    ______ ____
ROOT
ATOM      1  N   UNL     1       3.834   5.609  18.130  0.00  0.00    +0.000 N 
ATOM      2  C   UNL     1       2.790   6.492  18.351  0.00  0.00    +0.000 A 
ATOM      3  N   UNL     1       1.747   5.860  18.860  0.00  0.00    +0.000 NA
ATOM      4  C   UNL     1       2.114   4.548  18.979  0.00  0.00    +0.000 A 
ATOM      5  C   UNL     1       1.381   3.466  19.490  0.00  0.00    +0.000 A 
ATOM      6  C   UNL     1       1.976   2.201  19.519  0.00  0.00    +0.000 A 
ATOM      7  C   UNL     1       3.274   2.016  19.045  0.00  0.00    +0.000 A 
ATOM      8  C   UNL     1       4.021   3.086  18.533  0.00  0.00    +0.000 A 
ATOM      9  C   UNL     1       3.409   4.349  18.513  0.00  0.00    +0.000 A 
ENDROOT
BRANCH   1  10
ATOM     10  C   UNL     1       5.208   5.932  17.775  0.00  0.00    +0.000 C 
BRANCH  10  12
ATOM     11  N   UNL     1       6.119   4.761  15.809  0.00  0.00    +0.000 N 
ATOM     12  C   UNL     1       5.543   5.923  16.300  0.00  0.00    +0.000 C 
ATOM     13  O   UNL     1       5.367   6.947  15.644  0.00  0.00    +0.000 OA
ATOM     14  H   UNL     1       6.192   3.962  16.428  0.00  0.00    +0.000 HD
BRANCH  11  20
ATOM     15  C   UNL     1       5.372   2.402  11.528  0.00  0.00    +0.000 C 
ATOM     16  C   UNL     1       6.142   3.398  12.344  0.00  0.00    +0.000 A 
ATOM     17  C   UNL     1       7.147   4.164  11.744  0.00  0.00    +0.000 A 
ATOM     18  C   UNL     1       7.853   5.094  12.496  0.00  0.00    +0.000 A 
ATOM     19  C   UNL     1       7.544   5.282  13.843  0.00  0.00    +0.000 A 
ATOM     20  C   UNL     1       6.521   4.556  14.462  0.00  0.00    +0.000 A 
ATOM     21  C   UNL     1       5.841   3.591  13.706  0.00  0.00    +0.000 A 
ENDBRANCH  11  20
ENDBRANCH  10  12
ENDBRANCH   1  10
BRANCH   2  22
ATOM     22  C   UNL     1       2.806   7.957  18.059  0.00  0.00    +0.000 C 
BRANCH  22  23
ATOM     23  N   UNL     1       1.496   8.519  18.313  0.00  0.00    +0.000 N 
ATOM     24  C   UNL     1       1.281   9.873  18.211  0.00  0.00    +0.000 C 
ATOM     25  O   UNL     1       2.195  10.661  17.996  0.00  0.00    +0.000 OA
ATOM     26  H   UNL     1       0.783   7.890  18.652  0.00  0.00    +0.000 HD
BRANCH  24  27
ATOM     27  C   UNL     1      -0.098  10.407  18.372  0.00  0.00    +0.000 A 
ATOM     28  C   UNL     1      -1.190   9.973  17.614  0.00  0.00    +0.000 A 
ATOM     29  C   UNL     1      -2.441  10.575  17.791  0.00  0.00    +0.000 A 
ATOM     30  C   UNL     1      -2.605  11.607  18.716  0.00  0.00    +0.000 A 
ATOM     31  C   UNL     1      -1.523  12.049  19.472  0.00  0.00    +0.000 A 
ATOM     32  C   UNL     1      -0.276  11.451  19.296  0.00  0.00    +0.000 A 
ENDBRANCH  24  27
ENDBRANCH  22  23
ENDBRANCH   2  22
TORSDOF 6
ENDMDL
MODEL 8
REMARK VINA RESULT:      -8.9      2.067      8.499
REMARK  Name = 
REMARK  7 active torsions:
REMARK  status: ('A' for Active; 'I' for Inactive)
REMARK    1  A    between atoms: C_1  and  C_2
REMARK    2  A    between atoms: C_6  and  N_7
REMARK    3  A    between atoms: C_8  and  C_10
REMARK    4  A    between atoms: C_10  and  N_11
REMARK    5  A    between atoms: C_12  and  C_13
REMARK    6  A    between atoms: C_13  and  N_14
REMARK    7  A    between atoms: C_15  and  C_17
REMARK                            x       y       z     vdW  Elec       q    Type
REMARK                         _______ _______ _______ _____ _____    ______ ____
ROOT
ATOM      1  N   UNL     1       3.655   5.277  18.734  0.00  0.00    +0.000 N 
ATOM      2  C   UNL     1       4.957   4.813  18.815  0.00  0.00    +0.000 A 
ATOM      3  N   UNL     1       5.020   3.734  19.576  0.00  0.00    +0.000 NA
ATOM      4  C   UNL     1       3.742   3.486  19.995  0.00  0.00    +0.000 A 
ATOM      5  C   UNL     1       3.261   2.442  20.798  0.00  0.00    +0.000 A 
ATOM      6  C   UNL     1       1.894   2.387  21.090  0.00  0.00    +0.000 A 
ATOM      7  C   UNL     1       1.024   3.357  20.592  0.00  0.00    +0.000 A 
ATOM      8  C   UNL     1       1.488   4.405  19.786  0.00  0.00    +0.000 A 
ATOM      9  C   UNL     1       2.862   4.442  19.502  0.00  0.00    +0.000 A 
ENDROOT
BRANCH   1  10
ATOM     10  C   UNL     1       3.134   6.306  17.847  0.00  0.00    +0.000 C 
BRANCH  10  12
ATOM     11  N   UNL     1       1.865   8.407  17.652  0.00  0.00    +0.000 N 
ATOM     12  C   UNL     1       2.423   7.466  18.505  0.00  0.00    +0.000 C 
ATOM     13  O   UNL     1       2.443   7.559  19.730  0.00  0.00    +0.000 OA
ATOM     14  H   UNL     1       1.876   8.220  16.656  0.00  0.00    +0.000 HD
BRANCH  11  20
ATOM     15  C   UNL     1      -2.462  10.743  18.183  0.00  0.00    +0.000 C 
ATOM     16  C   UNL     1      -0.970  10.722  18.341  0.00  0.00    +0.000 A 
ATOM     17  C   UNL     1      -0.321  11.785  18.977  0.00  0.00    +0.000 A 
ATOM     18  C   UNL     1       1.059  11.762  19.133  0.00  0.00    +0.000 A 
ATOM     19  C   UNL     1       1.795  10.669  18.677  0.00  0.00    +0.000 A 
ATOM     20  C   UNL     1       1.170   9.575  18.067  0.00  0.00    +0.000 A 
ATOM     21  C   UNL     1      -0.218   9.625  17.878  0.00  0.00    +0.000 A 
ENDBRANCH  11  20
ENDBRANCH  10  12
ENDBRANCH   1  10
BRANCH   2  22
ATOM     22  C   UNL     1       6.148   5.427  18.154  0.00  0.00    +0.000 C 
BRANCH  22  23
ATOM     23  N   UNL     1       6.355   4.817  16.858  0.00  0.00    +0.000 N 
ATOM     24  C   UNL     1       6.093   5.516  15.703  0.00  0.00    +0.000 C 
ATOM     25  O   UNL     1       5.592   6.633  15.720  0.00  0.00    +0.000 OA
ATOM     26  H   UNL     1       6.611   3.840  16.844  0.00  0.00    +0.000 HD
BRANCH  24  27
ATOM     27  C   UNL     1       6.419   4.900  14.388  0.00  0.00    +0.000 A 
ATOM     28  C   UNL     1       7.519   5.273  13.609  0.00  0.00    +0.000 A 
ATOM     29  C   UNL     1       7.714   4.683  12.356  0.00  0.00    +0.000 A 
ATOM     30  C   UNL     1       6.816   3.728  11.876  0.00  0.00    +0.000 A 
ATOM     31  C   UNL     1       5.717   3.353  12.643  0.00  0.00    +0.000 A 
ATOM     32  C   UNL     1       5.520   3.941  13.891  0.00  0.00    +0.000 A 
ENDBRANCH  24  27
ENDBRANCH  22  23
ENDBRANCH   2  22
TORSDOF 6
ENDMDL
MODEL 9
REMARK VINA RESULT:      -8.8      1.867      8.728
REMARK  Name = 
REMARK  7 active torsions:
REMARK  status: ('A' for Active; 'I' for Inactive)
REMARK    1  A    between atoms: C_1  and  C_2
REMARK    2  A    between atoms: C_6  and  N_7
REMARK    3  A    between atoms: C_8  and  C_10
REMARK    4  A    between atoms: C_10  and  N_11
REMARK    5  A    between atoms: C_12  and  C_13
REMARK    6  A    between atoms: C_13  and  N_14
REMARK    7  A    between atoms: C_15  and  C_17
REMARK                            x       y       z     vdW  Elec       q    Type
REMARK                         _______ _______ _______ _____ _____    ______ ____
ROOT
ATOM      1  N   UNL     1       2.999   5.849  18.988  0.00  0.00    +0.000 N 
ATOM      2  C   UNL     1       3.842   5.511  17.942  0.00  0.00    +0.000 A 
ATOM      3  N   UNL     1       3.588   4.285  17.518  0.00  0.00    +0.000 NA
ATOM      4  C   UNL     1       2.564   3.816  18.293  0.00  0.00    +0.000 A 
ATOM      5  C   UNL     1       1.903   2.580  18.233  0.00  0.00    +0.000 A 
ATOM      6  C   UNL     1       0.865   2.324  19.135  0.00  0.00    +0.000 A 
ATOM      7  C   UNL     1       0.496   3.280  20.080  0.00  0.00    +0.000 A 
ATOM      8  C   UNL     1       1.144   4.521  20.152  0.00  0.00    +0.000 A 
ATOM      9  C   UNL     1       2.181   4.761  19.238  0.00  0.00    +0.000 A 
ENDROOT
BRANCH   1  10
ATOM     10  C   UNL     1       2.819   7.160  19.594  0.00  0.00    +0.000 C 
BRANCH  10  12
ATOM     11  N   UNL     1       1.306   9.102  19.569  0.00  0.00    +0.000 N 
ATOM     12  C   UNL     1       1.981   8.151  18.819  0.00  0.00    +0.000 C 
ATOM     13  O   UNL     1       1.877   8.019  17.601  0.00  0.00    +0.000 OA
ATOM     14  H   UNL     1       1.485   9.144  20.565  0.00  0.00    +0.000 HD
BRANCH  11  20
ATOM     15  C   UNL     1      -2.896  10.223  17.215  0.00  0.00    +0.000 C 
ATOM     16  C   UNL     1      -1.627  10.661  17.886  0.00  0.00    +0.000 A 
ATOM     17  C   UNL     1      -1.366  12.023  18.064  0.00  0.00    +0.000 A 
ATOM     18  C   UNL     1      -0.197  12.429  18.694  0.00  0.00    +0.000 A 
ATOM     19  C   UNL     1       0.705  11.479  19.170  0.00  0.00    +0.000 A 
ATOM     20  C   UNL     1       0.456  10.109  19.037  0.00  0.00    +0.000 A 
ATOM     21  C   UNL     1      -0.707   9.709  18.364  0.00  0.00    +0.000 A 
ENDBRANCH  11  20
ENDBRANCH  10  12
ENDBRANCH   1  10
BRANCH   2  22
ATOM     22  C   UNL     1       4.903   6.384  17.356  0.00  0.00    +0.000 C 
BRANCH  22  23
ATOM     23  N   UNL     1       5.203   5.949  16.007  0.00  0.00    +0.000 N 
ATOM     24  C   UNL     1       6.430   5.411  15.699  0.00  0.00    +0.000 C 
ATOM     25  O   UNL     1       7.342   5.364  16.516  0.00  0.00    +0.000 OA
ATOM     26  H   UNL     1       4.511   6.141  15.298  0.00  0.00    +0.000 HD
BRANCH  24  27
ATOM     27  C   UNL     1       6.669   4.876  14.332  0.00  0.00    +0.000 A 
ATOM     28  C   UNL     1       7.664   5.357  13.475  0.00  0.00    +0.000 A 
ATOM     29  C   UNL     1       7.778   4.836  12.182  0.00  0.00    +0.000 A 
ATOM     30  C   UNL     1       6.903   3.842  11.740  0.00  0.00    +0.000 A 
ATOM     31  C   UNL     1       5.907   3.360  12.584  0.00  0.00    +0.000 A 
ATOM     32  C   UNL     1       5.792   3.879  13.873  0.00  0.00    +0.000 A 
ENDBRANCH  24  27
ENDBRANCH  22  23
ENDBRANCH   2  22
TORSDOF 6
ENDMDL
