MODEL 1
REMARK VINA RESULT:      -7.5      0.000      0.000
REMARK  Name = 
REMARK  7 active torsions:
REMARK  status: ('A' for Active; 'I' for Inactive)
REMARK    1  A    between atoms: C_1  and  N_2
REMARK    2  A    between atoms: C_4  and  C_5
REMARK    3  A    between atoms: N_8  and  C_9
REMARK    4  A    between atoms: C_9  and  C_10
REMARK    5  A    between atoms: C_26  and  C_27
REMARK    6  A    between atoms: C_27  and  O_29
REMARK    7  A    between atoms: N_32  and  C_33
REMARK                            x       y       z     vdW  Elec       q    Type
REMARK                         _______ _______ _______ _____ _____    ______ ____
ROOT
ATOM      1  C   UNL     1      -1.699  11.605  19.781  0.00  0.00    +0.000 C 
ATOM      2  C   UNL     1      -0.621  11.856  19.004  0.00  0.00    +0.000 C 
ATOM      3  C   UNL     1       0.038  10.762  18.206  0.00  0.00    +0.000 C 
ATOM      4  N   UNL     1       1.457  10.673  18.584  0.00  0.00    +0.000 NA
ATOM      5  C   UNL     1       2.168  11.918  18.236  0.00  0.00    +0.000 C 
ATOM      6  C   UNL     1       1.427  13.197  18.547  0.00  0.00    +0.000 A 
ATOM      7  C   UNL     1       0.067  13.149  18.855  0.00  0.00    +0.000 A 
ATOM      8  N   UNL     1      -0.688  14.244  19.038  0.00  0.00    +0.000 NA
ATOM      9  C   UNL     1      -0.122  15.449  19.054  0.00  0.00    +0.000 A 
ATOM     10  C   UNL     1      -0.958  16.518  19.336  0.00  0.00    +0.000 A 
ATOM     11  C   UNL     1      -0.468  17.812  19.478  0.00  0.00    +0.000 A 
ATOM     12  C   UNL     1       0.886  18.045  19.303  0.00  0.00    +0.000 A 
ATOM     13  C   UNL     1       1.733  16.987  18.961  0.00  0.00    +0.000 A 
ATOM     14  C   UNL     1       1.252  15.652  18.837  0.00  0.00    +0.000 A 
ATOM     15  C   UNL     1       2.021  14.484  18.528  0.00  0.00    +0.000 A 
ENDROOT
BRANCH   1  19
ATOM     16  C   UNL     1      -2.014  14.207  23.931  0.00  0.00    +0.000 C 
ATOM     17  N   UNL     1      -2.660  13.698  22.731  0.00  0.00    +0.000 N 
ATOM     18  C   UNL     1      -1.948  12.900  21.864  0.00  0.00    +0.000 A 
ATOM     19  C   UNL     1      -2.431  12.480  20.690  0.00  0.00    +0.000 A 
ATOM     20  C   UNL     1      -3.847  12.845  20.365  0.00  0.00    +0.000 A 
ATOM     21  O   UNL     1      -4.357  12.440  19.318  0.00  0.00    +0.000 OA
ATOM     22  N   UNL     1      -4.522  13.620  21.299  0.00  0.00    +0.000 N 
ATOM     23  C   UNL     1      -5.902  13.983  21.037  0.00  0.00    +0.000 C 
ATOM     24  C   UNL     1      -3.957  14.120  22.461  0.00  0.00    +0.000 A 
ATOM     25  O   UNL     1      -4.568  14.879  23.217  0.00  0.00    +0.000 OA
ENDBRANCH   1  19
BRANCH  15  26
ATOM     26  C   UNL     1       3.486  14.637  18.293  0.00  0.00    +0.000 C 
ATOM     27  O   UNL     1       4.321  14.508  19.171  0.00  0.00    +0.000 OA
BRANCH  26  28
ATOM     28  O   UNL     1       3.826  14.938  17.022  0.00  0.00    +0.000 OA
ATOM     29  H   UNL     1       3.123  15.320  16.467  0.00  0.00    +0.000 HD
ENDBRANCH  26  28
ENDBRANCH  15  26
BRANCH   4  30
ATOM     30  C   UNL     1       2.124   9.524  17.930  0.00  0.00    +0.000 C 
BRANCH  30  31
ATOM     31  C   UNL     1       2.135   8.265  18.772  0.00  0.00    +0.000 A 
ATOM     32  C   UNL     1       2.561   7.047  18.219  0.00  0.00    +0.000 A 
ATOM     33  C   UNL     1       2.469   5.865  18.956  0.00  0.00    +0.000 A 
ATOM     34  C   UNL     1       1.964   5.892  20.254  0.00  0.00    +0.000 A 
ATOM     35  C   UNL     1       1.571   7.102  20.825  0.00  0.00    +0.000 A 
ATOM     36  C   UNL     1       1.660   8.284  20.089  0.00  0.00    +0.000 A 
ENDBRANCH  30  31
ENDBRANCH   4  30
TORSDOF 5
ENDMDL
MODEL 2
REMARK VINA RESULT:      -7.5      0.823      1.632
REMARK  Name = 
REMARK  7 active torsions:
REMARK  status: ('A' for Active; 'I' for Inactive)
REMARK    1  A    between atoms: C_1  and  N_2
REMARK    2  A    between atoms: C_4  and  C_5
REMARK    3  A    between atoms: N_8  and  C_9
REMARK    4  A    between atoms: C_9  and  C_10
REMARK    5  A    between atoms: C_26  and  C_27
REMARK    6  A    between atoms: C_27  and  O_29
REMARK    7  A    between atoms: N_32  and  C_33
REMARK                            x       y       z     vdW  Elec       q    Type
REMARK                         _______ _______ _______ _____ _____    ______ ____
ROOT
ATOM      1  C   UNL     1      -1.693  11.659  19.811  0.00  0.00    +0.000 C 
ATOM      2  C   UNL     1      -0.617  11.902  19.029  0.00  0.00    +0.000 C 
ATOM      3  C   UNL     1       0.030  10.803  18.229  0.00  0.00    +0.000 C 
ATOM      4  N   UNL     1       1.450  10.703  18.599  0.00  0.00    +0.000 NA
ATOM      5  C   UNL     1       2.168  11.942  18.248  0.00  0.00    +0.000 C 
ATOM      6  C   UNL     1       1.438  13.227  18.561  0.00  0.00    +0.000 A 
ATOM      7  C   UNL     1       0.080  13.190  18.876  0.00  0.00    +0.000 A 
ATOM      8  N   UNL     1      -0.665  14.290  19.061  0.00  0.00    +0.000 NA
ATOM      9  C   UNL     1      -0.091  15.491  19.074  0.00  0.00    +0.000 A 
ATOM     10  C   UNL     1      -0.917  16.567  19.360  0.00  0.00    +0.000 A 
ATOM     11  C   UNL     1      -0.416  17.857  19.498  0.00  0.00    +0.000 A 
ATOM     12  C   UNL     1       0.939  18.079  19.316  0.00  0.00    +0.000 A 
ATOM     13  C   UNL     1       1.776  17.014  18.971  0.00  0.00    +0.000 A 
ATOM     14  C   UNL     1       1.284  15.683  18.850  0.00  0.00    +0.000 A 
ATOM     15  C   UNL     1       2.043  14.510  18.538  0.00  0.00    +0.000 A 
ENDROOT
BRANCH   1  19
ATOM     16  C   UNL     1      -5.577  14.439  20.940  0.00  0.00    +0.000 C 
ATOM     17  N   UNL     1      -4.247  13.965  21.286  0.00  0.00    +0.000 N 
ATOM     18  C   UNL     1      -3.591  13.106  20.432  0.00  0.00    +0.000 A 
ATOM     19  C   UNL     1      -2.414  12.541  20.722  0.00  0.00    +0.000 A 
ATOM     20  C   UNL     1      -1.764  12.941  22.012  0.00  0.00    +0.000 A 
ATOM     21  O   UNL     1      -0.656  12.488  22.304  0.00  0.00    +0.000 OA
ATOM     22  N   UNL     1      -2.462  13.840  22.810  0.00  0.00    +0.000 N 
ATOM     23  C   UNL     1      -1.865  14.271  24.059  0.00  0.00    +0.000 C 
ATOM     24  C   UNL     1      -3.726  14.330  22.521  0.00  0.00    +0.000 A 
ATOM     25  O   UNL     1      -4.344  15.056  23.302  0.00  0.00    +0.000 OA
ENDBRANCH   1  19
BRANCH  15  26
ATOM     26  C   UNL     1       3.508  14.651  18.296  0.00  0.00    +0.000 C 
ATOM     27  O   UNL     1       4.345  14.514  19.170  0.00  0.00    +0.000 OA
BRANCH  26  28
ATOM     28  O   UNL     1       3.843  14.951  17.024  0.00  0.00    +0.000 OA
ATOM     29  H   UNL     1       4.463  14.341  16.586  0.00  0.00    +0.000 HD
ENDBRANCH  26  28
ENDBRANCH  15  26
BRANCH   4  30
ATOM     30  C   UNL     1       2.105   9.549  17.943  0.00  0.00    +0.000 C 
BRANCH  30  31
ATOM     31  C   UNL     1       2.122   8.294  18.791  0.00  0.00    +0.000 A 
ATOM     32  C   UNL     1       2.554   7.075  18.244  0.00  0.00    +0.000 A 
ATOM     33  C   UNL     1       2.467   5.896  18.987  0.00  0.00    +0.000 A 
ATOM     34  C   UNL     1       1.962   5.927  20.285  0.00  0.00    +0.000 A 
ATOM     35  C   UNL     1       1.565   7.138  20.850  0.00  0.00    +0.000 A 
ATOM     36  C   UNL     1       1.648   8.317  20.109  0.00  0.00    +0.000 A 
ENDBRANCH  30  31
ENDBRANCH   4  30
TORSDOF 5
ENDMDL
MODEL 3
REMARK VINA RESULT:      -7.1      3.262      8.569
REMARK  Name = 
REMARK  7 active torsions:
REMARK  status: ('A' for Active; 'I' for Inactive)
REMARK    1  A    between atoms: C_1  and  N_2
REMARK    2  A    between atoms: C_4  and  C_5
REMARK    3  A    between atoms: N_8  and  C_9
REMARK    4  A    between atoms: C_9  and  C_10
REMARK    5  A    between atoms: C_26  and  C_27
REMARK    6  A    between atoms: C_27  and  O_29
REMARK    7  A    between atoms: N_32  and  C_33
REMARK                            x       y       z     vdW  Elec       q    Type
REMARK                         _______ _______ _______ _____ _____    ______ ____
ROOT
ATOM      1  C   UNL     1      -0.584  13.407  22.191  0.00  0.00    +0.000 C 
ATOM      2  C   UNL     1      -1.830  13.930  22.229  0.00  0.00    +0.000 C 
ATOM      3  C   UNL     1      -2.163  15.088  23.132  0.00  0.00    +0.000 C 
ATOM      4  N   UNL     1      -3.271  14.707  24.022  0.00  0.00    +0.000 NA
ATOM      5  C   UNL     1      -4.493  14.430  23.244  0.00  0.00    +0.000 C 
ATOM      6  C   UNL     1      -4.289  13.632  21.977  0.00  0.00    +0.000 A 
ATOM      7  C   UNL     1      -3.001  13.455  21.473  0.00  0.00    +0.000 A 
ATOM      8  N   UNL     1      -2.743  12.854  20.301  0.00  0.00    +0.000 NA
ATOM      9  C   UNL     1      -3.728  12.277  19.616  0.00  0.00    +0.000 A 
ATOM     10  C   UNL     1      -3.363  11.602  18.462  0.00  0.00    +0.000 A 
ATOM     11  C   UNL     1      -4.286  10.878  17.715  0.00  0.00    +0.000 A 
ATOM     12  C   UNL     1      -5.611  10.854  18.117  0.00  0.00    +0.000 A 
ATOM     13  C   UNL     1      -6.006  11.577  19.247  0.00  0.00    +0.000 A 
ATOM     14  C   UNL     1      -5.069  12.303  20.037  0.00  0.00    +0.000 A 
ATOM     15  C   UNL     1      -5.342  13.049  21.228  0.00  0.00    +0.000 A 
ENDROOT
BRANCH   1  19
ATOM     16  C   UNL     1       1.838  11.421  18.412  0.00  0.00    +0.000 C 
ATOM     17  N   UNL     1       1.035  11.232  19.610  0.00  0.00    +0.000 N 
ATOM     18  C   UNL     1       0.583  12.334  20.302  0.00  0.00    +0.000 A 
ATOM     19  C   UNL     1      -0.068  12.250  21.468  0.00  0.00    +0.000 A 
ATOM     20  C   UNL     1      -0.377  10.876  21.980  0.00  0.00    +0.000 A 
ATOM     21  O   UNL     1      -1.019  10.743  23.024  0.00  0.00    +0.000 OA
ATOM     22  N   UNL     1       0.075   9.808  21.214  0.00  0.00    +0.000 N 
ATOM     23  C   UNL     1      -0.215   8.459  21.660  0.00  0.00    +0.000 C 
ATOM     24  C   UNL     1       0.833   9.934  20.061  0.00  0.00    +0.000 A 
ATOM     25  O   UNL     1       1.288   8.956  19.463  0.00  0.00    +0.000 OA
ENDBRANCH   1  19
BRANCH  15  26
ATOM     26  C   UNL     1      -6.747  13.107  21.727  0.00  0.00    +0.000 C 
ATOM     27  O   UNL     1      -7.530  13.987  21.416  0.00  0.00    +0.000 OA
BRANCH  26  28
ATOM     28  O   UNL     1      -7.092  12.106  22.563  0.00  0.00    +0.000 OA
ATOM     29  H   UNL     1      -6.513  11.323  22.559  0.00  0.00    +0.000 HD
ENDBRANCH  26  28
ENDBRANCH  15  26
BRANCH   4  30
ATOM     30  C   UNL     1      -3.551  15.759  25.025  0.00  0.00    +0.000 C 
BRANCH  30  31
ATOM     31  C   UNL     1      -2.307  16.401  25.601  0.00  0.00    +0.000 A 
ATOM     32  C   UNL     1      -1.350  15.619  26.268  0.00  0.00    +0.000 A 
ATOM     33  C   UNL     1      -0.257  16.221  26.895  0.00  0.00    +0.000 A 
ATOM     34  C   UNL     1      -0.104  17.605  26.848  0.00  0.00    +0.000 A 
ATOM     35  C   UNL     1      -1.029  18.387  26.158  0.00  0.00    +0.000 A 
ATOM     36  C   UNL     1      -2.124  17.788  25.534  0.00  0.00    +0.000 A 
ENDBRANCH  30  31
ENDBRANCH   4  30
TORSDOF 5
ENDMDL
MODEL 4
REMARK VINA RESULT:      -7.0      2.743      4.636
REMARK  Name = 
REMARK  7 active torsions:
REMARK  status: ('A' for Active; 'I' for Inactive)
REMARK    1  A    between atoms: C_1  and  N_2
REMARK    2  A    between atoms: C_4  and  C_5
REMARK    3  A    between atoms: N_8  and  C_9
REMARK    4  A    between atoms: C_9  and  C_10
REMARK    5  A    between atoms: C_26  and  C_27
REMARK    6  A    between atoms: C_27  and  O_29
REMARK    7  A    between atoms: N_32  and  C_33
REMARK                            x       y       z     vdW  Elec       q    Type
REMARK                         _______ _______ _______ _____ _____    ______ ____
ROOT
ATOM      1  C   UNL     1       0.493  12.237  21.167  0.00  0.00    +0.000 C 
ATOM      2  C   UNL     1       0.105  11.312  20.260  0.00  0.00    +0.000 C 
ATOM      3  C   UNL     1       1.015  10.179  19.864  0.00  0.00    +0.000 C 
ATOM      4  N   UNL     1       1.220  10.208  18.407  0.00  0.00    +0.000 NA
ATOM      5  C   UNL     1      -0.052   9.978  17.697  0.00  0.00    +0.000 C 
ATOM      6  C   UNL     1      -1.251  10.703  18.263  0.00  0.00    +0.000 A 
ATOM      7  C   UNL     1      -1.172  11.287  19.527  0.00  0.00    +0.000 A 
ATOM      8  N   UNL     1      -2.219  11.854  20.146  0.00  0.00    +0.000 NA
ATOM      9  C   UNL     1      -3.377  11.995  19.504  0.00  0.00    +0.000 A 
ATOM     10  C   UNL     1      -4.379  12.670  20.182  0.00  0.00    +0.000 A 
ATOM     11  C   UNL     1      -5.598  12.966  19.581  0.00  0.00    +0.000 A 
ATOM     12  C   UNL     1      -5.829  12.549  18.281  0.00  0.00    +0.000 A 
ATOM     13  C   UNL     1      -4.850  11.817  17.603  0.00  0.00    +0.000 A 
ATOM     14  C   UNL     1      -3.587  11.528  18.194  0.00  0.00    +0.000 A 
ATOM     15  C   UNL     1      -2.496  10.822  17.594  0.00  0.00    +0.000 A 
ENDROOT
BRANCH   1  19
ATOM     16  C   UNL     1      -0.490  17.030  20.779  0.00  0.00    +0.000 C 
ATOM     17  N   UNL     1      -0.631  15.790  21.525  0.00  0.00    +0.000 N 
ATOM     18  C   UNL     1      -0.016  14.648  21.062  0.00  0.00    +0.000 A 
ATOM     19  C   UNL     1      -0.182  13.446  21.627  0.00  0.00    +0.000 A 
ATOM     20  C   UNL     1      -1.017  13.385  22.869  0.00  0.00    +0.000 A 
ATOM     21  O   UNL     1      -1.159  12.312  23.457  0.00  0.00    +0.000 OA
ATOM     22  N   UNL     1      -1.577  14.580  23.304  0.00  0.00    +0.000 N 
ATOM     23  C   UNL     1      -2.378  14.574  24.513  0.00  0.00    +0.000 C 
ATOM     24  C   UNL     1      -1.464  15.789  22.637  0.00  0.00    +0.000 A 
ATOM     25  O   UNL     1      -2.053  16.806  23.013  0.00  0.00    +0.000 OA
ENDBRANCH   1  19
BRANCH  15  26
ATOM     26  C   UNL     1      -2.659  10.306  16.203  0.00  0.00    +0.000 C 
ATOM     27  O   UNL     1      -3.001   9.166  15.949  0.00  0.00    +0.000 OA
BRANCH  26  28
ATOM     28  O   UNL     1      -2.390  11.205  15.233  0.00  0.00    +0.000 OA
ATOM     29  H   UNL     1      -1.462  11.488  15.153  0.00  0.00    +0.000 HD
ENDBRANCH  26  28
ENDBRANCH  15  26
BRANCH   4  30
ATOM     30  C   UNL     1       2.215   9.200  17.977  0.00  0.00    +0.000 C 
BRANCH  30  31
ATOM     31  C   UNL     1       2.079   7.868  18.684  0.00  0.00    +0.000 A 
ATOM     32  C   UNL     1       1.842   7.820  20.067  0.00  0.00    +0.000 A 
ATOM     33  C   UNL     1       1.826   6.598  20.741  0.00  0.00    +0.000 A 
ATOM     34  C   UNL     1       2.032   5.413  20.037  0.00  0.00    +0.000 A 
ATOM     35  C   UNL     1       2.233   5.446  18.658  0.00  0.00    +0.000 A 
ATOM     36  C   UNL     1       2.252   6.667  17.983  0.00  0.00    +0.000 A 
ENDBRANCH  30  31
ENDBRANCH   4  30
TORSDOF 5
ENDMDL
MODEL 5
REMARK VINA RESULT:      -7.0      3.597      6.212
REMARK  Name = 
REMARK  7 active torsions:
REMARK  status: ('A' for Active; 'I' for Inactive)
REMARK    1  A    between atoms: C_1  and  N_2
REMARK    2  A    between atoms: C_4  and  C_5
REMARK    3  A    between atoms: N_8  and  C_9
REMARK    4  A    between atoms: C_9  and  C_10
REMARK    5  A    between atoms: C_26  and  C_27
REMARK    6  A    between atoms: C_27  and  O_29
REMARK    7  A    between atoms: N_32  and  C_33
REMARK                            x       y       z     vdW  Elec       q    Type
REMARK                         _______ _______ _______ _____ _____    ______ ____
ROOT
ATOM      1  C   UNL     1      -2.122  15.053  21.572  0.00  0.00    +0.000 C 
ATOM      2  C   UNL     1      -1.707  13.949  20.910  0.00  0.00    +0.000 C 
ATOM      3  C   UNL     1      -0.255  13.550  20.893  0.00  0.00    +0.000 C 
ATOM      4  N   UNL     1       0.208  13.459  19.499  0.00  0.00    +0.000 NA
ATOM      5  C   UNL     1      -0.518  12.397  18.777  0.00  0.00    +0.000 C 
ATOM      6  C   UNL     1      -2.004  12.332  19.040  0.00  0.00    +0.000 A 
ATOM      7  C   UNL     1      -2.547  13.041  20.112  0.00  0.00    +0.000 A 
ATOM      8  N   UNL     1      -3.835  12.953  20.479  0.00  0.00    +0.000 NA
ATOM      9  C   UNL     1      -4.694  12.259  19.735  0.00  0.00    +0.000 A 
ATOM     10  C   UNL     1      -6.021  12.292  20.135  0.00  0.00    +0.000 A 
ATOM     11  C   UNL     1      -7.026  11.690  19.386  0.00  0.00    +0.000 A 
ATOM     12  C   UNL     1      -6.690  11.014  18.225  0.00  0.00    +0.000 A 
ATOM     13  C   UNL     1      -5.350  10.923  17.838  0.00  0.00    +0.000 A 
ATOM     14  C   UNL     1      -4.312  11.556  18.580  0.00  0.00    +0.000 A 
ATOM     15  C   UNL     1      -2.914  11.565  18.270  0.00  0.00    +0.000 A 
ENDROOT
BRANCH   1  19
ATOM     16  C   UNL     1      -5.550  18.123  19.864  0.00  0.00    +0.000 C 
ATOM     17  N   UNL     1      -5.114  17.200  20.900  0.00  0.00    +0.000 N 
ATOM     18  C   UNL     1      -3.877  16.603  20.799  0.00  0.00    +0.000 A 
ATOM     19  C   UNL     1      -3.444  15.665  21.648  0.00  0.00    +0.000 A 
ATOM     20  C   UNL     1      -4.337  15.325  22.803  0.00  0.00    +0.000 A 
ATOM     21  O   UNL     1      -3.963  14.504  23.642  0.00  0.00    +0.000 OA
ATOM     22  N   UNL     1      -5.554  15.991  22.867  0.00  0.00    +0.000 N 
ATOM     23  C   UNL     1      -6.445  15.708  23.976  0.00  0.00    +0.000 C 
ATOM     24  C   UNL     1      -6.012  16.886  21.913  0.00  0.00    +0.000 A 
ATOM     25  O   UNL     1      -7.138  17.385  21.965  0.00  0.00    +0.000 OA
ENDBRANCH   1  19
BRANCH  15  26
ATOM     26  C   UNL     1      -2.449  10.838  17.052  0.00  0.00    +0.000 C 
ATOM     27  O   UNL     1      -2.102   9.671  17.063  0.00  0.00    +0.000 OA
BRANCH  26  28
ATOM     28  O   UNL     1      -2.434  11.579  15.925  0.00  0.00    +0.000 OA
ATOM     29  H   UNL     1      -2.956  11.238  15.178  0.00  0.00    +0.000 HD
ENDBRANCH  26  28
ENDBRANCH  15  26
BRANCH   4  30
ATOM     30  C   UNL     1       1.664  13.202  19.424  0.00  0.00    +0.000 C 
BRANCH  30  31
ATOM     31  C   UNL     1       2.448  14.324  18.775  0.00  0.00    +0.000 A 
ATOM     32  C   UNL     1       3.774  14.114  18.361  0.00  0.00    +0.000 A 
ATOM     33  C   UNL     1       4.536  15.173  17.865  0.00  0.00    +0.000 A 
ATOM     34  C   UNL     1       3.976  16.446  17.765  0.00  0.00    +0.000 A 
ATOM     35  C   UNL     1       2.650  16.657  18.139  0.00  0.00    +0.000 A 
ATOM     36  C   UNL     1       1.888  15.600  18.639  0.00  0.00    +0.000 A 
ENDBRANCH  30  31
ENDBRANCH   4  30
TORSDOF 5
ENDMDL
MODEL 6
REMARK VINA RESULT:      -6.9      3.356      5.122
REMARK  Name = 
REMARK  7 active torsions:
REMARK  status: ('A' for Active; 'I' for Inactive)
REMARK    1  A    between atoms: C_1  and  N_2
REMARK    2  A    between atoms: C_4  and  C_5
REMARK    3  A    between atoms: N_8  and  C_9
REMARK    4  A    between atoms: C_9  and  C_10
REMARK    5  A    between atoms: C_26  and  C_27
REMARK    6  A    between atoms: C_27  and  O_29
REMARK    7  A    between atoms: N_32  and  C_33
REMARK                            x       y       z     vdW  Elec       q    Type
REMARK                         _______ _______ _______ _____ _____    ______ ____
ROOT
ATOM      1  C   UNL     1      -3.001  13.222  23.029  0.00  0.00    +0.000 C 
ATOM      2  C   UNL     1      -2.615  12.353  22.068  0.00  0.00    +0.000 C 
ATOM      3  C   UNL     1      -1.370  11.522  22.223  0.00  0.00    +0.000 C 
ATOM      4  N   UNL     1      -0.469  11.779  21.088  0.00  0.00    +0.000 NA
ATOM      5  C   UNL     1      -1.092  11.352  19.821  0.00  0.00    +0.000 C 
ATOM      6  C   UNL     1      -2.553  11.702  19.666  0.00  0.00    +0.000 A 
ATOM      7  C   UNL     1      -3.284  12.125  20.776  0.00  0.00    +0.000 A 
ATOM      8  N   UNL     1      -4.606  12.352  20.747  0.00  0.00    +0.000 NA
ATOM      9  C   UNL     1      -5.267  12.299  19.593  0.00  0.00    +0.000 A 
ATOM     10  C   UNL     1      -6.612  12.633  19.637  0.00  0.00    +0.000 A 
ATOM     11  C   UNL     1      -7.384  12.711  18.483  0.00  0.00    +0.000 A 
ATOM     12  C   UNL     1      -6.804  12.418  17.260  0.00  0.00    +0.000 A 
ATOM     13  C   UNL     1      -5.463  12.024  17.205  0.00  0.00    +0.000 A 
ATOM     14  C   UNL     1      -4.652  11.964  18.374  0.00  0.00    +0.000 A 
ATOM     15  C   UNL     1      -3.266  11.611  18.443  0.00  0.00    +0.000 A 
ENDROOT
BRANCH   1  19
ATOM     16  C   UNL     1      -4.821  17.722  22.300  0.00  0.00    +0.000 C 
ATOM     17  N   UNL     1      -5.020  16.365  22.784  0.00  0.00    +0.000 N 
ATOM     18  C   UNL     1      -3.978  15.466  22.727  0.00  0.00    +0.000 A 
ATOM     19  C   UNL     1      -4.106  14.175  23.051  0.00  0.00    +0.000 A 
ATOM     20  C   UNL     1      -5.439  13.731  23.573  0.00  0.00    +0.000 A 
ATOM     21  O   UNL     1      -5.595  12.563  23.933  0.00  0.00    +0.000 OA
ATOM     22  N   UNL     1      -6.436  14.696  23.640  0.00  0.00    +0.000 N 
ATOM     23  C   UNL     1      -7.737  14.318  24.156  0.00  0.00    +0.000 C 
ATOM     24  C   UNL     1      -6.295  16.003  23.203  0.00  0.00    +0.000 A 
ATOM     25  O   UNL     1      -7.235  16.801  23.199  0.00  0.00    +0.000 OA
ENDBRANCH   1  19
BRANCH  15  26
ATOM     26  C   UNL     1      -2.558  11.251  17.180  0.00  0.00    +0.000 C 
ATOM     27  O   UNL     1      -2.699  10.180  16.618  0.00  0.00    +0.000 OA
BRANCH  26  28
ATOM     28  O   UNL     1      -1.733  12.207  16.703  0.00  0.00    +0.000 OA
ATOM     29  H   UNL     1      -0.788  12.103  16.909  0.00  0.00    +0.000 HD
ENDBRANCH  26  28
ENDBRANCH  15  26
BRANCH   4  30
ATOM     30  C   UNL     1       0.831  11.092  21.257  0.00  0.00    +0.000 C 
BRANCH  30  31
ATOM     31  C   UNL     1       1.175  10.151  20.121  0.00  0.00    +0.000 A 
ATOM     32  C   UNL     1       1.289   8.771  20.353  0.00  0.00    +0.000 A 
ATOM     33  C   UNL     1       1.713   7.915  19.336  0.00  0.00    +0.000 A 
ATOM     34  C   UNL     1       2.014   8.428  18.075  0.00  0.00    +0.000 A 
ATOM     35  C   UNL     1       1.870   9.791  17.824  0.00  0.00    +0.000 A 
ATOM     36  C   UNL     1       1.449  10.649  18.841  0.00  0.00    +0.000 A 
ENDBRANCH  30  31
ENDBRANCH   4  30
TORSDOF 5
ENDMDL
MODEL 7
REMARK VINA RESULT:      -6.9      3.310      8.393
REMARK  Name = 
REMARK  7 active torsions:
REMARK  status: ('A' for Active; 'I' for Inactive)
REMARK    1  A    between atoms: C_1  and  N_2
REMARK    2  A    between atoms: C_4  and  C_5
REMARK    3  A    between atoms: N_8  and  C_9
REMARK    4  A    between atoms: C_9  and  C_10
REMARK    5  A    between atoms: C_26  and  C_27
REMARK    6  A    between atoms: C_27  and  O_29
REMARK    7  A    between atoms: N_32  and  C_33
REMARK                            x       y       z     vdW  Elec       q    Type
REMARK                         _______ _______ _______ _____ _____    ______ ____
ROOT
ATOM      1  C   UNL     1      -0.321  12.114  22.195  0.00  0.00    +0.000 C 
ATOM      2  C   UNL     1      -1.541  12.695  22.136  0.00  0.00    +0.000 C 
ATOM      3  C   UNL     1      -2.032  13.591  23.241  0.00  0.00    +0.000 C 
ATOM      4  N   UNL     1      -3.303  13.066  23.764  0.00  0.00    +0.000 NA
ATOM      5  C   UNL     1      -4.346  13.092  22.721  0.00  0.00    +0.000 C 
ATOM      6  C   UNL     1      -3.902  12.647  21.347  0.00  0.00    +0.000 A 
ATOM      7  C   UNL     1      -2.541  12.521  21.070  0.00  0.00    +0.000 A 
ATOM      8  N   UNL     1      -2.059  12.236  19.849  0.00  0.00    +0.000 NA
ATOM      9  C   UNL     1      -2.893  11.933  18.857  0.00  0.00    +0.000 A 
ATOM     10  C   UNL     1      -2.312  11.565  17.654  0.00  0.00    +0.000 A 
ATOM     11  C   UNL     1      -3.075  11.132  16.575  0.00  0.00    +0.000 A 
ATOM     12  C   UNL     1      -4.454  11.096  16.694  0.00  0.00    +0.000 A 
ATOM     13  C   UNL     1      -5.059  11.518  17.881  0.00  0.00    +0.000 A 
ATOM     14  C   UNL     1      -4.291  11.940  19.004  0.00  0.00    +0.000 A 
ATOM     15  C   UNL     1      -4.789  12.359  20.280  0.00  0.00    +0.000 A 
ENDROOT
BRANCH   1  19
ATOM     16  C   UNL     1       1.930  11.015  17.974  0.00  0.00    +0.000 C 
ATOM     17  N   UNL     1       1.343  10.559  19.224  0.00  0.00    +0.000 N 
ATOM     18  C   UNL     1       0.777  11.477  20.081  0.00  0.00    +0.000 A 
ATOM     19  C   UNL     1       0.313  11.158  21.294  0.00  0.00    +0.000 A 
ATOM     20  C   UNL     1       0.350   9.710  21.680  0.00  0.00    +0.000 A 
ATOM     21  O   UNL     1      -0.111   9.356  22.766  0.00  0.00    +0.000 OA
ATOM     22  N   UNL     1       0.899   8.832  20.754  0.00  0.00    +0.000 N 
ATOM     23  C   UNL     1       0.940   7.418  21.075  0.00  0.00    +0.000 C 
ATOM     24  C   UNL     1       1.461   9.213  19.546  0.00  0.00    +0.000 A 
ATOM     25  O   UNL     1       2.017   8.408  18.796  0.00  0.00    +0.000 OA
ENDBRANCH   1  19
BRANCH  15  26
ATOM     26  C   UNL     1      -6.265  12.382  20.497  0.00  0.00    +0.000 C 
ATOM     27  O   UNL     1      -6.962  13.349  20.247  0.00  0.00    +0.000 OA
BRANCH  26  28
ATOM     28  O   UNL     1      -6.779  11.241  21.003  0.00  0.00    +0.000 OA
ATOM     29  H   UNL     1      -7.535  10.859  20.524  0.00  0.00    +0.000 HD
ENDBRANCH  26  28
ENDBRANCH  15  26
BRANCH   4  30
ATOM     30  C   UNL     1      -3.766  13.830  24.944  0.00  0.00    +0.000 C 
BRANCH  30  31
ATOM     31  C   UNL     1      -3.109  15.187  25.088  0.00  0.00    +0.000 A 
ATOM     32  C   UNL     1      -1.936  15.330  25.845  0.00  0.00    +0.000 A 
ATOM     33  C   UNL     1      -1.389  16.595  26.071  0.00  0.00    +0.000 A 
ATOM     34  C   UNL     1      -2.001  17.724  25.531  0.00  0.00    +0.000 A 
ATOM     35  C   UNL     1      -3.146  17.590  24.747  0.00  0.00    +0.000 A 
ATOM     36  C   UNL     1      -3.696  16.327  24.523  0.00  0.00    +0.000 A 
ENDBRANCH  30  31
ENDBRANCH   4  30
TORSDOF 5
ENDMDL
MODEL 8
REMARK VINA RESULT:      -6.8      3.003      8.654
REMARK  Name = 
REMARK  7 active torsions:
REMARK  status: ('A' for Active; 'I' for Inactive)
REMARK    1  A    between atoms: C_1  and  N_2
REMARK    2  A    between atoms: C_4  and  C_5
REMARK    3  A    between atoms: N_8  and  C_9
REMARK    4  A    between atoms: C_9  and  C_10
REMARK    5  A    between atoms: C_26  and  C_27
REMARK    6  A    between atoms: C_27  and  O_29
REMARK    7  A    between atoms: N_32  and  C_33
REMARK                            x       y       z     vdW  Elec       q    Type
REMARK                         _______ _______ _______ _____ _____    ______ ____
ROOT
ATOM      1  C   UNL     1      -0.848  13.537  22.032  0.00  0.00    +0.000 C 
ATOM      2  C   UNL     1      -2.103  14.032  22.117  0.00  0.00    +0.000 C 
ATOM      3  C   UNL     1      -2.419  15.210  23.000  0.00  0.00    +0.000 C 
ATOM      4  N   UNL     1      -3.472  14.831  23.957  0.00  0.00    +0.000 NA
ATOM      5  C   UNL     1      -4.724  14.501  23.250  0.00  0.00    +0.000 C 
ATOM      6  C   UNL     1      -4.564  13.669  21.999  0.00  0.00    +0.000 A 
ATOM      7  C   UNL     1      -3.298  13.507  21.436  0.00  0.00    +0.000 A 
ATOM      8  N   UNL     1      -3.084  12.875  20.271  0.00  0.00    +0.000 NA
ATOM      9  C   UNL     1      -4.087  12.255  19.654  0.00  0.00    +0.000 A 
ATOM     10  C   UNL     1      -3.763  11.552  18.504  0.00  0.00    +0.000 A 
ATOM     11  C   UNL     1      -4.704  10.784  17.827  0.00  0.00    +0.000 A 
ATOM     12  C   UNL     1      -6.007  10.742  18.296  0.00  0.00    +0.000 A 
ATOM     13  C   UNL     1      -6.363  11.490  19.422  0.00  0.00    +0.000 A 
ATOM     14  C   UNL     1      -5.406  12.262  20.142  0.00  0.00    +0.000 A 
ATOM     15  C   UNL     1      -5.638  13.038  21.322  0.00  0.00    +0.000 A 
ENDROOT
BRANCH   1  19
ATOM     16  C   UNL     1      -0.274   8.684  21.576  0.00  0.00    +0.000 C 
ATOM     17  N   UNL     1       0.030  10.021  21.093  0.00  0.00    +0.000 N 
ATOM     18  C   UNL     1      -0.482  11.114  21.757  0.00  0.00    +0.000 A 
ATOM     19  C   UNL     1      -0.341  12.370  21.319  0.00  0.00    +0.000 A 
ATOM     20  C   UNL     1       0.489  12.574  20.088  0.00  0.00    +0.000 A 
ATOM     21  O   UNL     1       0.693  13.716  19.672  0.00  0.00    +0.000 OA
ATOM     22  N   UNL     1       1.008  11.434  19.489  0.00  0.00    +0.000 N 
ATOM     23  C   UNL     1       1.833  11.582  18.305  0.00  0.00    +0.000 C 
ATOM     24  C   UNL     1       0.758  10.139  19.915  0.00  0.00    +0.000 A 
ATOM     25  O   UNL     1       1.167   9.152  19.299  0.00  0.00    +0.000 OA
ENDBRANCH   1  19
BRANCH  15  26
ATOM     26  C   UNL     1      -7.017  13.080  21.889  0.00  0.00    +0.000 C 
ATOM     27  O   UNL     1      -7.439  12.258  22.682  0.00  0.00    +0.000 OA
BRANCH  26  28
ATOM     28  O   UNL     1      -7.778  14.105  21.448  0.00  0.00    +0.000 OA
ATOM     29  H   UNL     1      -7.888  14.176  20.484  0.00  0.00    +0.000 HD
ENDBRANCH  26  28
ENDBRANCH  15  26
BRANCH   4  30
ATOM     30  C   UNL     1      -3.728  15.907  24.940  0.00  0.00    +0.000 C 
BRANCH  30  31
ATOM     31  C   UNL     1      -2.470  16.481  25.559  0.00  0.00    +0.000 A 
ATOM     32  C   UNL     1      -1.521  15.632  26.151  0.00  0.00    +0.000 A 
ATOM     33  C   UNL     1      -0.416  16.163  26.818  0.00  0.00    +0.000 A 
ATOM     34  C   UNL     1      -0.243  17.544  26.888  0.00  0.00    +0.000 A 
ATOM     35  C   UNL     1      -1.161  18.394  26.273  0.00  0.00    +0.000 A 
ATOM     36  C   UNL     1      -2.268  17.866  25.608  0.00  0.00    +0.000 A 
ENDBRANCH  30  31
ENDBRANCH   4  30
TORSDOF 5
ENDMDL
MODEL 9
REMARK VINA RESULT:      -6.8      3.582      5.990
REMARK  Name = 
REMARK  7 active torsions:
REMARK  status: ('A' for Active; 'I' for Inactive)
REMARK    1  A    between atoms: C_1  and  N_2
REMARK    2  A    between atoms: C_4  and  C_5
REMARK    3  A    between atoms: N_8  and  C_9
REMARK    4  A    between atoms: C_9  and  C_10
REMARK    5  A    between atoms: C_26  and  C_27
REMARK    6  A    between atoms: C_27  and  O_29
REMARK    7  A    between atoms: N_32  and  C_33
REMARK                            x       y       z     vdW  Elec       q    Type
REMARK                         _______ _______ _______ _____ _____    ______ ____
ROOT
ATOM      1  C   UNL     1      -1.882  14.789  21.838  0.00  0.00    +0.000 C 
ATOM      2  C   UNL     1      -1.550  13.685  21.131  0.00  0.00    +0.000 C 
ATOM      3  C   UNL     1      -0.146  13.141  21.150  0.00  0.00    +0.000 C 
ATOM      4  N   UNL     1       0.368  13.077  19.773  0.00  0.00    +0.000 NA
ATOM      5  C   UNL     1      -0.426  12.134  18.963  0.00  0.00    +0.000 C 
ATOM      6  C   UNL     1      -1.922  12.206  19.163  0.00  0.00    +0.000 A 
ATOM      7  C   UNL     1      -2.439  12.910  20.251  0.00  0.00    +0.000 A 
ATOM      8  N   UNL     1      -3.745  12.934  20.561  0.00  0.00    +0.000 NA
ATOM      9  C   UNL     1      -4.635  12.372  19.746  0.00  0.00    +0.000 A 
ATOM     10  C   UNL     1      -5.968  12.519  20.094  0.00  0.00    +0.000 A 
ATOM     11  C   UNL     1      -6.993  12.063  19.272  0.00  0.00    +0.000 A 
ATOM     12  C   UNL     1      -6.675  11.418  18.089  0.00  0.00    +0.000 A 
ATOM     13  C   UNL     1      -5.334  11.211  17.751  0.00  0.00    +0.000 A 
ATOM     14  C   UNL     1      -4.272  11.694  18.569  0.00  0.00    +0.000 A 
ATOM     15  C   UNL     1      -2.868  11.577  18.315  0.00  0.00    +0.000 A 
ENDROOT
BRANCH   1  19
ATOM     16  C   UNL     1      -6.237  15.721  23.903  0.00  0.00    +0.000 C 
ATOM     17  N   UNL     1      -5.298  15.965  22.820  0.00  0.00    +0.000 N 
ATOM     18  C   UNL     1      -4.100  15.285  22.795  0.00  0.00    +0.000 A 
ATOM     19  C   UNL     1      -3.139  15.528  21.897  0.00  0.00    +0.000 A 
ATOM     20  C   UNL     1      -3.439  16.537  20.831  0.00  0.00    +0.000 A 
ATOM     21  O   UNL     1      -2.607  16.760  19.950  0.00  0.00    +0.000 OA
ATOM     22  N   UNL     1      -4.680  17.159  20.892  0.00  0.00    +0.000 N 
ATOM     23  C   UNL     1      -5.023  18.130  19.870  0.00  0.00    +0.000 C 
ATOM     24  C   UNL     1      -5.613  16.954  21.895  0.00  0.00    +0.000 A 
ATOM     25  O   UNL     1      -6.664  17.595  21.957  0.00  0.00    +0.000 OA
ENDBRANCH   1  19
BRANCH  15  26
ATOM     26  C   UNL     1      -2.423  10.872  17.078  0.00  0.00    +0.000 C 
ATOM     27  O   UNL     1      -2.153   9.685  17.046  0.00  0.00    +0.000 OA
BRANCH  26  28
ATOM     28  O   UNL     1      -2.334  11.656  15.983  0.00  0.00    +0.000 OA
ATOM     29  H   UNL     1      -2.303  12.616  16.141  0.00  0.00    +0.000 HD
ENDBRANCH  26  28
ENDBRANCH  15  26
BRANCH   4  30
ATOM     30  C   UNL     1       1.793  12.677  19.740  0.00  0.00    +0.000 C 
BRANCH  30  31
ATOM     31  C   UNL     1       2.734  13.802  19.364  0.00  0.00    +0.000 A 
ATOM     32  C   UNL     1       3.435  14.503  20.359  0.00  0.00    +0.000 A 
ATOM     33  C   UNL     1       4.217  15.610  20.026  0.00  0.00    +0.000 A 
ATOM     34  C   UNL     1       4.317  16.018  18.697  0.00  0.00    +0.000 A 
ATOM     35  C   UNL     1       3.654  15.308  17.698  0.00  0.00    +0.000 A 
ATOM     36  C   UNL     1       2.869  14.202  18.028  0.00  0.00    +0.000 A 
ENDBRANCH  30  31
ENDBRANCH   4  30
TORSDOF 5
ENDMDL
