MODEL 1
REMARK VINA RESULT:      -8.9      0.000      0.000
REMARK  Name = 
REMARK  8 active torsions:
REMARK  status: ('A' for Active; 'I' for Inactive)
REMARK    1  A    between atoms: C_2  and  C_3
REMARK    2  A    between atoms: C_3  and  N_4
REMARK    3  A    between atoms: C_5  and  C_7
REMARK    4  A    between atoms: N_9  and  C_10
REMARK    5  A    between atoms: C_10  and  C_11
REMARK    6  A    between atoms: N_17  and  C_18
REMARK    7  A    between atoms: C_21  and  S_22
REMARK    8  A    between atoms: S_22  and  N_25
REMARK                            x       y       z     vdW  Elec       q    Type
REMARK                         _______ _______ _______ _____ _____    ______ ____
ROOT
ATOM      1  O   UNL     1      -0.046   9.839  19.225  0.00  0.00    +0.000 OA
ATOM      2  C   UNL     1       0.678   9.962  20.213  0.00  0.00    +0.000 C 
ATOM      3  N   UNL     1       1.488   8.974  20.756  0.00  0.00    +0.000 N 
ATOM      4  H   UNL     1       1.775   9.108  21.722  0.00  0.00    +0.000 HD
ENDROOT
BRANCH   3   5
ATOM      5  C   UNL     1       1.745   7.710  20.173  0.00  0.00    +0.000 A 
ATOM      6  C   UNL     1       1.522   6.504  20.848  0.00  0.00    +0.000 A 
ATOM      7  C   UNL     1       1.853   5.278  20.261  0.00  0.00    +0.000 A 
ATOM      8  C   UNL     1       2.391   5.247  18.975  0.00  0.00    +0.000 A 
ATOM      9  C   UNL     1       2.597   6.441  18.277  0.00  0.00    +0.000 A 
ATOM     10  C   UNL     1       2.251   7.667  18.867  0.00  0.00    +0.000 A 
BRANCH   8  11
ATOM     11  S   UNL     1       2.939   3.691  18.291  0.00  0.00    +0.000 S 
ATOM     12  O   UNL     1       2.994   2.738  19.378  0.00  0.00    +0.000 OA
ATOM     13  O   UNL     1       2.142   3.431  17.111  0.00  0.00    +0.000 OA
BRANCH  11  14
ATOM     14  N   UNL     1       4.546   4.025  17.793  0.00  0.00    +0.000 NA
ATOM     15  C   UNL     1       4.723   4.535  16.417  0.00  0.00    +0.000 C 
ATOM     16  C   UNL     1       5.952   3.917  15.750  0.00  0.00    +0.000 C 
ATOM     17  C   UNL     1       7.269   4.602  16.098  0.00  0.00    +0.000 C 
ATOM     18  C   UNL     1       7.628   4.550  17.576  0.00  0.00    +0.000 C 
ATOM     19  C   UNL     1       6.646   5.326  18.443  0.00  0.00    +0.000 C 
ATOM     20  C   UNL     1       5.436   4.512  18.874  0.00  0.00    +0.000 C 
ENDBRANCH  11  14
ENDBRANCH   8  11
ENDBRANCH   3   5
BRANCH   2  21
ATOM     21  C   UNL     1       0.658  11.262  21.018  0.00  0.00    +0.000 C 
BRANCH  21  22
ATOM     22  N   UNL     1      -0.689  11.693  21.317  0.00  0.00    +0.000 N 
ATOM     23  C   UNL     1      -1.271  11.435  22.539  0.00  0.00    +0.000 C 
ATOM     24  O   UNL     1      -0.740  10.797  23.439  0.00  0.00    +0.000 OA
ATOM     25  H   UNL     1      -1.266  12.128  20.603  0.00  0.00    +0.000 HD
BRANCH  23  26
ATOM     26  C   UNL     1      -2.692  12.021  22.721  0.00  0.00    +0.000 C 
ATOM     27  O   UNL     1      -3.268  11.911  23.793  0.00  0.00    +0.000 OA
ATOM     28  N   UNL     1      -3.179  12.621  21.586  0.00  0.00    +0.000 N 
ATOM     29  H   UNL     1      -2.570  12.640  20.773  0.00  0.00    +0.000 HD
BRANCH  28  30
ATOM     30  C   UNL     1      -4.488  13.221  21.496  0.00  0.00    +0.000 C 
BRANCH  30  31
ATOM     31  C   UNL     1      -5.368  12.508  20.500  0.00  0.00    +0.000 A 
ATOM     32  C   UNL     1      -4.945  12.305  19.177  0.00  0.00    +0.000 A 
ATOM     33  C   UNL     1      -5.742  11.591  18.279  0.00  0.00    +0.000 A 
ATOM     34  C   UNL     1      -6.968  11.072  18.691  0.00  0.00    +0.000 A 
ATOM     35  C   UNL     1      -7.402  11.273  19.999  0.00  0.00    +0.000 A 
ATOM     36  C   UNL     1      -6.607  11.985  20.899  0.00  0.00    +0.000 A 
ENDBRANCH  30  31
ENDBRANCH  28  30
ENDBRANCH  23  26
ENDBRANCH  21  22
ENDBRANCH   2  21
TORSDOF 8
ENDMDL
MODEL 2
REMARK VINA RESULT:      -8.7      7.662     11.564
REMARK  Name = 
REMARK  8 active torsions:
REMARK  status: ('A' for Active; 'I' for Inactive)
REMARK    1  A    between atoms: C_2  and  C_3
REMARK    2  A    between atoms: C_3  and  N_4
REMARK    3  A    between atoms: C_5  and  C_7
REMARK    4  A    between atoms: N_9  and  C_10
REMARK    5  A    between atoms: C_10  and  C_11
REMARK    6  A    between atoms: N_17  and  C_18
REMARK    7  A    between atoms: C_21  and  S_22
REMARK    8  A    between atoms: S_22  and  N_25
REMARK                            x       y       z     vdW  Elec       q    Type
REMARK                         _______ _______ _______ _____ _____    ______ ____
ROOT
ATOM      1  O   UNL     1       7.597   8.517  17.289  0.00  0.00    +0.000 OA
ATOM      2  C   UNL     1       8.167   8.064  18.281  0.00  0.00    +0.000 C 
ATOM      3  N   UNL     1       8.983   8.779  19.147  0.00  0.00    +0.000 N 
ATOM      4  H   UNL     1       9.623   8.232  19.718  0.00  0.00    +0.000 HD
ENDROOT
BRANCH   3   5
ATOM      5  C   UNL     1       9.168  10.182  19.133  0.00  0.00    +0.000 A 
ATOM      6  C   UNL     1       9.018  10.955  17.976  0.00  0.00    +0.000 A 
ATOM      7  C   UNL     1       9.276  12.330  17.989  0.00  0.00    +0.000 A 
ATOM      8  C   UNL     1       9.664  12.952  19.175  0.00  0.00    +0.000 A 
ATOM      9  C   UNL     1       9.795  12.198  20.347  0.00  0.00    +0.000 A 
ATOM     10  C   UNL     1       9.522  10.822  20.328  0.00  0.00    +0.000 A 
BRANCH   8  11
ATOM     11  S   UNL     1      10.125  14.677  19.151  0.00  0.00    +0.000 S 
ATOM     12  O   UNL     1      10.985  14.910  20.291  0.00  0.00    +0.000 OA
ATOM     13  O   UNL     1      10.567  14.990  17.808  0.00  0.00    +0.000 OA
BRANCH  11  14
ATOM     14  N   UNL     1       8.638  15.484  19.430  0.00  0.00    +0.000 NA
ATOM     15  C   UNL     1       7.970  15.220  20.722  0.00  0.00    +0.000 C 
ATOM     16  C   UNL     1       6.457  15.093  20.549  0.00  0.00    +0.000 C 
ATOM     17  C   UNL     1       5.712  16.424  20.517  0.00  0.00    +0.000 C 
ATOM     18  C   UNL     1       6.107  17.330  19.360  0.00  0.00    +0.000 C 
ATOM     19  C   UNL     1       7.553  17.797  19.451  0.00  0.00    +0.000 C 
ATOM     20  C   UNL     1       8.546  16.833  18.822  0.00  0.00    +0.000 C 
ENDBRANCH  11  14
ENDBRANCH   8  11
ENDBRANCH   3   5
BRANCH   2  21
ATOM     21  C   UNL     1       8.091   6.568  18.590  0.00  0.00    +0.000 C 
BRANCH  21  22
ATOM     22  N   UNL     1       6.910   5.959  18.025  0.00  0.00    +0.000 N 
ATOM     23  C   UNL     1       6.995   4.867  17.187  0.00  0.00    +0.000 C 
ATOM     24  O   UNL     1       8.044   4.358  16.816  0.00  0.00    +0.000 OA
ATOM     25  H   UNL     1       5.992   6.370  18.170  0.00  0.00    +0.000 HD
BRANCH  23  26
ATOM     26  C   UNL     1       5.634   4.295  16.722  0.00  0.00    +0.000 C 
ATOM     27  O   UNL     1       5.187   4.592  15.623  0.00  0.00    +0.000 OA
ATOM     28  N   UNL     1       5.040   3.483  17.656  0.00  0.00    +0.000 N 
ATOM     29  H   UNL     1       5.547   3.324  18.522  0.00  0.00    +0.000 HD
BRANCH  28  30
ATOM     30  C   UNL     1       3.758   2.848  17.466  0.00  0.00    +0.000 C 
BRANCH  30  31
ATOM     31  C   UNL     1       2.766   3.257  18.526  0.00  0.00    +0.000 A 
ATOM     32  C   UNL     1       1.511   2.633  18.621  0.00  0.00    +0.000 A 
ATOM     33  C   UNL     1       0.624   2.978  19.643  0.00  0.00    +0.000 A 
ATOM     34  C   UNL     1       0.977   3.948  20.580  0.00  0.00    +0.000 A 
ATOM     35  C   UNL     1       2.215   4.579  20.491  0.00  0.00    +0.000 A 
ATOM     36  C   UNL     1       3.105   4.235  19.473  0.00  0.00    +0.000 A 
ENDBRANCH  30  31
ENDBRANCH  28  30
ENDBRANCH  23  26
ENDBRANCH  21  22
ENDBRANCH   2  21
TORSDOF 8
ENDMDL
MODEL 3
REMARK VINA RESULT:      -8.7      7.753     11.471
REMARK  Name = 
REMARK  8 active torsions:
REMARK  status: ('A' for Active; 'I' for Inactive)
REMARK    1  A    between atoms: C_2  and  C_3
REMARK    2  A    between atoms: C_3  and  N_4
REMARK    3  A    between atoms: C_5  and  C_7
REMARK    4  A    between atoms: N_9  and  C_10
REMARK    5  A    between atoms: C_10  and  C_11
REMARK    6  A    between atoms: N_17  and  C_18
REMARK    7  A    between atoms: C_21  and  S_22
REMARK    8  A    between atoms: S_22  and  N_25
REMARK                            x       y       z     vdW  Elec       q    Type
REMARK                         _______ _______ _______ _____ _____    ______ ____
ROOT
ATOM      1  O   UNL     1       7.529   8.492  17.283  0.00  0.00    +0.000 OA
ATOM      2  C   UNL     1       8.104   8.008  18.258  0.00  0.00    +0.000 C 
ATOM      3  N   UNL     1       8.949   8.688  19.125  0.00  0.00    +0.000 N 
ATOM      4  H   UNL     1       9.585   8.116  19.675  0.00  0.00    +0.000 HD
ENDROOT
BRANCH   3   5
ATOM      5  C   UNL     1       9.164  10.087  19.133  0.00  0.00    +0.000 A 
ATOM      6  C   UNL     1       9.023  10.884  17.992  0.00  0.00    +0.000 A 
ATOM      7  C   UNL     1       9.310  12.253  18.027  0.00  0.00    +0.000 A 
ATOM      8  C   UNL     1       9.723  12.844  19.221  0.00  0.00    +0.000 A 
ATOM      9  C   UNL     1       9.845  12.067  20.378  0.00  0.00    +0.000 A 
ATOM     10  C   UNL     1       9.542  10.698  20.337  0.00  0.00    +0.000 A 
BRANCH   8  11
ATOM     11  S   UNL     1      10.221  14.559  19.223  0.00  0.00    +0.000 S 
ATOM     12  O   UNL     1      11.080  14.757  20.370  0.00  0.00    +0.000 OA
ATOM     13  O   UNL     1      10.676  14.881  17.886  0.00  0.00    +0.000 OA
BRANCH  11  14
ATOM     14  N   UNL     1       8.751  15.395  19.508  0.00  0.00    +0.000 NA
ATOM     15  C   UNL     1       7.944  15.745  18.320  0.00  0.00    +0.000 C 
ATOM     16  C   UNL     1       7.335  17.140  18.453  0.00  0.00    +0.000 C 
ATOM     17  C   UNL     1       6.041  17.188  19.259  0.00  0.00    +0.000 C 
ATOM     18  C   UNL     1       6.192  16.749  20.708  0.00  0.00    +0.000 C 
ATOM     19  C   UNL     1       6.572  15.280  20.836  0.00  0.00    +0.000 C 
ATOM     20  C   UNL     1       8.070  15.029  20.772  0.00  0.00    +0.000 C 
ENDBRANCH  11  14
ENDBRANCH   8  11
ENDBRANCH   3   5
BRANCH   2  21
ATOM     21  C   UNL     1       8.000   6.509  18.540  0.00  0.00    +0.000 C 
BRANCH  21  22
ATOM     22  N   UNL     1       6.670   6.002  18.285  0.00  0.00    +0.000 N 
ATOM     23  C   UNL     1       6.459   4.932  17.443  0.00  0.00    +0.000 C 
ATOM     24  O   UNL     1       7.339   4.359  16.815  0.00  0.00    +0.000 OA
ATOM     25  H   UNL     1       5.853   6.474  18.661  0.00  0.00    +0.000 HD
BRANCH  23  26
ATOM     26  C   UNL     1       4.984   4.473  17.331  0.00  0.00    +0.000 C 
ATOM     27  O   UNL     1       4.120   5.266  16.990  0.00  0.00    +0.000 OA
ATOM     28  N   UNL     1       4.802   3.152  17.660  0.00  0.00    +0.000 N 
ATOM     29  H   UNL     1       5.629   2.619  17.914  0.00  0.00    +0.000 HD
BRANCH  28  30
ATOM     30  C   UNL     1       3.517   2.496  17.655  0.00  0.00    +0.000 C 
BRANCH  30  31
ATOM     31  C   UNL     1       2.762   2.727  18.940  0.00  0.00    +0.000 A 
ATOM     32  C   UNL     1       1.406   3.094  18.925  0.00  0.00    +0.000 A 
ATOM     33  C   UNL     1       0.700   3.247  20.120  0.00  0.00    +0.000 A 
ATOM     34  C   UNL     1       1.338   3.039  21.342  0.00  0.00    +0.000 A 
ATOM     35  C   UNL     1       2.684   2.682  21.370  0.00  0.00    +0.000 A 
ATOM     36  C   UNL     1       3.392   2.526  20.177  0.00  0.00    +0.000 A 
ENDBRANCH  30  31
ENDBRANCH  28  30
ENDBRANCH  23  26
ENDBRANCH  21  22
ENDBRANCH   2  21
TORSDOF 8
ENDMDL
MODEL 4
REMARK VINA RESULT:      -8.7      7.539     11.616
REMARK  Name = 
REMARK  8 active torsions:
REMARK  status: ('A' for Active; 'I' for Inactive)
REMARK    1  A    between atoms: C_2  and  C_3
REMARK    2  A    between atoms: C_3  and  N_4
REMARK    3  A    between atoms: C_5  and  C_7
REMARK    4  A    between atoms: N_9  and  C_10
REMARK    5  A    between atoms: C_10  and  C_11
REMARK    6  A    between atoms: N_17  and  C_18
REMARK    7  A    between atoms: C_21  and  S_22
REMARK    8  A    between atoms: S_22  and  N_25
REMARK                            x       y       z     vdW  Elec       q    Type
REMARK                         _______ _______ _______ _____ _____    ______ ____
ROOT
ATOM      1  O   UNL     1       7.578   8.653  17.349  0.00  0.00    +0.000 OA
ATOM      2  C   UNL     1       8.189   8.192  18.313  0.00  0.00    +0.000 C 
ATOM      3  N   UNL     1       9.056   8.895  19.138  0.00  0.00    +0.000 N 
ATOM      4  H   UNL     1       9.716   8.339  19.677  0.00  0.00    +0.000 HD
ENDROOT
BRANCH   3   5
ATOM      5  C   UNL     1       9.259  10.295  19.114  0.00  0.00    +0.000 A 
ATOM      6  C   UNL     1       9.489  11.009  17.933  0.00  0.00    +0.000 A 
ATOM      7  C   UNL     1       9.752  12.383  17.959  0.00  0.00    +0.000 A 
ATOM      8  C   UNL     1       9.764  13.063  19.176  0.00  0.00    +0.000 A 
ATOM      9  C   UNL     1       9.512  12.370  20.364  0.00  0.00    +0.000 A 
ATOM     10  C   UNL     1       9.236  10.995  20.328  0.00  0.00    +0.000 A 
BRANCH   8  11
ATOM     11  S   UNL     1      10.238  14.785  19.213  0.00  0.00    +0.000 S 
ATOM     12  O   UNL     1      11.092  14.972  20.365  0.00  0.00    +0.000 OA
ATOM     13  O   UNL     1      10.690  15.139  17.884  0.00  0.00    +0.000 OA
BRANCH  11  14
ATOM     14  N   UNL     1       8.755  15.593  19.511  0.00  0.00    +0.000 NA
ATOM     15  C   UNL     1       8.639  16.319  20.794  0.00  0.00    +0.000 C 
ATOM     16  C   UNL     1       7.250  16.143  21.407  0.00  0.00    +0.000 C 
ATOM     17  C   UNL     1       6.192  17.093  20.856  0.00  0.00    +0.000 C 
ATOM     18  C   UNL     1       5.924  16.929  19.367  0.00  0.00    +0.000 C 
ATOM     19  C   UNL     1       7.131  17.294  18.513  0.00  0.00    +0.000 C 
ATOM     20  C   UNL     1       8.099  16.140  18.300  0.00  0.00    +0.000 C 
ENDBRANCH  11  14
ENDBRANCH   8  11
ENDBRANCH   3   5
BRANCH   2  21
ATOM     21  C   UNL     1       8.108   6.697  18.626  0.00  0.00    +0.000 C 
BRANCH  21  22
ATOM     22  N   UNL     1       7.038   6.050  17.901  0.00  0.00    +0.000 N 
ATOM     23  C   UNL     1       7.213   4.819  17.307  0.00  0.00    +0.000 C 
ATOM     24  O   UNL     1       8.269   4.199  17.295  0.00  0.00    +0.000 OA
ATOM     25  H   UNL     1       6.154   6.526  17.746  0.00  0.00    +0.000 HD
BRANCH  23  26
ATOM     26  C   UNL     1       5.950   4.237  16.628  0.00  0.00    +0.000 C 
ATOM     27  O   UNL     1       6.022   3.760  15.505  0.00  0.00    +0.000 OA
ATOM     28  N   UNL     1       4.822   4.342  17.403  0.00  0.00    +0.000 N 
ATOM     29  H   UNL     1       4.929   4.757  18.324  0.00  0.00    +0.000 HD
BRANCH  28  30
ATOM     30  C   UNL     1       3.516   3.893  16.983  0.00  0.00    +0.000 C 
BRANCH  30  31
ATOM     31  C   UNL     1       2.558   3.786  18.142  0.00  0.00    +0.000 A 
ATOM     32  C   UNL     1       2.432   4.827  19.076  0.00  0.00    +0.000 A 
ATOM     33  C   UNL     1       1.498   4.742  20.111  0.00  0.00    +0.000 A 
ATOM     34  C   UNL     1       0.681   3.620  20.227  0.00  0.00    +0.000 A 
ATOM     35  C   UNL     1       0.801   2.577  19.311  0.00  0.00    +0.000 A 
ATOM     36  C   UNL     1       1.732   2.659  18.275  0.00  0.00    +0.000 A 
ENDBRANCH  30  31
ENDBRANCH  28  30
ENDBRANCH  23  26
ENDBRANCH  21  22
ENDBRANCH   2  21
TORSDOF 8
ENDMDL
MODEL 5
REMARK VINA RESULT:      -8.6      7.450     11.281
REMARK  Name = 
REMARK  8 active torsions:
REMARK  status: ('A' for Active; 'I' for Inactive)
REMARK    1  A    between atoms: C_2  and  C_3
REMARK    2  A    between atoms: C_3  and  N_4
REMARK    3  A    between atoms: C_5  and  C_7
REMARK    4  A    between atoms: N_9  and  C_10
REMARK    5  A    between atoms: C_10  and  C_11
REMARK    6  A    between atoms: N_17  and  C_18
REMARK    7  A    between atoms: C_21  and  S_22
REMARK    8  A    between atoms: S_22  and  N_25
REMARK                            x       y       z     vdW  Elec       q    Type
REMARK                         _______ _______ _______ _____ _____    ______ ____
ROOT
ATOM      1  O   UNL     1       7.611   8.660  17.365  0.00  0.00    +0.000 OA
ATOM      2  C   UNL     1       8.195   8.187  18.340  0.00  0.00    +0.000 C 
ATOM      3  N   UNL     1       9.046   8.878  19.192  0.00  0.00    +0.000 N 
ATOM      4  H   UNL     1       9.687   8.313  19.743  0.00  0.00    +0.000 HD
ENDROOT
BRANCH   3   5
ATOM      5  C   UNL     1       9.258  10.277  19.185  0.00  0.00    +0.000 A 
ATOM      6  C   UNL     1       9.262  11.051  20.350  0.00  0.00    +0.000 A 
ATOM      7  C   UNL     1       9.409  12.441  20.293  0.00  0.00    +0.000 A 
ATOM      8  C   UNL     1       9.578  13.070  19.061  0.00  0.00    +0.000 A 
ATOM      9  C   UNL     1       9.602  12.310  17.887  0.00  0.00    +0.000 A 
ATOM     10  C   UNL     1       9.467  10.914  17.954  0.00  0.00    +0.000 A 
BRANCH   8  11
ATOM     11  S   UNL     1       9.624  14.854  18.986  0.00  0.00    +0.000 S 
ATOM     12  O   UNL     1      10.576  15.303  19.978  0.00  0.00    +0.000 OA
ATOM     13  O   UNL     1       9.766  15.227  17.594  0.00  0.00    +0.000 OA
BRANCH  11  14
ATOM     14  N   UNL     1       8.055  15.309  19.508  0.00  0.00    +0.000 NA
ATOM     15  C   UNL     1       6.914  14.738  18.762  0.00  0.00    +0.000 C 
ATOM     16  C   UNL     1       5.808  15.773  18.559  0.00  0.00    +0.000 C 
ATOM     17  C   UNL     1       4.863  15.928  19.747  0.00  0.00    +0.000 C 
ATOM     18  C   UNL     1       5.540  16.406  21.023  0.00  0.00    +0.000 C 
ATOM     19  C   UNL     1       6.543  15.397  21.565  0.00  0.00    +0.000 C 
ATOM     20  C   UNL     1       7.934  15.537  20.968  0.00  0.00    +0.000 C 
ENDBRANCH  11  14
ENDBRANCH   8  11
ENDBRANCH   3   5
BRANCH   2  21
ATOM     21  C   UNL     1       8.095   6.691  18.639  0.00  0.00    +0.000 C 
BRANCH  21  22
ATOM     22  N   UNL     1       6.989   6.073  17.944  0.00  0.00    +0.000 N 
ATOM     23  C   UNL     1       7.123   4.851  17.323  0.00  0.00    +0.000 C 
ATOM     24  O   UNL     1       8.168   4.216  17.259  0.00  0.00    +0.000 OA
ATOM     25  H   UNL     1       6.107   6.564  17.832  0.00  0.00    +0.000 HD
BRANCH  23  26
ATOM     26  C   UNL     1       5.826   4.299  16.682  0.00  0.00    +0.000 C 
ATOM     27  O   UNL     1       5.880   3.657  15.644  0.00  0.00    +0.000 OA
ATOM     28  N   UNL     1       4.694   4.626  17.386  0.00  0.00    +0.000 N 
ATOM     29  H   UNL     1       4.817   5.159  18.242  0.00  0.00    +0.000 HD
BRANCH  28  30
ATOM     30  C   UNL     1       3.361   4.247  16.981  0.00  0.00    +0.000 C 
BRANCH  30  31
ATOM     31  C   UNL     1       2.467   3.980  18.166  0.00  0.00    +0.000 A 
ATOM     32  C   UNL     1       1.847   2.732  18.337  0.00  0.00    +0.000 A 
ATOM     33  C   UNL     1       1.069   2.476  19.469  0.00  0.00    +0.000 A 
ATOM     34  C   UNL     1       0.900   3.461  20.440  0.00  0.00    +0.000 A 
ATOM     35  C   UNL     1       1.503   4.706  20.277  0.00  0.00    +0.000 A 
ATOM     36  C   UNL     1       2.283   4.964  19.149  0.00  0.00    +0.000 A 
ENDBRANCH  30  31
ENDBRANCH  28  30
ENDBRANCH  23  26
ENDBRANCH  21  22
ENDBRANCH   2  21
TORSDOF 8
ENDMDL
MODEL 6
REMARK VINA RESULT:      -8.4      3.694     11.002
REMARK  Name = 
REMARK  8 active torsions:
REMARK  status: ('A' for Active; 'I' for Inactive)
REMARK    1  A    between atoms: C_2  and  C_3
REMARK    2  A    between atoms: C_3  and  N_4
REMARK    3  A    between atoms: C_5  and  C_7
REMARK    4  A    between atoms: N_9  and  C_10
REMARK    5  A    between atoms: C_10  and  C_11
REMARK    6  A    between atoms: N_17  and  C_18
REMARK    7  A    between atoms: C_21  and  S_22
REMARK    8  A    between atoms: S_22  and  N_25
REMARK                            x       y       z     vdW  Elec       q    Type
REMARK                         _______ _______ _______ _____ _____    ______ ____
ROOT
ATOM      1  O   UNL     1       1.717   5.005  18.543  0.00  0.00    +0.000 OA
ATOM      2  C   UNL     1       2.744   5.317  19.144  0.00  0.00    +0.000 C 
ATOM      3  N   UNL     1       3.087   6.597  19.558  0.00  0.00    +0.000 N 
ATOM      4  H   UNL     1       4.073   6.759  19.750  0.00  0.00    +0.000 HD
ENDROOT
BRANCH   3   5
ATOM      5  C   UNL     1       2.243   7.732  19.505  0.00  0.00    +0.000 A 
ATOM      6  C   UNL     1       1.563   8.224  20.625  0.00  0.00    +0.000 A 
ATOM      7  C   UNL     1       0.685   9.308  20.516  0.00  0.00    +0.000 A 
ATOM      8  C   UNL     1       0.497   9.927  19.281  0.00  0.00    +0.000 A 
ATOM      9  C   UNL     1       1.188   9.464  18.156  0.00  0.00    +0.000 A 
ATOM     10  C   UNL     1       2.077   8.384  18.276  0.00  0.00    +0.000 A 
BRANCH   8  11
ATOM     11  S   UNL     1      -0.729  11.217  19.124  0.00  0.00    +0.000 S 
ATOM     12  O   UNL     1      -1.306  11.104  17.803  0.00  0.00    +0.000 OA
ATOM     13  O   UNL     1      -1.561  11.171  20.309  0.00  0.00    +0.000 OA
BRANCH  11  14
ATOM     14  N   UNL     1       0.205  12.654  19.177  0.00  0.00    +0.000 NA
ATOM     15  C   UNL     1       1.427  12.685  18.346  0.00  0.00    +0.000 C 
ATOM     16  C   UNL     1       2.581  13.369  19.078  0.00  0.00    +0.000 C 
ATOM     17  C   UNL     1       2.568  14.892  18.991  0.00  0.00    +0.000 C 
ATOM     18  C   UNL     1       1.342  15.542  19.615  0.00  0.00    +0.000 C 
ATOM     19  C   UNL     1       0.056  15.187  18.880  0.00  0.00    +0.000 C 
ATOM     20  C   UNL     1      -0.585  13.895  19.361  0.00  0.00    +0.000 C 
ENDBRANCH  11  14
ENDBRANCH   8  11
ENDBRANCH   3   5
BRANCH   2  21
ATOM     21  C   UNL     1       3.826   4.268  19.405  0.00  0.00    +0.000 C 
BRANCH  21  22
ATOM     22  N   UNL     1       4.873   4.313  18.410  0.00  0.00    +0.000 N 
ATOM     23  C   UNL     1       6.138   4.766  18.717  0.00  0.00    +0.000 C 
ATOM     24  O   UNL     1       6.471   5.204  19.810  0.00  0.00    +0.000 OA
ATOM     25  H   UNL     1       4.678   4.084  17.439  0.00  0.00    +0.000 HD
BRANCH  23  26
ATOM     26  C   UNL     1       7.159   4.686  17.556  0.00  0.00    +0.000 C 
ATOM     27  O   UNL     1       8.242   4.147  17.728  0.00  0.00    +0.000 OA
ATOM     28  N   UNL     1       6.711   5.276  16.400  0.00  0.00    +0.000 N 
ATOM     29  H   UNL     1       5.776   5.674  16.414  0.00  0.00    +0.000 HD
BRANCH  28  30
ATOM     30  C   UNL     1       7.487   5.351  15.186  0.00  0.00    +0.000 C 
BRANCH  30  31
ATOM     31  C   UNL     1       6.836   4.599  14.053  0.00  0.00    +0.000 A 
ATOM     32  C   UNL     1       5.532   4.093  14.177  0.00  0.00    +0.000 A 
ATOM     33  C   UNL     1       4.916   3.450  13.100  0.00  0.00    +0.000 A 
ATOM     34  C   UNL     1       5.593   3.304  11.891  0.00  0.00    +0.000 A 
ATOM     35  C   UNL     1       6.889   3.795  11.759  0.00  0.00    +0.000 A 
ATOM     36  C   UNL     1       7.507   4.439  12.832  0.00  0.00    +0.000 A 
ENDBRANCH  30  31
ENDBRANCH  28  30
ENDBRANCH  23  26
ENDBRANCH  21  22
ENDBRANCH   2  21
TORSDOF 8
ENDMDL
MODEL 7
REMARK VINA RESULT:      -8.3      0.752      1.289
REMARK  Name = 
REMARK  8 active torsions:
REMARK  status: ('A' for Active; 'I' for Inactive)
REMARK    1  A    between atoms: C_2  and  C_3
REMARK    2  A    between atoms: C_3  and  N_4
REMARK    3  A    between atoms: C_5  and  C_7
REMARK    4  A    between atoms: N_9  and  C_10
REMARK    5  A    between atoms: C_10  and  C_11
REMARK    6  A    between atoms: N_17  and  C_18
REMARK    7  A    between atoms: C_21  and  S_22
REMARK    8  A    between atoms: S_22  and  N_25
REMARK                            x       y       z     vdW  Elec       q    Type
REMARK                         _______ _______ _______ _____ _____    ______ ____
ROOT
ATOM      1  O   UNL     1      -0.023   9.502  19.918  0.00  0.00    +0.000 OA
ATOM      2  C   UNL     1       0.540   9.384  21.006  0.00  0.00    +0.000 C 
ATOM      3  N   UNL     1       1.266   8.279  21.430  0.00  0.00    +0.000 N 
ATOM      4  H   UNL     1       1.401   8.187  22.435  0.00  0.00    +0.000 HD
ENDROOT
BRANCH   3   5
ATOM      5  C   UNL     1       1.621   7.170  20.626  0.00  0.00    +0.000 A 
ATOM      6  C   UNL     1       1.363   5.847  21.001  0.00  0.00    +0.000 A 
ATOM      7  C   UNL     1       1.789   4.776  20.208  0.00  0.00    +0.000 A 
ATOM      8  C   UNL     1       2.463   5.023  19.013  0.00  0.00    +0.000 A 
ATOM      9  C   UNL     1       2.708   6.341  18.610  0.00  0.00    +0.000 A 
ATOM     10  C   UNL     1       2.265   7.409  19.404  0.00  0.00    +0.000 A 
BRANCH   8  11
ATOM     11  S   UNL     1       3.126   3.652  18.079  0.00  0.00    +0.000 S 
ATOM     12  O   UNL     1       3.477   2.616  19.026  0.00  0.00    +0.000 OA
ATOM     13  O   UNL     1       2.211   3.387  16.988  0.00  0.00    +0.000 OA
BRANCH  11  14
ATOM     14  N   UNL     1       4.576   4.289  17.423  0.00  0.00    +0.000 NA
ATOM     15  C   UNL     1       5.714   4.451  18.354  0.00  0.00    +0.000 C 
ATOM     16  C   UNL     1       6.469   5.752  18.088  0.00  0.00    +0.000 C 
ATOM     17  C   UNL     1       7.494   5.668  16.962  0.00  0.00    +0.000 C 
ATOM     18  C   UNL     1       6.899   5.342  15.601  0.00  0.00    +0.000 C 
ATOM     19  C   UNL     1       6.281   3.951  15.551  0.00  0.00    +0.000 C 
ATOM     20  C   UNL     1       4.833   3.909  16.014  0.00  0.00    +0.000 C 
ENDBRANCH  11  14
ENDBRANCH   8  11
ENDBRANCH   3   5
BRANCH   2  21
ATOM     21  C   UNL     1       0.386  10.472  22.069  0.00  0.00    +0.000 C 
BRANCH  21  22
ATOM     22  N   UNL     1      -0.996  10.849  22.260  0.00  0.00    +0.000 N 
ATOM     23  C   UNL     1      -1.340  12.057  22.827  0.00  0.00    +0.000 C 
ATOM     24  O   UNL     1      -0.536  12.877  23.254  0.00  0.00    +0.000 OA
ATOM     25  H   UNL     1      -1.747  10.197  22.051  0.00  0.00    +0.000 HD
BRANCH  23  26
ATOM     26  C   UNL     1      -2.861  12.335  22.898  0.00  0.00    +0.000 C 
ATOM     27  O   UNL     1      -3.518  11.914  23.839  0.00  0.00    +0.000 OA
ATOM     28  N   UNL     1      -3.331  13.053  21.827  0.00  0.00    +0.000 N 
ATOM     29  H   UNL     1      -2.653  13.340  21.128  0.00  0.00    +0.000 HD
BRANCH  28  30
ATOM     30  C   UNL     1      -4.716  13.417  21.652  0.00  0.00    +0.000 C 
BRANCH  30  31
ATOM     31  C   UNL     1      -5.415  12.519  20.662  0.00  0.00    +0.000 A 
ATOM     32  C   UNL     1      -4.829  12.216  19.423  0.00  0.00    +0.000 A 
ATOM     33  C   UNL     1      -5.457  11.336  18.538  0.00  0.00    +0.000 A 
ATOM     34  C   UNL     1      -6.674  10.750  18.880  0.00  0.00    +0.000 A 
ATOM     35  C   UNL     1      -7.269  11.049  20.103  0.00  0.00    +0.000 A 
ATOM     36  C   UNL     1      -6.644  11.927  20.990  0.00  0.00    +0.000 A 
ENDBRANCH  30  31
ENDBRANCH  28  30
ENDBRANCH  23  26
ENDBRANCH  21  22
ENDBRANCH   2  21
TORSDOF 8
ENDMDL
MODEL 8
REMARK VINA RESULT:      -8.3      2.966      4.179
REMARK  Name = 
REMARK  8 active torsions:
REMARK  status: ('A' for Active; 'I' for Inactive)
REMARK    1  A    between atoms: C_2  and  C_3
REMARK    2  A    between atoms: C_3  and  N_4
REMARK    3  A    between atoms: C_5  and  C_7
REMARK    4  A    between atoms: N_9  and  C_10
REMARK    5  A    between atoms: C_10  and  C_11
REMARK    6  A    between atoms: N_17  and  C_18
REMARK    7  A    between atoms: C_21  and  S_22
REMARK    8  A    between atoms: S_22  and  N_25
REMARK                            x       y       z     vdW  Elec       q    Type
REMARK                         _______ _______ _______ _____ _____    ______ ____
ROOT
ATOM      1  O   UNL     1      -0.806   8.084  21.523  0.00  0.00    +0.000 OA
ATOM      2  C   UNL     1       0.262   8.662  21.720  0.00  0.00    +0.000 C 
ATOM      3  N   UNL     1       1.519   8.192  21.367  0.00  0.00    +0.000 N 
ATOM      4  H   UNL     1       2.309   8.604  21.858  0.00  0.00    +0.000 HD
ENDROOT
BRANCH   3   5
ATOM      5  C   UNL     1       1.775   7.046  20.575  0.00  0.00    +0.000 A 
ATOM      6  C   UNL     1       1.614   5.742  21.054  0.00  0.00    +0.000 A 
ATOM      7  C   UNL     1       1.943   4.636  20.262  0.00  0.00    +0.000 A 
ATOM      8  C   UNL     1       2.417   4.829  18.965  0.00  0.00    +0.000 A 
ATOM      9  C   UNL     1       2.561   6.127  18.461  0.00  0.00    +0.000 A 
ATOM     10  C   UNL     1       2.216   7.230  19.258  0.00  0.00    +0.000 A 
BRANCH   8  11
ATOM     11  S   UNL     1       2.965   3.421  18.013  0.00  0.00    +0.000 S 
ATOM     12  O   UNL     1       3.038   2.293  18.915  0.00  0.00    +0.000 OA
ATOM     13  O   UNL     1       2.156   3.367  16.813  0.00  0.00    +0.000 OA
BRANCH  11  14
ATOM     14  N   UNL     1       4.564   3.850  17.564  0.00  0.00    +0.000 NA
ATOM     15  C   UNL     1       4.742   4.445  16.223  0.00  0.00    +0.000 C 
ATOM     16  C   UNL     1       6.007   3.918  15.545  0.00  0.00    +0.000 C 
ATOM     17  C   UNL     1       7.288   4.635  15.956  0.00  0.00    +0.000 C 
ATOM     18  C   UNL     1       7.625   4.511  17.435  0.00  0.00    +0.000 C 
ATOM     19  C   UNL     1       6.597   5.196  18.327  0.00  0.00    +0.000 C 
ATOM     20  C   UNL     1       5.415   4.309  18.687  0.00  0.00    +0.000 C 
ENDBRANCH  11  14
ENDBRANCH   8  11
ENDBRANCH   3   5
BRANCH   2  21
ATOM     21  C   UNL     1       0.287   9.974  22.505  0.00  0.00    +0.000 C 
BRANCH  21  22
ATOM     22  N   UNL     1      -0.351  11.050  21.781  0.00  0.00    +0.000 N 
ATOM     23  C   UNL     1       0.141  11.494  20.573  0.00  0.00    +0.000 C 
ATOM     24  O   UNL     1       1.157  11.068  20.039  0.00  0.00    +0.000 OA
ATOM     25  H   UNL     1      -1.133  11.557  22.186  0.00  0.00    +0.000 HD
BRANCH  23  26
ATOM     26  C   UNL     1      -0.697  12.607  19.897  0.00  0.00    +0.000 C 
ATOM     27  O   UNL     1      -1.452  12.332  18.977  0.00  0.00    +0.000 OA
ATOM     28  N   UNL     1      -0.472  13.852  20.430  0.00  0.00    +0.000 N 
ATOM     29  H   UNL     1       0.182  13.914  21.204  0.00  0.00    +0.000 HD
BRANCH  28  30
ATOM     30  C   UNL     1      -1.116  15.053  19.957  0.00  0.00    +0.000 C 
BRANCH  30  31
ATOM     31  C   UNL     1      -0.190  15.892  19.112  0.00  0.00    +0.000 A 
ATOM     32  C   UNL     1      -0.672  16.995  18.388  0.00  0.00    +0.000 A 
ATOM     33  C   UNL     1       0.204  17.801  17.657  0.00  0.00    +0.000 A 
ATOM     34  C   UNL     1       1.568  17.516  17.639  0.00  0.00    +0.000 A 
ATOM     35  C   UNL     1       2.057  16.420  18.346  0.00  0.00    +0.000 A 
ATOM     36  C   UNL     1       1.185  15.614  19.080  0.00  0.00    +0.000 A 
ENDBRANCH  30  31
ENDBRANCH  28  30
ENDBRANCH  23  26
ENDBRANCH  21  22
ENDBRANCH   2  21
TORSDOF 8
ENDMDL
MODEL 9
REMARK VINA RESULT:      -8.2      3.188      4.093
REMARK  Name = 
REMARK  8 active torsions:
REMARK  status: ('A' for Active; 'I' for Inactive)
REMARK    1  A    between atoms: C_2  and  C_3
REMARK    2  A    between atoms: C_3  and  N_4
REMARK    3  A    between atoms: C_5  and  C_7
REMARK    4  A    between atoms: N_9  and  C_10
REMARK    5  A    between atoms: C_10  and  C_11
REMARK    6  A    between atoms: N_17  and  C_18
REMARK    7  A    between atoms: C_21  and  S_22
REMARK    8  A    between atoms: S_22  and  N_25
REMARK                            x       y       z     vdW  Elec       q    Type
REMARK                         _______ _______ _______ _____ _____    ______ ____
ROOT
ATOM      1  O   UNL     1      -0.755   8.139  21.747  0.00  0.00    +0.000 OA
ATOM      2  C   UNL     1       0.166   8.924  21.520  0.00  0.00    +0.000 C 
ATOM      3  N   UNL     1       1.363   8.613  20.890  0.00  0.00    +0.000 N 
ATOM      4  H   UNL     1       2.136   9.255  21.050  0.00  0.00    +0.000 HD
ENDROOT
BRANCH   3   5
ATOM      5  C   UNL     1       1.663   7.384  20.256  0.00  0.00    +0.000 A 
ATOM      6  C   UNL     1       1.523   6.146  20.895  0.00  0.00    +0.000 A 
ATOM      7  C   UNL     1       1.894   4.958  20.256  0.00  0.00    +0.000 A 
ATOM      8  C   UNL     1       2.392   4.998  18.954  0.00  0.00    +0.000 A 
ATOM      9  C   UNL     1       2.516   6.224  18.291  0.00  0.00    +0.000 A 
ATOM     10  C   UNL     1       2.128   7.409  18.934  0.00  0.00    +0.000 A 
BRANCH   8  11
ATOM     11  S   UNL     1       2.993   3.495  18.199  0.00  0.00    +0.000 S 
ATOM     12  O   UNL     1       3.089   2.497  19.242  0.00  0.00    +0.000 OA
ATOM     13  O   UNL     1       2.200   3.259  17.011  0.00  0.00    +0.000 OA
BRANCH  11  14
ATOM     14  N   UNL     1       4.584   3.910  17.711  0.00  0.00    +0.000 NA
ATOM     15  C   UNL     1       4.743   4.440  16.340  0.00  0.00    +0.000 C 
ATOM     16  C   UNL     1       6.003   3.889  15.674  0.00  0.00    +0.000 C 
ATOM     17  C   UNL     1       7.284   4.633  16.034  0.00  0.00    +0.000 C 
ATOM     18  C   UNL     1       7.638   4.584  17.513  0.00  0.00    +0.000 C 
ATOM     19  C   UNL     1       6.617   5.305  18.382  0.00  0.00    +0.000 C 
ATOM     20  C   UNL     1       5.445   4.430  18.800  0.00  0.00    +0.000 C 
ENDBRANCH  11  14
ENDBRANCH   8  11
ENDBRANCH   3   5
BRANCH   2  21
ATOM     21  C   UNL     1       0.090  10.361  22.037  0.00  0.00    +0.000 C 
BRANCH  21  22
ATOM     22  N   UNL     1       0.698  11.298  21.120  0.00  0.00    +0.000 N 
ATOM     23  C   UNL     1      -0.048  11.958  20.168  0.00  0.00    +0.000 C 
ATOM     24  O   UNL     1      -1.246  11.784  19.982  0.00  0.00    +0.000 OA
ATOM     25  H   UNL     1       1.704  11.433  21.106  0.00  0.00    +0.000 HD
BRANCH  23  26
ATOM     26  C   UNL     1       0.743  12.976  19.311  0.00  0.00    +0.000 C 
ATOM     27  O   UNL     1       1.680  12.600  18.622  0.00  0.00    +0.000 OA
ATOM     28  N   UNL     1       0.284  14.264  19.439  0.00  0.00    +0.000 N 
ATOM     29  H   UNL     1      -0.516  14.413  20.047  0.00  0.00    +0.000 HD
BRANCH  28  30
ATOM     30  C   UNL     1       0.870  15.394  18.760  0.00  0.00    +0.000 C 
BRANCH  30  31
ATOM     31  C   UNL     1      -0.099  16.544  18.640  0.00  0.00    +0.000 A 
ATOM     32  C   UNL     1       0.035  17.499  17.620  0.00  0.00    +0.000 A 
ATOM     33  C   UNL     1      -0.903  18.525  17.482  0.00  0.00    +0.000 A 
ATOM     34  C   UNL     1      -1.982  18.610  18.360  0.00  0.00    +0.000 A 
ATOM     35  C   UNL     1      -2.121  17.673  19.381  0.00  0.00    +0.000 A 
ATOM     36  C   UNL     1      -1.187  16.645  19.520  0.00  0.00    +0.000 A 
ENDBRANCH  30  31
ENDBRANCH  28  30
ENDBRANCH  23  26
ENDBRANCH  21  22
ENDBRANCH   2  21
TORSDOF 8
ENDMDL
