MODEL 1
REMARK VINA RESULT:      -7.7      0.000      0.000
REMARK  Name = 
REMARK  5 active torsions:
REMARK  status: ('A' for Active; 'I' for Inactive)
REMARK    1  A    between atoms: N_5  and  C_6
REMARK    2  A    between atoms: C_10  and  C_11
REMARK    3  A    between atoms: C_11  and  C_12
REMARK    4  A    between atoms: C_12  and  C_13
REMARK    5  A    between atoms: N_17  and  C_18
REMARK                            x       y       z     vdW  Elec       q    Type
REMARK                         _______ _______ _______ _____ _____    ______ ____
ROOT
ATOM      1  C   UNL     1       3.086   4.581  18.121  0.00  0.00    +0.000 A 
ATOM      2  C   UNL     1       2.802   5.926  18.379  0.00  0.00    +0.000 A 
ATOM      3  C   UNL     1       3.467   6.949  17.701  0.00  0.00    +0.000 A 
ATOM      4  C   UNL     1       4.440   6.648  16.745  0.00  0.00    +0.000 A 
ATOM      5  C   UNL     1       4.800   5.324  16.458  0.00  0.00    +0.000 A 
ATOM      6  C   UNL     1       4.098   4.326  17.174  0.00  0.00    +0.000 A 
ENDROOT
BRANCH   1  11
ATOM      7  C   UNL     1       1.541   2.490  22.082  0.00  0.00    +0.000 C 
ATOM      8  C   UNL     1       1.541   2.665  20.760  0.00  0.00    +0.000 C 
ATOM      9  C   UNL     1       0.377   2.792  19.831  0.00  0.00    +0.000 C 
ATOM     10  C   UNL     1       0.942   3.490  18.584  0.00  0.00    +0.000 C 
ATOM     11  N   UNL     1       2.410   3.509  18.745  0.00  0.00    +0.000 N 
ATOM     12  C   UNL     1       2.759   2.919  19.942  0.00  0.00    +0.000 C 
ATOM     13  N   UNL     1       3.932   2.544  20.328  0.00  0.00    +0.000 NA
ATOM     14  H   UNL     1       4.583   2.732  19.562  0.00  0.00    +0.000 HD
ENDBRANCH   1  11
BRANCH   5  15
ATOM     15  C   UNL     1       5.993   4.912  15.476  0.00  0.00    +0.000 C 
ATOM     16  C   UNL     1       5.674   5.219  13.978  0.00  0.00    +0.000 C 
ATOM     17  O   UNL     1       6.300   3.969  13.578  0.00  0.00    +0.000 OA
ATOM     18  C   UNL     1       6.093   3.467  14.926  0.00  0.00    +0.000 C 
BRANCH  15  19
ATOM     19  C   UNL     1       7.353   5.540  15.845  0.00  0.00    +0.000 C 
BRANCH  19  20
ATOM     20  C   UNL     1       7.707   5.617  17.290  0.00  0.00    +0.000 A 
ATOM     21  N   UNL     1       7.808   4.586  18.107  0.00  0.00    +0.000 NA
ATOM     22  N   UNL     1       7.944   5.057  19.391  0.00  0.00    +0.000 NA
ATOM     23  C   UNL     1       7.926   6.365  19.336  0.00  0.00    +0.000 A 
ATOM     24  N   UNL     1       7.811   6.766  18.040  0.00  0.00    +0.000 N 
ATOM     25  C   UNL     1       7.768   8.135  17.603  0.00  0.00    +0.000 C 
ENDBRANCH  19  20
ENDBRANCH  15  19
ENDBRANCH   5  15
TORSDOF 4
ENDMDL
MODEL 2
REMARK VINA RESULT:      -7.6      2.295      3.779
REMARK  Name = 
REMARK  5 active torsions:
REMARK  status: ('A' for Active; 'I' for Inactive)
REMARK    1  A    between atoms: N_5  and  C_6
REMARK    2  A    between atoms: C_10  and  C_11
REMARK    3  A    between atoms: C_11  and  C_12
REMARK    4  A    between atoms: C_12  and  C_13
REMARK    5  A    between atoms: N_17  and  C_18
REMARK                            x       y       z     vdW  Elec       q    Type
REMARK                         _______ _______ _______ _____ _____    ______ ____
ROOT
ATOM      1  C   UNL     1       2.728   6.094  18.423  0.00  0.00    +0.000 A 
ATOM      2  C   UNL     1       1.820   5.033  18.498  0.00  0.00    +0.000 A 
ATOM      3  C   UNL     1       2.099   3.798  17.911  0.00  0.00    +0.000 A 
ATOM      4  C   UNL     1       3.301   3.596  17.228  0.00  0.00    +0.000 A 
ATOM      5  C   UNL     1       4.243   4.623  17.084  0.00  0.00    +0.000 A 
ATOM      6  C   UNL     1       3.911   5.854  17.696  0.00  0.00    +0.000 A 
ENDROOT
BRANCH   1  11
ATOM      7  C   UNL     1       0.128  10.032  18.859  0.00  0.00    +0.000 C 
ATOM      8  C   UNL     1       1.048   9.167  19.292  0.00  0.00    +0.000 C 
ATOM      9  C   UNL     1       1.214   8.581  20.656  0.00  0.00    +0.000 C 
ATOM     10  C   UNL     1       2.045   7.307  20.440  0.00  0.00    +0.000 C 
ATOM     11  N   UNL     1       2.514   7.347  19.040  0.00  0.00    +0.000 N 
ATOM     12  C   UNL     1       2.042   8.485  18.418  0.00  0.00    +0.000 C 
ATOM     13  N   UNL     1       2.417   8.984  17.290  0.00  0.00    +0.000 NA
ATOM     14  H   UNL     1       3.173   8.397  16.928  0.00  0.00    +0.000 HD
ENDBRANCH   1  11
BRANCH   5  15
ATOM     15  C   UNL     1       5.575   4.503  16.206  0.00  0.00    +0.000 C 
ATOM     16  C   UNL     1       5.596   5.499  15.003  0.00  0.00    +0.000 C 
ATOM     17  O   UNL     1       6.186   4.477  14.153  0.00  0.00    +0.000 OA
ATOM     18  C   UNL     1       5.667   3.465  15.059  0.00  0.00    +0.000 C 
BRANCH  15  19
ATOM     19  C   UNL     1       6.877   4.660  17.018  0.00  0.00    +0.000 C 
BRANCH  19  20
ATOM     20  C   UNL     1       7.265   6.036  17.438  0.00  0.00    +0.000 A 
ATOM     21  N   UNL     1       7.334   7.086  16.642  0.00  0.00    +0.000 NA
ATOM     22  N   UNL     1       7.919   8.120  17.332  0.00  0.00    +0.000 NA
ATOM     23  C   UNL     1       8.195   7.686  18.536  0.00  0.00    +0.000 A 
ATOM     24  N   UNL     1       7.777   6.396  18.663  0.00  0.00    +0.000 N 
ATOM     25  C   UNL     1       7.909   5.602  19.855  0.00  0.00    +0.000 C 
ENDBRANCH  19  20
ENDBRANCH  15  19
ENDBRANCH   5  15
TORSDOF 4
ENDMDL
MODEL 3
REMARK VINA RESULT:      -7.5      2.059      3.293
REMARK  Name = 
REMARK  5 active torsions:
REMARK  status: ('A' for Active; 'I' for Inactive)
REMARK    1  A    between atoms: N_5  and  C_6
REMARK    2  A    between atoms: C_10  and  C_11
REMARK    3  A    between atoms: C_11  and  C_12
REMARK    4  A    between atoms: C_12  and  C_13
REMARK    5  A    between atoms: N_17  and  C_18
REMARK                            x       y       z     vdW  Elec       q    Type
REMARK                         _______ _______ _______ _____ _____    ______ ____
ROOT
ATOM      1  C   UNL     1       3.168   4.916  18.401  0.00  0.00    +0.000 A 
ATOM      2  C   UNL     1       2.459   6.065  18.039  0.00  0.00    +0.000 A 
ATOM      3  C   UNL     1       3.114   7.200  17.557  0.00  0.00    +0.000 A 
ATOM      4  C   UNL     1       4.504   7.210  17.427  0.00  0.00    +0.000 A 
ATOM      5  C   UNL     1       5.283   6.106  17.800  0.00  0.00    +0.000 A 
ATOM      6  C   UNL     1       4.571   4.985  18.285  0.00  0.00    +0.000 A 
ENDROOT
BRANCH   1  11
ATOM      7  C   UNL     1       1.365   2.349  21.953  0.00  0.00    +0.000 C 
ATOM      8  C   UNL     1       1.524   2.630  20.658  0.00  0.00    +0.000 C 
ATOM      9  C   UNL     1       0.491   2.701  19.581  0.00  0.00    +0.000 C 
ATOM     10  C   UNL     1       1.131   3.557  18.476  0.00  0.00    +0.000 C 
ATOM     11  N   UNL     1       2.550   3.728  18.850  0.00  0.00    +0.000 N 
ATOM     12  C   UNL     1       2.802   3.085  20.044  0.00  0.00    +0.000 C 
ATOM     13  N   UNL     1       3.948   2.814  20.571  0.00  0.00    +0.000 NA
ATOM     14  H   UNL     1       4.670   3.135  19.921  0.00  0.00    +0.000 HD
ENDBRANCH   1  11
BRANCH   5  15
ATOM     15  C   UNL     1       6.883   6.097  17.803  0.00  0.00    +0.000 C 
ATOM     16  C   UNL     1       7.484   6.204  19.240  0.00  0.00    +0.000 C 
ATOM     17  O   UNL     1       8.525   7.093  18.750  0.00  0.00    +0.000 OA
ATOM     18  C   UNL     1       7.676   7.415  17.615  0.00  0.00    +0.000 C 
BRANCH  15  19
ATOM     19  C   UNL     1       7.504   4.882  17.082  0.00  0.00    +0.000 C 
BRANCH  19  20
ATOM     20  C   UNL     1       7.233   4.735  15.624  0.00  0.00    +0.000 A 
ATOM     21  N   UNL     1       7.780   5.460  14.668  0.00  0.00    +0.000 NA
ATOM     22  N   UNL     1       7.141   5.180  13.485  0.00  0.00    +0.000 NA
ATOM     23  C   UNL     1       6.216   4.288  13.737  0.00  0.00    +0.000 A 
ATOM     24  N   UNL     1       6.253   3.953  15.056  0.00  0.00    +0.000 N 
ATOM     25  C   UNL     1       5.386   2.994  15.686  0.00  0.00    +0.000 C 
ENDBRANCH  19  20
ENDBRANCH  15  19
ENDBRANCH   5  15
TORSDOF 4
ENDMDL
MODEL 4
REMARK VINA RESULT:      -7.5      4.388      6.495
REMARK  Name = 
REMARK  5 active torsions:
REMARK  status: ('A' for Active; 'I' for Inactive)
REMARK    1  A    between atoms: N_5  and  C_6
REMARK    2  A    between atoms: C_10  and  C_11
REMARK    3  A    between atoms: C_11  and  C_12
REMARK    4  A    between atoms: C_12  and  C_13
REMARK    5  A    between atoms: N_17  and  C_18
REMARK                            x       y       z     vdW  Elec       q    Type
REMARK                         _______ _______ _______ _____ _____    ______ ____
ROOT
ATOM      1  C   UNL     1       1.394   9.139  20.010  0.00  0.00    +0.000 A 
ATOM      2  C   UNL     1       1.270   9.984  18.903  0.00  0.00    +0.000 A 
ATOM      3  C   UNL     1       1.642   9.563  17.625  0.00  0.00    +0.000 A 
ATOM      4  C   UNL     1       2.152   8.279  17.424  0.00  0.00    +0.000 A 
ATOM      5  C   UNL     1       2.334   7.389  18.492  0.00  0.00    +0.000 A 
ATOM      6  C   UNL     1       1.943   7.865  19.765  0.00  0.00    +0.000 A 
ENDROOT
BRANCH   1  11
ATOM      7  C   UNL     1      -1.445  11.660  22.845  0.00  0.00    +0.000 C 
ATOM      8  C   UNL     1      -0.593  10.661  22.609  0.00  0.00    +0.000 C 
ATOM      9  C   UNL     1      -0.686   9.231  23.031  0.00  0.00    +0.000 C 
ATOM     10  C   UNL     1       0.238   8.473  22.065  0.00  0.00    +0.000 C 
ATOM     11  N   UNL     1       0.988   9.500  21.314  0.00  0.00    +0.000 N 
ATOM     12  C   UNL     1       0.598  10.759  21.721  0.00  0.00    +0.000 C 
ATOM     13  N   UNL     1       1.175  11.886  21.472  0.00  0.00    +0.000 NA
ATOM     14  H   UNL     1       2.020  11.687  20.931  0.00  0.00    +0.000 HD
ENDBRANCH   1  11
BRANCH   5  15
ATOM     15  C   UNL     1       3.033   5.956  18.355  0.00  0.00    +0.000 C 
ATOM     16  C   UNL     1       3.929   5.603  19.584  0.00  0.00    +0.000 C 
ATOM     17  O   UNL     1       4.926   5.018  18.702  0.00  0.00    +0.000 OA
ATOM     18  C   UNL     1       4.383   5.809  17.610  0.00  0.00    +0.000 C 
BRANCH  15  19
ATOM     19  C   UNL     1       2.044   4.799  18.099  0.00  0.00    +0.000 C 
BRANCH  19  20
ATOM     20  C   UNL     1       1.739   3.889  19.239  0.00  0.00    +0.000 A 
ATOM     21  N   UNL     1       1.008   4.203  20.291  0.00  0.00    +0.000 NA
ATOM     22  N   UNL     1       1.118   3.194  21.217  0.00  0.00    +0.000 NA
ATOM     23  C   UNL     1       1.912   2.282  20.715  0.00  0.00    +0.000 A 
ATOM     24  N   UNL     1       2.303   2.655  19.466  0.00  0.00    +0.000 N 
ATOM     25  C   UNL     1       3.171   1.889  18.612  0.00  0.00    +0.000 C 
ENDBRANCH  19  20
ENDBRANCH  15  19
ENDBRANCH   5  15
TORSDOF 4
ENDMDL
MODEL 5
REMARK VINA RESULT:      -7.4      3.156      4.910
REMARK  Name = 
REMARK  5 active torsions:
REMARK  status: ('A' for Active; 'I' for Inactive)
REMARK    1  A    between atoms: N_5  and  C_6
REMARK    2  A    between atoms: C_10  and  C_11
REMARK    3  A    between atoms: C_11  and  C_12
REMARK    4  A    between atoms: C_12  and  C_13
REMARK    5  A    between atoms: N_17  and  C_18
REMARK                            x       y       z     vdW  Elec       q    Type
REMARK                         _______ _______ _______ _____ _____    ______ ____
ROOT
ATOM      1  C   UNL     1       2.619   6.570  18.416  0.00  0.00    +0.000 A 
ATOM      2  C   UNL     1       1.692   5.547  18.192  0.00  0.00    +0.000 A 
ATOM      3  C   UNL     1       2.075   4.338  17.609  0.00  0.00    +0.000 A 
ATOM      4  C   UNL     1       3.403   4.124  17.232  0.00  0.00    +0.000 A 
ATOM      5  C   UNL     1       4.379   5.116  17.396  0.00  0.00    +0.000 A 
ATOM      6  C   UNL     1       3.939   6.322  17.990  0.00  0.00    +0.000 A 
ENDROOT
BRANCH   1  11
ATOM      7  C   UNL     1      -0.314  10.263  18.872  0.00  0.00    +0.000 C 
ATOM      8  C   UNL     1       0.673   9.476  19.303  0.00  0.00    +0.000 C 
ATOM      9  C   UNL     1       0.878   8.890  20.663  0.00  0.00    +0.000 C 
ATOM     10  C   UNL     1       1.818   7.695  20.440  0.00  0.00    +0.000 C 
ATOM     11  N   UNL     1       2.293   7.792  19.045  0.00  0.00    +0.000 N 
ATOM     12  C   UNL     1       1.730   8.892  18.432  0.00  0.00    +0.000 C 
ATOM     13  N   UNL     1       2.069   9.435  17.312  0.00  0.00    +0.000 NA
ATOM     14  H   UNL     1       2.876   8.920  16.951  0.00  0.00    +0.000 HD
ENDBRANCH   1  11
BRANCH   5  15
ATOM     15  C   UNL     1       5.884   4.989  16.869  0.00  0.00    +0.000 C 
ATOM     16  C   UNL     1       6.888   4.595  17.998  0.00  0.00    +0.000 C 
ATOM     17  O   UNL     1       7.876   5.514  17.456  0.00  0.00    +0.000 OA
ATOM     18  C   UNL     1       6.799   6.237  16.798  0.00  0.00    +0.000 C 
BRANCH  15  19
ATOM     19  C   UNL     1       6.051   4.019  15.680  0.00  0.00    +0.000 C 
BRANCH  19  20
ATOM     20  C   UNL     1       6.846   4.492  14.512  0.00  0.00    +0.000 A 
ATOM     21  N   UNL     1       7.823   5.376  14.561  0.00  0.00    +0.000 NA
ATOM     22  N   UNL     1       8.176   5.712  13.276  0.00  0.00    +0.000 NA
ATOM     23  C   UNL     1       7.410   5.026  12.465  0.00  0.00    +0.000 A 
ATOM     24  N   UNL     1       6.581   4.224  13.189  0.00  0.00    +0.000 N 
ATOM     25  C   UNL     1       5.609   3.325  12.627  0.00  0.00    +0.000 C 
ENDBRANCH  19  20
ENDBRANCH  15  19
ENDBRANCH   5  15
TORSDOF 4
ENDMDL
MODEL 6
REMARK VINA RESULT:      -7.4      4.423      6.370
REMARK  Name = 
REMARK  5 active torsions:
REMARK  status: ('A' for Active; 'I' for Inactive)
REMARK    1  A    between atoms: N_5  and  C_6
REMARK    2  A    between atoms: C_10  and  C_11
REMARK    3  A    between atoms: C_11  and  C_12
REMARK    4  A    between atoms: C_12  and  C_13
REMARK    5  A    between atoms: N_17  and  C_18
REMARK                            x       y       z     vdW  Elec       q    Type
REMARK                         _______ _______ _______ _____ _____    ______ ____
ROOT
ATOM      1  C   UNL     1       1.410   9.201  20.060  0.00  0.00    +0.000 A 
ATOM      2  C   UNL     1       1.383  10.013  18.921  0.00  0.00    +0.000 A 
ATOM      3  C   UNL     1       1.764   9.521  17.671  0.00  0.00    +0.000 A 
ATOM      4  C   UNL     1       2.186   8.197  17.532  0.00  0.00    +0.000 A 
ATOM      5  C   UNL     1       2.270   7.335  18.634  0.00  0.00    +0.000 A 
ATOM      6  C   UNL     1       1.874   7.884  19.876  0.00  0.00    +0.000 A 
ENDROOT
BRANCH   1  11
ATOM      7  C   UNL     1      -1.537  11.788  22.719  0.00  0.00    +0.000 C 
ATOM      8  C   UNL     1      -0.640  10.815  22.552  0.00  0.00    +0.000 C 
ATOM      9  C   UNL     1      -0.667   9.416  23.077  0.00  0.00    +0.000 C 
ATOM     10  C   UNL     1       0.290   8.634  22.164  0.00  0.00    +0.000 C 
ATOM     11  N   UNL     1       0.991   9.637  21.336  0.00  0.00    +0.000 N 
ATOM     12  C   UNL     1       0.544  10.903  21.653  0.00  0.00    +0.000 C 
ATOM     13  N   UNL     1       1.067  12.034  21.321  0.00  0.00    +0.000 NA
ATOM     14  H   UNL     1       1.920  11.836  20.792  0.00  0.00    +0.000 HD
ENDBRANCH   1  11
BRANCH   5  15
ATOM     15  C   UNL     1       2.868   5.853  18.570  0.00  0.00    +0.000 C 
ATOM     16  C   UNL     1       3.896   5.667  17.410  0.00  0.00    +0.000 C 
ATOM     17  O   UNL     1       3.359   4.346  17.130  0.00  0.00    +0.000 OA
ATOM     18  C   UNL     1       2.124   4.740  17.790  0.00  0.00    +0.000 C 
BRANCH  15  19
ATOM     19  C   UNL     1       3.504   5.377  19.893  0.00  0.00    +0.000 C 
BRANCH  19  20
ATOM     20  C   UNL     1       2.879   4.208  20.576  0.00  0.00    +0.000 A 
ATOM     21  N   UNL     1       1.869   4.269  21.422  0.00  0.00    +0.000 NA
ATOM     22  N   UNL     1       1.706   3.032  21.997  0.00  0.00    +0.000 NA
ATOM     23  C   UNL     1       2.616   2.237  21.492  0.00  0.00    +0.000 A 
ATOM     24  N   UNL     1       3.356   2.918  20.574  0.00  0.00    +0.000 N 
ATOM     25  C   UNL     1       4.440   2.357  19.813  0.00  0.00    +0.000 C 
ENDBRANCH  19  20
ENDBRANCH  15  19
ENDBRANCH   5  15
TORSDOF 4
ENDMDL
MODEL 7
REMARK VINA RESULT:      -7.4      2.272      3.591
REMARK  Name = 
REMARK  5 active torsions:
REMARK  status: ('A' for Active; 'I' for Inactive)
REMARK    1  A    between atoms: N_5  and  C_6
REMARK    2  A    between atoms: C_10  and  C_11
REMARK    3  A    between atoms: C_11  and  C_12
REMARK    4  A    between atoms: C_12  and  C_13
REMARK    5  A    between atoms: N_17  and  C_18
REMARK                            x       y       z     vdW  Elec       q    Type
REMARK                         _______ _______ _______ _____ _____    ______ ____
ROOT
ATOM      1  C   UNL     1       2.926   5.850  18.726  0.00  0.00    +0.000 A 
ATOM      2  C   UNL     1       2.555   7.009  18.036  0.00  0.00    +0.000 A 
ATOM      3  C   UNL     1       3.499   7.784  17.361  0.00  0.00    +0.000 A 
ATOM      4  C   UNL     1       4.846   7.417  17.363  0.00  0.00    +0.000 A 
ATOM      5  C   UNL     1       5.297   6.287  18.059  0.00  0.00    +0.000 A 
ATOM      6  C   UNL     1       4.300   5.538  18.727  0.00  0.00    +0.000 A 
ENDROOT
BRANCH   1  11
ATOM      7  C   UNL     1       1.377   1.479  19.700  0.00  0.00    +0.000 C 
ATOM      8  C   UNL     1       1.444   2.791  19.935  0.00  0.00    +0.000 C 
ATOM      9  C   UNL     1       1.643   3.500  21.235  0.00  0.00    +0.000 C 
ATOM     10  C   UNL     1       2.160   4.895  20.848  0.00  0.00    +0.000 C 
ATOM     11  N   UNL     1       2.004   5.006  19.384  0.00  0.00    +0.000 N 
ATOM     12  C   UNL     1       1.472   3.839  18.877  0.00  0.00    +0.000 C 
ATOM     13  N   UNL     1       0.982   3.635  17.701  0.00  0.00    +0.000 NA
ATOM     14  H   UNL     1       1.022   4.522  17.193  0.00  0.00    +0.000 HD
ENDBRANCH   1  11
BRANCH   5  15
ATOM     15  C   UNL     1       6.837   5.882  18.213  0.00  0.00    +0.000 C 
ATOM     16  C   UNL     1       7.272   5.723  19.704  0.00  0.00    +0.000 C 
ATOM     17  O   UNL     1       8.544   6.364  19.413  0.00  0.00    +0.000 OA
ATOM     18  C   UNL     1       7.935   6.974  18.242  0.00  0.00    +0.000 C 
BRANCH  15  19
ATOM     19  C   UNL     1       7.232   4.613  17.431  0.00  0.00    +0.000 C 
BRANCH  19  20
ATOM     20  C   UNL     1       6.953   4.591  15.967  0.00  0.00    +0.000 A 
ATOM     21  N   UNL     1       7.670   5.202  15.044  0.00  0.00    +0.000 NA
ATOM     22  N   UNL     1       6.998   5.129  13.848  0.00  0.00    +0.000 NA
ATOM     23  C   UNL     1       5.884   4.474  14.060  0.00  0.00    +0.000 A 
ATOM     24  N   UNL     1       5.823   4.088  15.364  0.00  0.00    +0.000 N 
ATOM     25  C   UNL     1       4.744   3.340  15.951  0.00  0.00    +0.000 C 
ENDBRANCH  19  20
ENDBRANCH  15  19
ENDBRANCH   5  15
TORSDOF 4
ENDMDL
MODEL 8
REMARK VINA RESULT:      -7.3      1.053      1.459
REMARK  Name = 
REMARK  5 active torsions:
REMARK  status: ('A' for Active; 'I' for Inactive)
REMARK    1  A    between atoms: N_5  and  C_6
REMARK    2  A    between atoms: C_10  and  C_11
REMARK    3  A    between atoms: C_11  and  C_12
REMARK    4  A    between atoms: C_12  and  C_13
REMARK    5  A    between atoms: N_17  and  C_18
REMARK                            x       y       z     vdW  Elec       q    Type
REMARK                         _______ _______ _______ _____ _____    ______ ____
ROOT
ATOM      1  C   UNL     1       2.864   5.826  18.293  0.00  0.00    +0.000 A 
ATOM      2  C   UNL     1       2.805   7.219  18.189  0.00  0.00    +0.000 A 
ATOM      3  C   UNL     1       3.639   7.916  17.313  0.00  0.00    +0.000 A 
ATOM      4  C   UNL     1       4.559   7.230  16.517  0.00  0.00    +0.000 A 
ATOM      5  C   UNL     1       4.697   5.837  16.592  0.00  0.00    +0.000 A 
ATOM      6  C   UNL     1       3.830   5.181  17.496  0.00  0.00    +0.000 A 
ENDROOT
BRANCH   1  11
ATOM      7  C   UNL     1       1.464   1.612  19.947  0.00  0.00    +0.000 C 
ATOM      8  C   UNL     1       1.530   2.944  20.005  0.00  0.00    +0.000 C 
ATOM      9  C   UNL     1       1.823   3.817  21.181  0.00  0.00    +0.000 C 
ATOM     10  C   UNL     1       2.285   5.151  20.576  0.00  0.00    +0.000 C 
ATOM     11  N   UNL     1       2.010   5.071  19.127  0.00  0.00    +0.000 N 
ATOM     12  C   UNL     1       1.457   3.845  18.822  0.00  0.00    +0.000 C 
ATOM     13  N   UNL     1       0.877   3.488  17.726  0.00  0.00    +0.000 NA
ATOM     14  H   UNL     1       0.863   4.302  17.106  0.00  0.00    +0.000 HD
ENDBRANCH   1  11
BRANCH   5  15
ATOM     15  C   UNL     1       5.816   5.004  15.811  0.00  0.00    +0.000 C 
ATOM     16  C   UNL     1       5.578   4.973  14.268  0.00  0.00    +0.000 C 
ATOM     17  O   UNL     1       5.986   3.578  14.221  0.00  0.00    +0.000 OA
ATOM     18  C   UNL     1       5.675   3.471  15.638  0.00  0.00    +0.000 C 
BRANCH  15  19
ATOM     19  C   UNL     1       7.258   5.475  16.092  0.00  0.00    +0.000 C 
BRANCH  19  20
ATOM     20  C   UNL     1       7.672   5.611  17.518  0.00  0.00    +0.000 A 
ATOM     21  N   UNL     1       7.754   4.622  18.386  0.00  0.00    +0.000 NA
ATOM     22  N   UNL     1       7.965   5.153  19.636  0.00  0.00    +0.000 NA
ATOM     23  C   UNL     1       8.009   6.456  19.509  0.00  0.00    +0.000 A 
ATOM     24  N   UNL     1       7.862   6.792  18.198  0.00  0.00    +0.000 N 
ATOM     25  C   UNL     1       7.869   8.136  17.687  0.00  0.00    +0.000 C 
ENDBRANCH  19  20
ENDBRANCH  15  19
ENDBRANCH   5  15
TORSDOF 4
ENDMDL
MODEL 9
REMARK VINA RESULT:      -7.3      4.430      7.274
REMARK  Name = 
REMARK  5 active torsions:
REMARK  status: ('A' for Active; 'I' for Inactive)
REMARK    1  A    between atoms: N_5  and  C_6
REMARK    2  A    between atoms: C_10  and  C_11
REMARK    3  A    between atoms: C_11  and  C_12
REMARK    4  A    between atoms: C_12  and  C_13
REMARK    5  A    between atoms: N_17  and  C_18
REMARK                            x       y       z     vdW  Elec       q    Type
REMARK                         _______ _______ _______ _____ _____    ______ ____
ROOT
ATOM      1  C   UNL     1       1.222   9.695  19.260  0.00  0.00    +0.000 A 
ATOM      2  C   UNL     1       0.781   9.488  20.571  0.00  0.00    +0.000 A 
ATOM      3  C   UNL     1       1.058   8.300  21.249  0.00  0.00    +0.000 A 
ATOM      4  C   UNL     1       1.785   7.283  20.626  0.00  0.00    +0.000 A 
ATOM      5  C   UNL     1       2.231   7.408  19.303  0.00  0.00    +0.000 A 
ATOM      6  C   UNL     1       1.923   8.630  18.661  0.00  0.00    +0.000 A 
ENDROOT
BRANCH   1  11
ATOM      7  C   UNL     1      -0.481  14.115  19.139  0.00  0.00    +0.000 C 
ATOM      8  C   UNL     1       0.287  13.130  18.671  0.00  0.00    +0.000 C 
ATOM      9  C   UNL     1       1.715  13.183  18.233  0.00  0.00    +0.000 C 
ATOM     10  C   UNL     1       2.206  11.730  18.313  0.00  0.00    +0.000 C 
ATOM     11  N   UNL     1       1.010  10.896  18.548  0.00  0.00    +0.000 N 
ATOM     12  C   UNL     1      -0.112  11.696  18.627  0.00  0.00    +0.000 C 
ATOM     13  N   UNL     1      -1.349  11.332  18.594  0.00  0.00    +0.000 NA
ATOM     14  H   UNL     1      -1.368  10.318  18.461  0.00  0.00    +0.000 HD
ENDBRANCH   1  11
BRANCH   5  15
ATOM     15  C   UNL     1       2.952   6.237  18.485  0.00  0.00    +0.000 C 
ATOM     16  C   UNL     1       4.110   5.565  19.288  0.00  0.00    +0.000 C 
ATOM     17  O   UNL     1       4.918   5.491  18.081  0.00  0.00    +0.000 OA
ATOM     18  C   UNL     1       4.112   6.558  17.511  0.00  0.00    +0.000 C 
BRANCH  15  19
ATOM     19  C   UNL     1       1.988   5.144  17.976  0.00  0.00    +0.000 C 
BRANCH  19  20
ATOM     20  C   UNL     1       1.693   4.005  18.890  0.00  0.00    +0.000 A 
ATOM     21  N   UNL     1       0.959   4.074  19.984  0.00  0.00    +0.000 NA
ATOM     22  N   UNL     1       1.081   2.889  20.668  0.00  0.00    +0.000 NA
ATOM     23  C   UNL     1       1.885   2.117  19.982  0.00  0.00    +0.000 A 
ATOM     24  N   UNL     1       2.272   2.758  18.844  0.00  0.00    +0.000 N 
ATOM     25  C   UNL     1       3.148   2.205  17.846  0.00  0.00    +0.000 C 
ENDBRANCH  19  20
ENDBRANCH  15  19
ENDBRANCH   5  15
TORSDOF 4
ENDMDL
