MODEL 1
REMARK VINA RESULT:      -9.4      0.000      0.000
REMARK  Name = 
REMARK  5 active torsions:
REMARK  status: ('A' for Active; 'I' for Inactive)
REMARK    1  A    between atoms: C_1  and  C_2
REMARK    2  A    between atoms: C_5  and  C_6
REMARK    3  A    between atoms: C_9  and  C_10
REMARK    4  A    between atoms: C_10  and  C_11
REMARK    5  A    between atoms: C_10  and  N_17
REMARK                            x       y       z     vdW  Elec       q    Type
REMARK                         _______ _______ _______ _____ _____    ______ ____
ROOT
ATOM      1  C   UNL     1       3.193   5.439  17.872  0.00  0.00    +0.000 C 
ENDROOT
BRANCH   1   2
ATOM      2  N   UNL     1       2.641   4.340  18.710  0.00  0.00    +0.000 N 
ATOM      3  C   UNL     1       3.205   4.098  20.040  0.00  0.00    +0.000 C 
ATOM      4  C   UNL     1       2.851   2.748  20.630  0.00  0.00    +0.000 C 
ATOM      5  C   UNL     1       1.352   2.570  20.560  0.00  0.00    +0.000 C 
ATOM      6  C   UNL     1       0.910   2.592  19.109  0.00  0.00    +0.000 C 
ATOM      7  C   UNL     1       1.470   3.736  18.281  0.00  0.00    +0.000 C 
ATOM      8  O   UNL     1       0.918   4.043  17.222  0.00  0.00    +0.000 OA
ENDBRANCH   1   2
BRANCH   1   9
ATOM      9  C   UNL     1       4.695   5.264  17.655  0.00  0.00    +0.000 A 
ATOM     10  C   UNL     1       5.648   5.821  18.524  0.00  0.00    +0.000 A 
ATOM     11  C   UNL     1       7.013   5.605  18.325  0.00  0.00    +0.000 A 
ATOM     12  C   UNL     1       7.450   4.830  17.253  0.00  0.00    +0.000 A 
ATOM     13  C   UNL     1       6.524   4.272  16.378  0.00  0.00    +0.000 A 
ATOM     14  C   UNL     1       5.157   4.484  16.578  0.00  0.00    +0.000 A 
ENDBRANCH   1   9
BRANCH   1  18
ATOM     15  C   UNL     1       1.869   8.438  19.328  0.00  0.00    +0.000 A 
ATOM     16  N   UNL     1       2.272   8.925  18.142  0.00  0.00    +0.000 NA
ATOM     17  O   UNL     1       2.888   7.839  17.527  0.00  0.00    +0.000 OA
ATOM     18  C   UNL     1       2.805   6.796  18.399  0.00  0.00    +0.000 A 
ATOM     19  N   UNL     1       2.231   7.130  19.540  0.00  0.00    +0.000 NA
BRANCH  15  24
ATOM     20  C   UNL     1      -1.417  11.296  23.129  0.00  0.00    +0.000 C 
ATOM     21  C   UNL     1      -0.574  10.553  22.135  0.00  0.00    +0.000 A 
ATOM     22  C   UNL     1      -0.535  10.947  20.794  0.00  0.00    +0.000 A 
ATOM     23  C   UNL     1       0.266  10.260  19.876  0.00  0.00    +0.000 A 
ATOM     24  C   UNL     1       1.045   9.170  20.283  0.00  0.00    +0.000 A 
ATOM     25  C   UNL     1       0.993   8.772  21.628  0.00  0.00    +0.000 A 
ATOM     26  C   UNL     1       0.193   9.458  22.547  0.00  0.00    +0.000 A 
ENDBRANCH  15  24
ENDBRANCH   1  18
TORSDOF 4
ENDMDL
MODEL 2
REMARK VINA RESULT:      -9.3      0.154      1.344
REMARK  Name = 
REMARK  5 active torsions:
REMARK  status: ('A' for Active; 'I' for Inactive)
REMARK    1  A    between atoms: C_1  and  C_2
REMARK    2  A    between atoms: C_5  and  C_6
REMARK    3  A    between atoms: C_9  and  C_10
REMARK    4  A    between atoms: C_10  and  C_11
REMARK    5  A    between atoms: C_10  and  N_17
REMARK                            x       y       z     vdW  Elec       q    Type
REMARK                         _______ _______ _______ _____ _____    ______ ____
ROOT
ATOM      1  C   UNL     1       3.231   5.374  17.975  0.00  0.00    +0.000 C 
ENDROOT
BRANCH   1   2
ATOM      2  N   UNL     1       2.634   4.282  18.792  0.00  0.00    +0.000 N 
ATOM      3  C   UNL     1       3.154   4.024  20.137  0.00  0.00    +0.000 C 
ATOM      4  C   UNL     1       2.759   2.679  20.710  0.00  0.00    +0.000 C 
ATOM      5  C   UNL     1       1.259   2.528  20.595  0.00  0.00    +0.000 C 
ATOM      6  C   UNL     1       0.860   2.565  19.132  0.00  0.00    +0.000 C 
ATOM      7  C   UNL     1       1.466   3.702  18.326  0.00  0.00    +0.000 C 
ATOM      8  O   UNL     1       0.950   4.023  17.253  0.00  0.00    +0.000 OA
ENDBRANCH   1   2
BRANCH   1   9
ATOM      9  C   UNL     1       4.738   5.183  17.820  0.00  0.00    +0.000 A 
ATOM     10  C   UNL     1       5.299   4.512  16.720  0.00  0.00    +0.000 A 
ATOM     11  C   UNL     1       6.684   4.393  16.584  0.00  0.00    +0.000 A 
ATOM     12  C   UNL     1       7.532   4.941  17.544  0.00  0.00    +0.000 A 
ATOM     13  C   UNL     1       6.997   5.607  18.642  0.00  0.00    +0.000 A 
ATOM     14  C   UNL     1       5.612   5.730  18.778  0.00  0.00    +0.000 A 
ENDBRANCH   1   9
BRANCH   1  18
ATOM     15  C   UNL     1       1.887   8.386  19.387  0.00  0.00    +0.000 A 
ATOM     16  N   UNL     1       2.307   8.863  18.202  0.00  0.00    +0.000 NA
ATOM     17  O   UNL     1       2.931   7.771  17.605  0.00  0.00    +0.000 OA
ATOM     18  C   UNL     1       2.836   6.736  18.486  0.00  0.00    +0.000 A 
ATOM     19  N   UNL     1       2.245   7.080  19.615  0.00  0.00    +0.000 NA
BRANCH  15  24
ATOM     20  C   UNL     1      -1.409  11.363  23.086  0.00  0.00    +0.000 C 
ATOM     21  C   UNL     1      -0.543  10.591  22.134  0.00  0.00    +0.000 A 
ATOM     22  C   UNL     1       0.144   9.450  22.558  0.00  0.00    +0.000 A 
ATOM     23  C   UNL     1       0.935   8.725  21.660  0.00  0.00    +0.000 A 
ATOM     24  C   UNL     1       1.050   9.127  20.323  0.00  0.00    +0.000 A 
ATOM     25  C   UNL     1       0.366  10.279  19.907  0.00  0.00    +0.000 A 
ATOM     26  C   UNL     1      -0.426  11.004  20.803  0.00  0.00    +0.000 A 
ENDBRANCH  15  24
ENDBRANCH   1  18
TORSDOF 4
ENDMDL
MODEL 3
REMARK VINA RESULT:      -9.0      1.078      1.443
REMARK  Name = 
REMARK  5 active torsions:
REMARK  status: ('A' for Active; 'I' for Inactive)
REMARK    1  A    between atoms: C_1  and  C_2
REMARK    2  A    between atoms: C_5  and  C_6
REMARK    3  A    between atoms: C_9  and  C_10
REMARK    4  A    between atoms: C_10  and  C_11
REMARK    5  A    between atoms: C_10  and  N_17
REMARK                            x       y       z     vdW  Elec       q    Type
REMARK                         _______ _______ _______ _____ _____    ______ ____
ROOT
ATOM      1  C   UNL     1       2.995   6.073  18.237  0.00  0.00    +0.000 C 
ENDROOT
BRANCH   1   2
ATOM      2  N   UNL     1       2.430   4.973  19.066  0.00  0.00    +0.000 N 
ATOM      3  C   UNL     1       2.342   5.139  20.518  0.00  0.00    +0.000 C 
ATOM      4  C   UNL     1       2.129   3.848  21.281  0.00  0.00    +0.000 C 
ATOM      5  C   UNL     1       0.950   3.120  20.677  0.00  0.00    +0.000 C 
ATOM      6  C   UNL     1       1.257   2.780  19.230  0.00  0.00    +0.000 C 
ATOM      7  C   UNL     1       1.811   3.926  18.401  0.00  0.00    +0.000 C 
ATOM      8  O   UNL     1       1.764   3.861  17.171  0.00  0.00    +0.000 OA
ENDBRANCH   1   2
BRANCH   1   9
ATOM      9  C   UNL     1       4.522   6.039  18.244  0.00  0.00    +0.000 A 
ATOM     10  C   UNL     1       5.252   5.373  19.244  0.00  0.00    +0.000 A 
ATOM     11  C   UNL     1       6.646   5.322  19.198  0.00  0.00    +0.000 A 
ATOM     12  C   UNL     1       7.336   5.935  18.154  0.00  0.00    +0.000 A 
ATOM     13  C   UNL     1       6.633   6.602  17.157  0.00  0.00    +0.000 A 
ATOM     14  C   UNL     1       5.237   6.652  17.199  0.00  0.00    +0.000 A 
ENDBRANCH   1   9
BRANCH   1  18
ATOM     15  C   UNL     1       1.301   9.001  19.433  0.00  0.00    +0.000 A 
ATOM     16  N   UNL     1       1.395   9.314  18.128  0.00  0.00    +0.000 NA
ATOM     17  O   UNL     1       2.126   8.262  17.584  0.00  0.00    +0.000 OA
ATOM     18  C   UNL     1       2.411   7.411  18.609  0.00  0.00    +0.000 A 
ATOM     19  N   UNL     1       1.967   7.849  19.773  0.00  0.00    +0.000 NA
BRANCH  15  24
ATOM     20  C   UNL     1      -1.845  11.970  23.265  0.00  0.00    +0.000 C 
ATOM     21  C   UNL     1      -1.019  11.200  22.278  0.00  0.00    +0.000 A 
ATOM     22  C   UNL     1      -0.368  10.022  22.656  0.00  0.00    +0.000 A 
ATOM     23  C   UNL     1       0.387   9.300  21.726  0.00  0.00    +0.000 A 
ATOM     24  C   UNL     1       0.501   9.740  20.402  0.00  0.00    +0.000 A 
ATOM     25  C   UNL     1      -0.145  10.929  20.032  0.00  0.00    +0.000 A 
ATOM     26  C   UNL     1      -0.901  11.651  20.959  0.00  0.00    +0.000 A 
ENDBRANCH  15  24
ENDBRANCH   1  18
TORSDOF 4
ENDMDL
MODEL 4
REMARK VINA RESULT:      -9.0      1.066      1.224
REMARK  Name = 
REMARK  5 active torsions:
REMARK  status: ('A' for Active; 'I' for Inactive)
REMARK    1  A    between atoms: C_1  and  C_2
REMARK    2  A    between atoms: C_5  and  C_6
REMARK    3  A    between atoms: C_9  and  C_10
REMARK    4  A    between atoms: C_10  and  C_11
REMARK    5  A    between atoms: C_10  and  N_17
REMARK                            x       y       z     vdW  Elec       q    Type
REMARK                         _______ _______ _______ _____ _____    ______ ____
ROOT
ATOM      1  C   UNL     1       2.964   6.067  18.187  0.00  0.00    +0.000 C 
ENDROOT
BRANCH   1   2
ATOM      2  N   UNL     1       2.412   4.974  19.033  0.00  0.00    +0.000 N 
ATOM      3  C   UNL     1       2.352   5.148  20.485  0.00  0.00    +0.000 C 
ATOM      4  C   UNL     1       2.149   3.863  21.260  0.00  0.00    +0.000 C 
ATOM      5  C   UNL     1       0.957   3.135  20.682  0.00  0.00    +0.000 C 
ATOM      6  C   UNL     1       1.235   2.786  19.232  0.00  0.00    +0.000 C 
ATOM      7  C   UNL     1       1.777   3.925  18.386  0.00  0.00    +0.000 C 
ATOM      8  O   UNL     1       1.706   3.853  17.157  0.00  0.00    +0.000 OA
ENDBRANCH   1   2
BRANCH   1   9
ATOM      9  C   UNL     1       4.490   6.014  18.146  0.00  0.00    +0.000 A 
ATOM     10  C   UNL     1       5.236   6.655  17.144  0.00  0.00    +0.000 A 
ATOM     11  C   UNL     1       6.632   6.625  17.160  0.00  0.00    +0.000 A 
ATOM     12  C   UNL     1       7.307   5.952  18.176  0.00  0.00    +0.000 A 
ATOM     13  C   UNL     1       6.587   5.307  19.176  0.00  0.00    +0.000 A 
ATOM     14  C   UNL     1       5.190   5.339  19.164  0.00  0.00    +0.000 A 
ENDBRANCH   1   9
BRANCH   1  18
ATOM     15  C   UNL     1       1.327   9.014  19.416  0.00  0.00    +0.000 A 
ATOM     16  N   UNL     1       1.453   9.352  18.121  0.00  0.00    +0.000 NA
ATOM     17  O   UNL     1       2.166   8.292  17.567  0.00  0.00    +0.000 OA
ATOM     18  C   UNL     1       2.409   7.413  18.578  0.00  0.00    +0.000 A 
ATOM     19  N   UNL     1       1.955   7.836  19.743  0.00  0.00    +0.000 NA
BRANCH  15  24
ATOM     20  C   UNL     1      -1.859  11.900  23.278  0.00  0.00    +0.000 C 
ATOM     21  C   UNL     1      -1.043  11.150  22.268  0.00  0.00    +0.000 A 
ATOM     22  C   UNL     1      -0.970  11.586  20.942  0.00  0.00    +0.000 A 
ATOM     23  C   UNL     1      -0.193  10.892  20.009  0.00  0.00    +0.000 A 
ATOM     24  C   UNL     1       0.528   9.753  20.387  0.00  0.00    +0.000 A 
ATOM     25  C   UNL     1       0.443   9.314  21.717  0.00  0.00    +0.000 A 
ATOM     26  C   UNL     1      -0.333  10.007  22.650  0.00  0.00    +0.000 A 
ENDBRANCH  15  24
ENDBRANCH   1  18
TORSDOF 4
ENDMDL
MODEL 5
REMARK VINA RESULT:      -8.8      0.813      1.295
REMARK  Name = 
REMARK  5 active torsions:
REMARK  status: ('A' for Active; 'I' for Inactive)
REMARK    1  A    between atoms: C_1  and  C_2
REMARK    2  A    between atoms: C_5  and  C_6
REMARK    3  A    between atoms: C_9  and  C_10
REMARK    4  A    between atoms: C_10  and  C_11
REMARK    5  A    between atoms: C_10  and  N_17
REMARK                            x       y       z     vdW  Elec       q    Type
REMARK                         _______ _______ _______ _____ _____    ______ ____
ROOT
ATOM      1  C   UNL     1       3.223   5.487  17.885  0.00  0.00    +0.000 C 
ENDROOT
BRANCH   1   2
ATOM      2  N   UNL     1       2.586   4.535  18.837  0.00  0.00    +0.000 N 
ATOM      3  C   UNL     1       2.993   4.545  20.244  0.00  0.00    +0.000 C 
ATOM      4  C   UNL     1       2.586   3.310  21.019  0.00  0.00    +0.000 C 
ATOM      5  C   UNL     1       1.106   3.078  20.813  0.00  0.00    +0.000 C 
ATOM      6  C   UNL     1       0.836   2.833  19.341  0.00  0.00    +0.000 C 
ATOM      7  C   UNL     1       1.479   3.831  18.392  0.00  0.00    +0.000 C 
ATOM      8  O   UNL     1       1.051   3.932  17.240  0.00  0.00    +0.000 OA
ENDBRANCH   1   2
BRANCH   1   9
ATOM      9  C   UNL     1       4.729   5.251  17.797  0.00  0.00    +0.000 A 
ATOM     10  C   UNL     1       5.608   5.627  18.827  0.00  0.00    +0.000 A 
ATOM     11  C   UNL     1       6.975   5.357  18.735  0.00  0.00    +0.000 A 
ATOM     12  C   UNL     1       7.488   4.708  17.614  0.00  0.00    +0.000 A 
ATOM     13  C   UNL     1       6.635   4.330  16.582  0.00  0.00    +0.000 A 
ATOM     14  C   UNL     1       5.267   4.596  16.673  0.00  0.00    +0.000 A 
ENDBRANCH   1   9
BRANCH   1  18
ATOM     15  C   UNL     1       1.858   8.706  18.688  0.00  0.00    +0.000 A 
ATOM     16  N   UNL     1       2.616   9.042  17.630  0.00  0.00    +0.000 NA
ATOM     17  O   UNL     1       3.264   7.857  17.294  0.00  0.00    +0.000 OA
ATOM     18  C   UNL     1       2.843   6.914  18.182  0.00  0.00    +0.000 A 
ATOM     19  N   UNL     1       2.015   7.401  19.088  0.00  0.00    +0.000 NA
BRANCH  15  24
ATOM     20  C   UNL     1      -2.000  12.238  21.147  0.00  0.00    +0.000 C 
ATOM     21  C   UNL     1      -0.989  11.328  20.514  0.00  0.00    +0.000 A 
ATOM     22  C   UNL     1      -0.004  10.706  21.287  0.00  0.00    +0.000 A 
ATOM     23  C   UNL     1       0.925   9.846  20.692  0.00  0.00    +0.000 A 
ATOM     24  C   UNL     1       0.882   9.588  19.317  0.00  0.00    +0.000 A 
ATOM     25  C   UNL     1      -0.102  10.224  18.545  0.00  0.00    +0.000 A 
ATOM     26  C   UNL     1      -1.032  11.083  19.138  0.00  0.00    +0.000 A 
ENDBRANCH  15  24
ENDBRANCH   1  18
TORSDOF 4
ENDMDL
MODEL 6
REMARK VINA RESULT:      -8.6      1.092      1.348
REMARK  Name = 
REMARK  5 active torsions:
REMARK  status: ('A' for Active; 'I' for Inactive)
REMARK    1  A    between atoms: C_1  and  C_2
REMARK    2  A    between atoms: C_5  and  C_6
REMARK    3  A    between atoms: C_9  and  C_10
REMARK    4  A    between atoms: C_10  and  C_11
REMARK    5  A    between atoms: C_10  and  N_17
REMARK                            x       y       z     vdW  Elec       q    Type
REMARK                         _______ _______ _______ _____ _____    ______ ____
ROOT
ATOM      1  C   UNL     1       3.215   5.462  17.908  0.00  0.00    +0.000 C 
ENDROOT
BRANCH   1   2
ATOM      2  N   UNL     1       2.613   4.562  18.930  0.00  0.00    +0.000 N 
ATOM      3  C   UNL     1       2.598   4.979  20.334  0.00  0.00    +0.000 C 
ATOM      4  C   UNL     1       2.331   3.855  21.314  0.00  0.00    +0.000 C 
ATOM      5  C   UNL     1       1.082   3.123  20.880  0.00  0.00    +0.000 C 
ATOM      6  C   UNL     1       1.304   2.521  19.505  0.00  0.00    +0.000 C 
ATOM      7  C   UNL     1       1.899   3.466  18.475  0.00  0.00    +0.000 C 
ATOM      8  O   UNL     1       1.795   3.196  17.276  0.00  0.00    +0.000 OA
ENDBRANCH   1   2
BRANCH   1   9
ATOM      9  C   UNL     1       4.720   5.227  17.786  0.00  0.00    +0.000 A 
ATOM     10  C   UNL     1       5.610   5.516  18.834  0.00  0.00    +0.000 A 
ATOM     11  C   UNL     1       6.975   5.248  18.708  0.00  0.00    +0.000 A 
ATOM     12  C   UNL     1       7.474   4.688  17.534  0.00  0.00    +0.000 A 
ATOM     13  C   UNL     1       6.610   4.398  16.483  0.00  0.00    +0.000 A 
ATOM     14  C   UNL     1       5.243   4.662  16.608  0.00  0.00    +0.000 A 
ENDBRANCH   1   9
BRANCH   1  18
ATOM     15  C   UNL     1       1.838   8.728  18.464  0.00  0.00    +0.000 A 
ATOM     16  N   UNL     1       2.784   9.035  17.559  0.00  0.00    +0.000 NA
ATOM     17  O   UNL     1       3.442   7.828  17.341  0.00  0.00    +0.000 OA
ATOM     18  C   UNL     1       2.837   6.902  18.137  0.00  0.00    +0.000 A 
ATOM     19  N   UNL     1       1.878   7.419  18.882  0.00  0.00    +0.000 NA
BRANCH  15  24
ATOM     20  C   UNL     1      -2.299  12.332  20.278  0.00  0.00    +0.000 C 
ATOM     21  C   UNL     1      -1.234  11.388  19.804  0.00  0.00    +0.000 A 
ATOM     22  C   UNL     1      -1.265  10.870  18.506  0.00  0.00    +0.000 A 
ATOM     23  C   UNL     1      -0.259  10.004  18.065  0.00  0.00    +0.000 A 
ATOM     24  C   UNL     1       0.796   9.644  18.911  0.00  0.00    +0.000 A 
ATOM     25  C   UNL     1       0.815  10.159  20.217  0.00  0.00    +0.000 A 
ATOM     26  C   UNL     1      -0.188  11.025  20.659  0.00  0.00    +0.000 A 
ENDBRANCH  15  24
ENDBRANCH   1  18
TORSDOF 4
ENDMDL
MODEL 7
REMARK VINA RESULT:      -8.6      1.238      1.713
REMARK  Name = 
REMARK  5 active torsions:
REMARK  status: ('A' for Active; 'I' for Inactive)
REMARK    1  A    between atoms: C_1  and  C_2
REMARK    2  A    between atoms: C_5  and  C_6
REMARK    3  A    between atoms: C_9  and  C_10
REMARK    4  A    between atoms: C_10  and  C_11
REMARK    5  A    between atoms: C_10  and  N_17
REMARK                            x       y       z     vdW  Elec       q    Type
REMARK                         _______ _______ _______ _____ _____    ______ ____
ROOT
ATOM      1  C   UNL     1       3.510   6.117  17.716  0.00  0.00    +0.000 C 
ENDROOT
BRANCH   1   2
ATOM      2  N   UNL     1       2.841   4.892  18.235  0.00  0.00    +0.000 N 
ATOM      3  C   UNL     1       1.909   5.003  19.359  0.00  0.00    +0.000 C 
ATOM      4  C   UNL     1       1.599   3.688  20.043  0.00  0.00    +0.000 C 
ATOM      5  C   UNL     1       1.174   2.687  18.994  0.00  0.00    +0.000 C 
ATOM      6  C   UNL     1       2.315   2.466  18.018  0.00  0.00    +0.000 C 
ATOM      7  C   UNL     1       2.965   3.732  17.487  0.00  0.00    +0.000 C 
ATOM      8  O   UNL     1       3.641   3.679  16.458  0.00  0.00    +0.000 OA
ENDBRANCH   1   2
BRANCH   1   9
ATOM      9  C   UNL     1       5.008   6.093  18.012  0.00  0.00    +0.000 A 
ATOM     10  C   UNL     1       5.940   6.780  17.218  0.00  0.00    +0.000 A 
ATOM     11  C   UNL     1       7.299   6.775  17.541  0.00  0.00    +0.000 A 
ATOM     12  C   UNL     1       7.750   6.082  18.663  0.00  0.00    +0.000 A 
ATOM     13  C   UNL     1       6.843   5.391  19.461  0.00  0.00    +0.000 A 
ATOM     14  C   UNL     1       5.483   5.398  19.141  0.00  0.00    +0.000 A 
ENDBRANCH   1   9
BRANCH   1  18
ATOM     15  C   UNL     1       1.598   8.806  19.126  0.00  0.00    +0.000 A 
ATOM     16  N   UNL     1       1.585   9.176  17.833  0.00  0.00    +0.000 NA
ATOM     17  O   UNL     1       2.386   8.226  17.206  0.00  0.00    +0.000 OA
ATOM     18  C   UNL     1       2.815   7.372  18.177  0.00  0.00    +0.000 A 
ATOM     19  N   UNL     1       2.396   7.717  19.380  0.00  0.00    +0.000 NA
BRANCH  15  24
ATOM     20  C   UNL     1      -1.598  11.281  23.257  0.00  0.00    +0.000 C 
ATOM     21  C   UNL     1      -0.759  10.635  22.193  0.00  0.00    +0.000 A 
ATOM     22  C   UNL     1      -0.324   9.314  22.330  0.00  0.00    +0.000 A 
ATOM     23  C   UNL     1       0.444   8.713  21.327  0.00  0.00    +0.000 A 
ATOM     24  C   UNL     1       0.784   9.421  20.168  0.00  0.00    +0.000 A 
ATOM     25  C   UNL     1       0.353  10.750  20.041  0.00  0.00    +0.000 A 
ATOM     26  C   UNL     1      -0.414  11.352  21.043  0.00  0.00    +0.000 A 
ENDBRANCH  15  24
ENDBRANCH   1  18
TORSDOF 4
ENDMDL
MODEL 8
REMARK VINA RESULT:      -8.5      1.574      4.205
REMARK  Name = 
REMARK  5 active torsions:
REMARK  status: ('A' for Active; 'I' for Inactive)
REMARK    1  A    between atoms: C_1  and  C_2
REMARK    2  A    between atoms: C_5  and  C_6
REMARK    3  A    between atoms: C_9  and  C_10
REMARK    4  A    between atoms: C_10  and  C_11
REMARK    5  A    between atoms: C_10  and  N_17
REMARK                            x       y       z     vdW  Elec       q    Type
REMARK                         _______ _______ _______ _____ _____    ______ ____
ROOT
ATOM      1  C   UNL     1       3.798   5.591  19.210  0.00  0.00    +0.000 C 
ENDROOT
BRANCH   1   2
ATOM      2  N   UNL     1       4.816   5.184  18.204  0.00  0.00    +0.000 N 
ATOM      3  C   UNL     1       4.441   5.112  16.790  0.00  0.00    +0.000 C 
ATOM      4  C   UNL     1       5.410   4.330  15.928  0.00  0.00    +0.000 C 
ATOM      5  C   UNL     1       6.805   4.864  16.163  0.00  0.00    +0.000 C 
ATOM      6  C   UNL     1       7.182   4.660  17.619  0.00  0.00    +0.000 C 
ATOM      7  C   UNL     1       6.134   5.103  18.626  0.00  0.00    +0.000 C 
ATOM      8  O   UNL     1       6.466   5.304  19.796  0.00  0.00    +0.000 OA
ENDBRANCH   1   2
BRANCH   1   9
ATOM      9  C   UNL     1       2.772   4.481  19.433  0.00  0.00    +0.000 A 
ATOM     10  C   UNL     1       2.485   3.971  20.710  0.00  0.00    +0.000 A 
ATOM     11  C   UNL     1       1.509   2.988  20.886  0.00  0.00    +0.000 A 
ATOM     12  C   UNL     1       0.804   2.496  19.790  0.00  0.00    +0.000 A 
ATOM     13  C   UNL     1       1.076   2.984  18.516  0.00  0.00    +0.000 A 
ATOM     14  C   UNL     1       2.049   3.971  18.338  0.00  0.00    +0.000 A 
ENDBRANCH   1   9
BRANCH   1  18
ATOM     15  C   UNL     1       1.918   8.587  18.608  0.00  0.00    +0.000 A 
ATOM     16  N   UNL     1       2.655   8.555  17.484  0.00  0.00    +0.000 NA
ATOM     17  O   UNL     1       3.492   7.458  17.664  0.00  0.00    +0.000 OA
ATOM     18  C   UNL     1       3.189   6.929  18.882  0.00  0.00    +0.000 A 
ATOM     19  N   UNL     1       2.261   7.619  19.521  0.00  0.00    +0.000 NA
BRANCH  15  24
ATOM     20  C   UNL     1      -2.532  12.177  19.452  0.00  0.00    +0.000 C 
ATOM     21  C   UNL     1      -1.369  11.254  19.236  0.00  0.00    +0.000 A 
ATOM     22  C   UNL     1      -0.382  11.106  20.215  0.00  0.00    +0.000 A 
ATOM     23  C   UNL     1       0.690  10.231  20.013  0.00  0.00    +0.000 A 
ATOM     24  C   UNL     1       0.793   9.487  18.832  0.00  0.00    +0.000 A 
ATOM     25  C   UNL     1      -0.194   9.649  17.848  0.00  0.00    +0.000 A 
ATOM     26  C   UNL     1      -1.267  10.522  18.048  0.00  0.00    +0.000 A 
ENDBRANCH  15  24
ENDBRANCH   1  18
TORSDOF 4
ENDMDL
MODEL 9
REMARK VINA RESULT:      -8.5      2.694      7.572
REMARK  Name = 
REMARK  5 active torsions:
REMARK  status: ('A' for Active; 'I' for Inactive)
REMARK    1  A    between atoms: C_1  and  C_2
REMARK    2  A    between atoms: C_5  and  C_6
REMARK    3  A    between atoms: C_9  and  C_10
REMARK    4  A    between atoms: C_10  and  C_11
REMARK    5  A    between atoms: C_10  and  N_17
REMARK                            x       y       z     vdW  Elec       q    Type
REMARK                         _______ _______ _______ _____ _____    ______ ____
ROOT
ATOM      1  C   UNL     1       3.838   5.935  18.708  0.00  0.00    +0.000 C 
ENDROOT
BRANCH   1   2
ATOM      2  N   UNL     1       3.149   4.625  18.860  0.00  0.00    +0.000 N 
ATOM      3  C   UNL     1       1.795   4.458  18.329  0.00  0.00    +0.000 C 
ATOM      4  C   UNL     1       1.058   3.251  18.870  0.00  0.00    +0.000 C 
ATOM      5  C   UNL     1       1.936   2.032  18.697  0.00  0.00    +0.000 C 
ATOM      6  C   UNL     1       3.212   2.215  19.496  0.00  0.00    +0.000 C 
ATOM      7  C   UNL     1       3.907   3.553  19.306  0.00  0.00    +0.000 C 
ATOM      8  O   UNL     1       5.094   3.669  19.620  0.00  0.00    +0.000 OA
ENDBRANCH   1   2
BRANCH   1   9
ATOM      9  C   UNL     1       2.859   7.095  18.882  0.00  0.00    +0.000 A 
ATOM     10  C   UNL     1       2.196   7.339  20.096  0.00  0.00    +0.000 A 
ATOM     11  C   UNL     1       1.341   8.434  20.238  0.00  0.00    +0.000 A 
ATOM     12  C   UNL     1       1.132   9.302  19.168  0.00  0.00    +0.000 A 
ATOM     13  C   UNL     1       1.775   9.076  17.956  0.00  0.00    +0.000 A 
ATOM     14  C   UNL     1       2.634   7.983  17.814  0.00  0.00    +0.000 A 
ENDBRANCH   1   9
BRANCH   1  18
ATOM     15  C   UNL     1       5.716   5.588  15.670  0.00  0.00    +0.000 A 
ATOM     16  N   UNL     1       6.447   6.539  16.278  0.00  0.00    +0.000 NA
ATOM     17  O   UNL     1       5.740   6.809  17.446  0.00  0.00    +0.000 OA
ATOM     18  C   UNL     1       4.643   6.001  17.436  0.00  0.00    +0.000 A 
ATOM     19  N   UNL     1       4.560   5.268  16.341  0.00  0.00    +0.000 NA
BRANCH  15  24
ATOM     20  C   UNL     1       7.348   2.815  10.870  0.00  0.00    +0.000 C 
ATOM     21  C   UNL     1       6.913   3.538  12.110  0.00  0.00    +0.000 A 
ATOM     22  C   UNL     1       5.697   3.231  12.727  0.00  0.00    +0.000 A 
ATOM     23  C   UNL     1       5.306   3.898  13.893  0.00  0.00    +0.000 A 
ATOM     24  C   UNL     1       6.125   4.878  14.465  0.00  0.00    +0.000 A 
ATOM     25  C   UNL     1       7.340   5.189  13.835  0.00  0.00    +0.000 A 
ATOM     26  C   UNL     1       7.733   4.523  12.670  0.00  0.00    +0.000 A 
ENDBRANCH  15  24
ENDBRANCH   1  18
TORSDOF 4
ENDMDL
