MODEL 1
REMARK VINA RESULT:      -8.0      0.000      0.000
REMARK  Name = 
REMARK  5 active torsions:
REMARK  status: ('A' for Active; 'I' for Inactive)
REMARK    1  A    between atoms: C_1  and  C_2
REMARK    2  A    between atoms: C_4  and  N_5
REMARK    3  A    between atoms: C_8  and  N_9
REMARK    4  A    between atoms: C_16  and  C_17
REMARK    5  A    between atoms: C_27  and  C_28
REMARK                            x       y       z     vdW  Elec       q    Type
REMARK                         _______ _______ _______ _____ _____    ______ ____
ROOT
ATOM      1  N   UNL     1       1.933   7.277  18.802  0.00  0.00    +0.000 N 
ATOM      2  C   UNL     1       3.006   6.431  18.772  0.00  0.00    +0.000 C 
ATOM      3  O   UNL     1       4.119   6.775  19.176  0.00  0.00    +0.000 OA
ATOM      4  N   UNL     1       2.763   5.167  18.287  0.00  0.00    +0.000 N 
ATOM      5  C   UNL     1       1.519   4.601  17.795  0.00  0.00    +0.000 C 
ATOM      6  C   UNL     1       1.584   3.150  18.225  0.00  0.00    +0.000 C 
ATOM      7  C   UNL     1       3.064   2.803  18.121  0.00  0.00    +0.000 C 
ATOM      8  C   UNL     1       3.808   4.137  18.346  0.00  0.00    +0.000 C 
ATOM      9  H   UNL     1       1.017   6.914  18.612  0.00  0.00    +0.000 HD
ENDROOT
BRANCH   8  10
ATOM     10  C   UNL     1       4.912   4.285  17.312  0.00  0.00    +0.000 A 
ATOM     11  C   UNL     1       6.234   4.507  17.738  0.00  0.00    +0.000 A 
ATOM     12  C   UNL     1       7.287   4.561  16.818  0.00  0.00    +0.000 A 
ATOM     13  C   UNL     1       7.034   4.388  15.460  0.00  0.00    +0.000 A 
ATOM     14  C   UNL     1       5.731   4.170  15.033  0.00  0.00    +0.000 A 
ATOM     15  F   UNL     1       5.487   3.993  13.727  0.00  0.00    +0.000 F 
ATOM     16  C   UNL     1       4.676   4.115  15.938  0.00  0.00    +0.000 A 
ENDBRANCH   8  10
BRANCH   1  20
ATOM     17  N   UNL     1      -0.370  10.167  19.185  0.00  0.00    +0.000 N 
ATOM     18  C   UNL     1      -0.339   9.076  20.152  0.00  0.00    +0.000 C 
ATOM     19  C   UNL     1       1.123   8.855  20.541  0.00  0.00    +0.000 C 
ATOM     20  C   UNL     1       2.041   8.638  19.324  0.00  0.00    +0.000 C 
ATOM     21  C   UNL     1       1.796   9.691  18.230  0.00  0.00    +0.000 C 
ATOM     22  C   UNL     1       0.311   9.877  17.923  0.00  0.00    +0.000 C 
BRANCH  17  26
ATOM     23  C   UNL     1      -3.264  13.418  21.429  0.00  0.00    +0.000 C 
ATOM     24  C   UNL     1      -2.919  12.526  20.274  0.00  0.00    +0.000 A 
ATOM     25  C   UNL     1      -1.707  11.866  20.221  0.00  0.00    +0.000 A 
ATOM     26  C   UNL     1      -1.499  10.978  19.178  0.00  0.00    +0.000 A 
ATOM     27  N   UNL     1      -2.443  10.790  18.239  0.00  0.00    +0.000 NA
ATOM     28  C   UNL     1      -3.588  11.489  18.350  0.00  0.00    +0.000 A 
ATOM     29  C   UNL     1      -4.659  11.237  17.338  0.00  0.00    +0.000 C 
ATOM     30  N   UNL     1      -3.869  12.356  19.337  0.00  0.00    +0.000 NA
ENDBRANCH  17  26
ENDBRANCH   1  20
TORSDOF 3
ENDMDL
MODEL 2
REMARK VINA RESULT:      -7.9      0.971      1.318
REMARK  Name = 
REMARK  5 active torsions:
REMARK  status: ('A' for Active; 'I' for Inactive)
REMARK    1  A    between atoms: C_1  and  C_2
REMARK    2  A    between atoms: C_4  and  N_5
REMARK    3  A    between atoms: C_8  and  N_9
REMARK    4  A    between atoms: C_16  and  C_17
REMARK    5  A    between atoms: C_27  and  C_28
REMARK                            x       y       z     vdW  Elec       q    Type
REMARK                         _______ _______ _______ _____ _____    ______ ____
ROOT
ATOM      1  N   UNL     1       1.846   7.311  18.776  0.00  0.00    +0.000 N 
ATOM      2  C   UNL     1       2.857   6.397  18.880  0.00  0.00    +0.000 C 
ATOM      3  O   UNL     1       3.940   6.678  19.398  0.00  0.00    +0.000 OA
ATOM      4  N   UNL     1       2.584   5.139  18.393  0.00  0.00    +0.000 N 
ATOM      5  C   UNL     1       1.366   4.643  17.778  0.00  0.00    +0.000 C 
ATOM      6  C   UNL     1       1.287   3.202  18.238  0.00  0.00    +0.000 C 
ATOM      7  C   UNL     1       2.743   2.758  18.304  0.00  0.00    +0.000 C 
ATOM      8  C   UNL     1       3.545   4.046  18.586  0.00  0.00    +0.000 C 
ATOM      9  H   UNL     1       0.934   7.003  18.493  0.00  0.00    +0.000 HD
ENDROOT
BRANCH   8  10
ATOM     10  C   UNL     1       4.763   4.097  17.677  0.00  0.00    +0.000 A 
ATOM     11  C   UNL     1       4.587   4.059  16.282  0.00  0.00    +0.000 A 
ATOM     12  C   UNL     1       5.677   4.191  15.416  0.00  0.00    +0.000 A 
ATOM     13  C   UNL     1       6.959   4.369  15.931  0.00  0.00    +0.000 A 
ATOM     14  C   UNL     1       7.139   4.405  17.307  0.00  0.00    +0.000 A 
ATOM     15  F   UNL     1       8.370   4.587  17.806  0.00  0.00    +0.000 F 
ATOM     16  C   UNL     1       6.062   4.275  18.179  0.00  0.00    +0.000 A 
ENDBRANCH   8  10
BRANCH   1  20
ATOM     17  N   UNL     1      -0.410  10.230  19.214  0.00  0.00    +0.000 N 
ATOM     18  C   UNL     1      -0.358   9.147  20.189  0.00  0.00    +0.000 C 
ATOM     19  C   UNL     1       1.114   8.912  20.529  0.00  0.00    +0.000 C 
ATOM     20  C   UNL     1       1.987   8.675  19.284  0.00  0.00    +0.000 C 
ATOM     21  C   UNL     1       1.717   9.721  18.190  0.00  0.00    +0.000 C 
ATOM     22  C   UNL     1       0.224   9.923  17.932  0.00  0.00    +0.000 C 
BRANCH  17  26
ATOM     23  C   UNL     1      -3.213  13.498  21.547  0.00  0.00    +0.000 C 
ATOM     24  C   UNL     1      -2.905  12.610  20.378  0.00  0.00    +0.000 A 
ATOM     25  C   UNL     1      -1.703  11.937  20.293  0.00  0.00    +0.000 A 
ATOM     26  C   UNL     1      -1.529  11.054  19.239  0.00  0.00    +0.000 A 
ATOM     27  N   UNL     1      -2.497  10.884  18.321  0.00  0.00    +0.000 NA
ATOM     28  C   UNL     1      -3.630  11.595  18.464  0.00  0.00    +0.000 A 
ATOM     29  C   UNL     1      -4.727  11.363  17.475  0.00  0.00    +0.000 C 
ATOM     30  N   UNL     1      -3.878  12.458  19.463  0.00  0.00    +0.000 NA
ENDBRANCH  17  26
ENDBRANCH   1  20
TORSDOF 3
ENDMDL
MODEL 3
REMARK VINA RESULT:      -7.8      3.680      9.853
REMARK  Name = 
REMARK  5 active torsions:
REMARK  status: ('A' for Active; 'I' for Inactive)
REMARK    1  A    between atoms: C_1  and  C_2
REMARK    2  A    between atoms: C_4  and  N_5
REMARK    3  A    between atoms: C_8  and  N_9
REMARK    4  A    between atoms: C_16  and  C_17
REMARK    5  A    between atoms: C_27  and  C_28
REMARK                            x       y       z     vdW  Elec       q    Type
REMARK                         _______ _______ _______ _____ _____    ______ ____
ROOT
ATOM      1  N   UNL     1      -0.352  10.051  17.921  0.00  0.00    +0.000 N 
ATOM      2  C   UNL     1      -1.391  10.923  18.101  0.00  0.00    +0.000 C 
ATOM      3  O   UNL     1      -1.356  11.810  18.957  0.00  0.00    +0.000 OA
ATOM      4  N   UNL     1      -2.463  10.764  17.255  0.00  0.00    +0.000 N 
ATOM      5  C   UNL     1      -2.652   9.792  16.192  0.00  0.00    +0.000 C 
ATOM      6  C   UNL     1      -3.436  10.551  15.141  0.00  0.00    +0.000 C 
ATOM      7  C   UNL     1      -4.333  11.479  15.952  0.00  0.00    +0.000 C 
ATOM      8  C   UNL     1      -3.566  11.734  17.267  0.00  0.00    +0.000 C 
ATOM      9  H   UNL     1      -0.352   9.449  17.119  0.00  0.00    +0.000 HD
ENDROOT
BRANCH   8  10
ATOM     10  C   UNL     1      -4.518  11.607  18.444  0.00  0.00    +0.000 A 
ATOM     11  C   UNL     1      -4.438  12.532  19.502  0.00  0.00    +0.000 A 
ATOM     12  C   UNL     1      -5.354  12.497  20.558  0.00  0.00    +0.000 A 
ATOM     13  C   UNL     1      -6.368  11.542  20.570  0.00  0.00    +0.000 A 
ATOM     14  C   UNL     1      -6.451  10.626  19.530  0.00  0.00    +0.000 A 
ATOM     15  F   UNL     1      -7.431   9.712  19.535  0.00  0.00    +0.000 F 
ATOM     16  C   UNL     1      -5.545  10.650  18.475  0.00  0.00    +0.000 A 
ENDBRANCH   8  10
BRANCH   1  20
ATOM     17  N   UNL     1       2.071   7.605  19.315  0.00  0.00    +0.000 N 
ATOM     18  C   UNL     1       2.155   8.067  17.934  0.00  0.00    +0.000 C 
ATOM     19  C   UNL     1       2.089   9.594  17.962  0.00  0.00    +0.000 C 
ATOM     20  C   UNL     1       0.865  10.129  18.727  0.00  0.00    +0.000 C 
ATOM     21  C   UNL     1       0.694   9.432  20.087  0.00  0.00    +0.000 C 
ATOM     22  C   UNL     1       0.805   7.911  19.981  0.00  0.00    +0.000 C 
BRANCH  17  26
ATOM     23  C   UNL     1       5.668   4.404  18.424  0.00  0.00    +0.000 C 
ATOM     24  C   UNL     1       4.458   4.861  19.183  0.00  0.00    +0.000 A 
ATOM     25  C   UNL     1       3.917   6.113  18.973  0.00  0.00    +0.000 A 
ATOM     26  C   UNL     1       2.739   6.428  19.632  0.00  0.00    +0.000 A 
ATOM     27  N   UNL     1       2.163   5.544  20.466  0.00  0.00    +0.000 NA
ATOM     28  C   UNL     1       2.766   4.353  20.633  0.00  0.00    +0.000 A 
ATOM     29  C   UNL     1       2.095   3.350  21.516  0.00  0.00    +0.000 C 
ATOM     30  N   UNL     1       3.899   3.970  20.021  0.00  0.00    +0.000 NA
ENDBRANCH  17  26
ENDBRANCH   1  20
TORSDOF 3
ENDMDL
MODEL 4
REMARK VINA RESULT:      -7.8      0.542      1.556
REMARK  Name = 
REMARK  5 active torsions:
REMARK  status: ('A' for Active; 'I' for Inactive)
REMARK    1  A    between atoms: C_1  and  C_2
REMARK    2  A    between atoms: C_4  and  N_5
REMARK    3  A    between atoms: C_8  and  N_9
REMARK    4  A    between atoms: C_16  and  C_17
REMARK    5  A    between atoms: C_27  and  C_28
REMARK                            x       y       z     vdW  Elec       q    Type
REMARK                         _______ _______ _______ _____ _____    ______ ____
ROOT
ATOM      1  N   UNL     1       2.018   7.140  18.811  0.00  0.00    +0.000 N 
ATOM      2  C   UNL     1       3.113   6.326  18.721  0.00  0.00    +0.000 C 
ATOM      3  O   UNL     1       4.233   6.696  19.080  0.00  0.00    +0.000 OA
ATOM      4  N   UNL     1       2.884   5.062  18.229  0.00  0.00    +0.000 N 
ATOM      5  C   UNL     1       1.636   4.467  17.785  0.00  0.00    +0.000 C 
ATOM      6  C   UNL     1       1.761   3.013  18.190  0.00  0.00    +0.000 C 
ATOM      7  C   UNL     1       3.244   2.710  18.015  0.00  0.00    +0.000 C 
ATOM      8  C   UNL     1       3.959   4.062  18.227  0.00  0.00    +0.000 C 
ATOM      9  H   UNL     1       1.106   6.753  18.657  0.00  0.00    +0.000 HD
ENDROOT
BRANCH   8  10
ATOM     10  C   UNL     1       5.011   4.256  17.147  0.00  0.00    +0.000 A 
ATOM     11  C   UNL     1       6.336   4.552  17.516  0.00  0.00    +0.000 A 
ATOM     12  C   UNL     1       7.346   4.651  16.553  0.00  0.00    +0.000 A 
ATOM     13  C   UNL     1       7.048   4.448  15.208  0.00  0.00    +0.000 A 
ATOM     14  C   UNL     1       5.742   4.157  14.837  0.00  0.00    +0.000 A 
ATOM     15  F   UNL     1       5.455   3.952  13.544  0.00  0.00    +0.000 F 
ATOM     16  C   UNL     1       4.729   4.057  15.785  0.00  0.00    +0.000 A 
ENDBRANCH   8  10
BRANCH   1  20
ATOM     17  N   UNL     1      -0.337   9.971  19.302  0.00  0.00    +0.000 N 
ATOM     18  C   UNL     1      -0.252   8.869  20.254  0.00  0.00    +0.000 C 
ATOM     19  C   UNL     1       1.226   8.677  20.595  0.00  0.00    +0.000 C 
ATOM     20  C   UNL     1       2.111   8.497  19.349  0.00  0.00    +0.000 C 
ATOM     21  C   UNL     1       1.810   9.557  18.277  0.00  0.00    +0.000 C 
ATOM     22  C   UNL     1       0.312   9.713  18.017  0.00  0.00    +0.000 C 
BRANCH  17  26
ATOM     23  C   UNL     1      -4.469  11.538  17.193  0.00  0.00    +0.000 C 
ATOM     24  C   UNL     1      -3.467  11.540  18.308  0.00  0.00    +0.000 A 
ATOM     25  C   UNL     1      -2.431  10.628  18.337  0.00  0.00    +0.000 A 
ATOM     26  C   UNL     1      -1.484  10.755  19.340  0.00  0.00    +0.000 A 
ATOM     27  N   UNL     1      -1.592  11.725  20.266  0.00  0.00    +0.000 NA
ATOM     28  C   UNL     1      -2.644  12.560  20.180  0.00  0.00    +0.000 A 
ATOM     29  C   UNL     1      -2.732  13.672  21.175  0.00  0.00    +0.000 C 
ATOM     30  N   UNL     1      -3.594  12.509  19.231  0.00  0.00    +0.000 NA
ENDBRANCH  17  26
ENDBRANCH   1  20
TORSDOF 3
ENDMDL
MODEL 5
REMARK VINA RESULT:      -7.7      4.738     10.013
REMARK  Name = 
REMARK  5 active torsions:
REMARK  status: ('A' for Active; 'I' for Inactive)
REMARK    1  A    between atoms: C_1  and  C_2
REMARK    2  A    between atoms: C_4  and  N_5
REMARK    3  A    between atoms: C_8  and  N_9
REMARK    4  A    between atoms: C_16  and  C_17
REMARK    5  A    between atoms: C_27  and  C_28
REMARK                            x       y       z     vdW  Elec       q    Type
REMARK                         _______ _______ _______ _____ _____    ______ ____
ROOT
ATOM      1  N   UNL     1       1.299  11.581  19.669  0.00  0.00    +0.000 N 
ATOM      2  C   UNL     1       0.750  12.822  19.841  0.00  0.00    +0.000 C 
ATOM      3  O   UNL     1      -0.447  13.038  19.642  0.00  0.00    +0.000 OA
ATOM      4  N   UNL     1       1.610  13.806  20.270  0.00  0.00    +0.000 N 
ATOM      5  C   UNL     1       3.029  13.713  20.566  0.00  0.00    +0.000 C 
ATOM      6  C   UNL     1       3.223  14.676  21.720  0.00  0.00    +0.000 C 
ATOM      7  C   UNL     1       2.233  15.798  21.432  0.00  0.00    +0.000 C 
ATOM      8  C   UNL     1       1.096  15.135  20.624  0.00  0.00    +0.000 C 
ATOM      9  H   UNL     1       2.235  11.411  19.988  0.00  0.00    +0.000 HD
ENDROOT
BRANCH   8  10
ATOM     10  C   UNL     1       0.732  16.017  19.441  0.00  0.00    +0.000 A 
ATOM     11  C   UNL     1      -0.594  16.462  19.292  0.00  0.00    +0.000 A 
ATOM     12  C   UNL     1      -0.946  17.344  18.265  0.00  0.00    +0.000 A 
ATOM     13  C   UNL     1       0.024  17.799  17.376  0.00  0.00    +0.000 A 
ATOM     14  C   UNL     1       1.334  17.362  17.516  0.00  0.00    +0.000 A 
ATOM     15  F   UNL     1       2.271  17.806  16.667  0.00  0.00    +0.000 F 
ATOM     16  C   UNL     1       1.696  16.484  18.533  0.00  0.00    +0.000 A 
ENDBRANCH   8  10
BRANCH   1  20
ATOM     17  N   UNL     1       1.817   7.909  19.441  0.00  0.00    +0.000 N 
ATOM     18  C   UNL     1       1.453   8.557  20.696  0.00  0.00    +0.000 C 
ATOM     19  C   UNL     1       0.249   9.455  20.411  0.00  0.00    +0.000 C 
ATOM     20  C   UNL     1       0.493  10.435  19.249  0.00  0.00    +0.000 C 
ATOM     21  C   UNL     1       1.100   9.729  18.025  0.00  0.00    +0.000 C 
ATOM     22  C   UNL     1       2.275   8.826  18.397  0.00  0.00    +0.000 C 
BRANCH  17  26
ATOM     23  C   UNL     1       2.033   3.510  21.580  0.00  0.00    +0.000 C 
ATOM     24  C   UNL     1       2.501   4.519  20.574  0.00  0.00    +0.000 A 
ATOM     25  C   UNL     1       1.823   5.707  20.391  0.00  0.00    +0.000 A 
ATOM     26  C   UNL     1       2.371   6.637  19.521  0.00  0.00    +0.000 A 
ATOM     27  N   UNL     1       3.513   6.370  18.864  0.00  0.00    +0.000 NA
ATOM     28  C   UNL     1       4.100   5.179  19.082  0.00  0.00    +0.000 A 
ATOM     29  C   UNL     1       5.400   4.907  18.394  0.00  0.00    +0.000 C 
ATOM     30  N   UNL     1       3.639   4.234  19.918  0.00  0.00    +0.000 NA
ENDBRANCH  17  26
ENDBRANCH   1  20
TORSDOF 3
ENDMDL
MODEL 6
REMARK VINA RESULT:      -7.6      1.113      2.034
REMARK  Name = 
REMARK  5 active torsions:
REMARK  status: ('A' for Active; 'I' for Inactive)
REMARK    1  A    between atoms: C_1  and  C_2
REMARK    2  A    between atoms: C_4  and  N_5
REMARK    3  A    between atoms: C_8  and  N_9
REMARK    4  A    between atoms: C_16  and  C_17
REMARK    5  A    between atoms: C_27  and  C_28
REMARK                            x       y       z     vdW  Elec       q    Type
REMARK                         _______ _______ _______ _____ _____    ______ ____
ROOT
ATOM      1  N   UNL     1       1.857   7.321  18.700  0.00  0.00    +0.000 N 
ATOM      2  C   UNL     1       2.883   6.425  18.831  0.00  0.00    +0.000 C 
ATOM      3  O   UNL     1       3.958   6.737  19.346  0.00  0.00    +0.000 OA
ATOM      4  N   UNL     1       2.632   5.152  18.375  0.00  0.00    +0.000 N 
ATOM      5  C   UNL     1       1.424   4.621  17.767  0.00  0.00    +0.000 C 
ATOM      6  C   UNL     1       1.366   3.191  18.262  0.00  0.00    +0.000 C 
ATOM      7  C   UNL     1       2.829   2.772  18.345  0.00  0.00    +0.000 C 
ATOM      8  C   UNL     1       3.609   4.080  18.598  0.00  0.00    +0.000 C 
ATOM      9  H   UNL     1       0.952   6.991  18.421  0.00  0.00    +0.000 HD
ENDROOT
BRANCH   8  10
ATOM     10  C   UNL     1       4.830   4.127  17.694  0.00  0.00    +0.000 A 
ATOM     11  C   UNL     1       4.657   4.109  16.298  0.00  0.00    +0.000 A 
ATOM     12  C   UNL     1       5.752   4.239  15.436  0.00  0.00    +0.000 A 
ATOM     13  C   UNL     1       7.034   4.395  15.958  0.00  0.00    +0.000 A 
ATOM     14  C   UNL     1       7.211   4.411  17.334  0.00  0.00    +0.000 A 
ATOM     15  F   UNL     1       8.442   4.571  17.839  0.00  0.00    +0.000 F 
ATOM     16  C   UNL     1       6.130   4.282  18.201  0.00  0.00    +0.000 A 
ENDBRANCH   8  10
BRANCH   1  20
ATOM     17  N   UNL     1      -0.489  10.145  19.266  0.00  0.00    +0.000 N 
ATOM     18  C   UNL     1      -0.313   9.083  20.251  0.00  0.00    +0.000 C 
ATOM     19  C   UNL     1       1.190   8.921  20.479  0.00  0.00    +0.000 C 
ATOM     20  C   UNL     1       1.974   8.699  19.174  0.00  0.00    +0.000 C 
ATOM     21  C   UNL     1       1.573   9.711  18.088  0.00  0.00    +0.000 C 
ATOM     22  C   UNL     1       0.058   9.841  17.944  0.00  0.00    +0.000 C 
BRANCH  17  26
ATOM     23  C   UNL     1      -4.722  11.703  17.361  0.00  0.00    +0.000 C 
ATOM     24  C   UNL     1      -3.673  11.699  18.432  0.00  0.00    +0.000 A 
ATOM     25  C   UNL     1      -2.629  10.796  18.402  0.00  0.00    +0.000 A 
ATOM     26  C   UNL     1      -1.640  10.918  19.365  0.00  0.00    +0.000 A 
ATOM     27  N   UNL     1      -1.716  11.874  20.308  0.00  0.00    +0.000 NA
ATOM     28  C   UNL     1      -2.778  12.701  20.280  0.00  0.00    +0.000 A 
ATOM     29  C   UNL     1      -2.832  13.798  21.294  0.00  0.00    +0.000 C 
ATOM     30  N   UNL     1      -3.767  12.654  19.373  0.00  0.00    +0.000 NA
ENDBRANCH  17  26
ENDBRANCH   1  20
TORSDOF 3
ENDMDL
MODEL 7
REMARK VINA RESULT:      -7.5      3.633     10.002
REMARK  Name = 
REMARK  5 active torsions:
REMARK  status: ('A' for Active; 'I' for Inactive)
REMARK    1  A    between atoms: C_1  and  C_2
REMARK    2  A    between atoms: C_4  and  N_5
REMARK    3  A    between atoms: C_8  and  N_9
REMARK    4  A    between atoms: C_16  and  C_17
REMARK    5  A    between atoms: C_27  and  C_28
REMARK                            x       y       z     vdW  Elec       q    Type
REMARK                         _______ _______ _______ _____ _____    ______ ____
ROOT
ATOM      1  N   UNL     1      -0.336   9.904  18.388  0.00  0.00    +0.000 N 
ATOM      2  C   UNL     1      -1.219  10.941  18.508  0.00  0.00    +0.000 C 
ATOM      3  O   UNL     1      -0.944  11.962  19.142  0.00  0.00    +0.000 OA
ATOM      4  N   UNL     1      -2.422  10.785  17.858  0.00  0.00    +0.000 N 
ATOM      5  C   UNL     1      -2.890   9.666  17.060  0.00  0.00    +0.000 C 
ATOM      6  C   UNL     1      -3.729  10.315  15.979  0.00  0.00    +0.000 C 
ATOM      7  C   UNL     1      -4.369  11.508  16.679  0.00  0.00    +0.000 C 
ATOM      8  C   UNL     1      -3.382  11.895  17.801  0.00  0.00    +0.000 C 
ATOM      9  H   UNL     1      -0.533   9.165  17.740  0.00  0.00    +0.000 HD
ENDROOT
BRANCH   8  10
ATOM     10  C   UNL     1      -4.148  12.145  19.089  0.00  0.00    +0.000 A 
ATOM     11  C   UNL     1      -5.457  11.647  19.224  0.00  0.00    +0.000 A 
ATOM     12  C   UNL     1      -6.159  11.784  20.426  0.00  0.00    +0.000 A 
ATOM     13  C   UNL     1      -5.560  12.414  21.514  0.00  0.00    +0.000 A 
ATOM     14  C   UNL     1      -4.270  12.910  21.387  0.00  0.00    +0.000 A 
ATOM     15  F   UNL     1      -3.688  13.509  22.435  0.00  0.00    +0.000 F 
ATOM     16  C   UNL     1      -3.562  12.781  20.196  0.00  0.00    +0.000 A 
ENDBRANCH   8  10
BRANCH   1  20
ATOM     17  N   UNL     1       2.224   7.400  19.376  0.00  0.00    +0.000 N 
ATOM     18  C   UNL     1       2.105   7.875  18.002  0.00  0.00    +0.000 C 
ATOM     19  C   UNL     1       2.074   9.403  18.051  0.00  0.00    +0.000 C 
ATOM     20  C   UNL     1       0.992   9.951  18.999  0.00  0.00    +0.000 C 
ATOM     21  C   UNL     1       1.018   9.244  20.364  0.00  0.00    +0.000 C 
ATOM     22  C   UNL     1       1.082   7.723  20.230  0.00  0.00    +0.000 C 
BRANCH  17  26
ATOM     23  C   UNL     1       5.781   4.289  18.091  0.00  0.00    +0.000 C 
ATOM     24  C   UNL     1       4.609   4.686  18.939  0.00  0.00    +0.000 A 
ATOM     25  C   UNL     1       4.055   5.946  18.842  0.00  0.00    +0.000 A 
ATOM     26  C   UNL     1       2.910   6.208  19.578  0.00  0.00    +0.000 A 
ATOM     27  N   UNL     1       2.378   5.266  20.377  0.00  0.00    +0.000 NA
ATOM     28  C   UNL     1       2.992   4.070  20.432  0.00  0.00    +0.000 A 
ATOM     29  C   UNL     1       2.368   3.005  21.275  0.00  0.00    +0.000 C 
ATOM     30  N   UNL     1       4.094   3.736  19.740  0.00  0.00    +0.000 NA
ENDBRANCH  17  26
ENDBRANCH   1  20
TORSDOF 3
ENDMDL
MODEL 8
REMARK VINA RESULT:      -7.4      3.739     10.102
REMARK  Name = 
REMARK  5 active torsions:
REMARK  status: ('A' for Active; 'I' for Inactive)
REMARK    1  A    between atoms: C_1  and  C_2
REMARK    2  A    between atoms: C_4  and  N_5
REMARK    3  A    between atoms: C_8  and  N_9
REMARK    4  A    between atoms: C_16  and  C_17
REMARK    5  A    between atoms: C_27  and  C_28
REMARK                            x       y       z     vdW  Elec       q    Type
REMARK                         _______ _______ _______ _____ _____    ______ ____
ROOT
ATOM      1  N   UNL     1      -0.269   9.842  18.684  0.00  0.00    +0.000 N 
ATOM      2  C   UNL     1      -1.085  10.930  18.830  0.00  0.00    +0.000 C 
ATOM      3  O   UNL     1      -0.715  11.949  19.418  0.00  0.00    +0.000 OA
ATOM      4  N   UNL     1      -2.333  10.827  18.261  0.00  0.00    +0.000 N 
ATOM      5  C   UNL     1      -2.912   9.717  17.524  0.00  0.00    +0.000 C 
ATOM      6  C   UNL     1      -3.781  10.387  16.480  0.00  0.00    +0.000 C 
ATOM      7  C   UNL     1      -4.308  11.630  17.185  0.00  0.00    +0.000 C 
ATOM      8  C   UNL     1      -3.232  11.987  18.234  0.00  0.00    +0.000 C 
ATOM      9  H   UNL     1      -0.548   9.100  18.070  0.00  0.00    +0.000 HD
ENDROOT
BRANCH   8  10
ATOM     10  C   UNL     1      -3.901  12.310  19.559  0.00  0.00    +0.000 A 
ATOM     11  C   UNL     1      -3.216  13.092  20.508  0.00  0.00    +0.000 A 
ATOM     12  C   UNL     1      -3.833  13.480  21.701  0.00  0.00    +0.000 A 
ATOM     13  C   UNL     1      -5.148  13.100  21.961  0.00  0.00    +0.000 A 
ATOM     14  C   UNL     1      -5.829  12.328  21.030  0.00  0.00    +0.000 A 
ATOM     15  F   UNL     1      -7.097  11.968  21.273  0.00  0.00    +0.000 F 
ATOM     16  C   UNL     1      -5.224  11.934  19.840  0.00  0.00    +0.000 A 
ENDBRANCH   8  10
BRANCH   1  20
ATOM     17  N   UNL     1       2.355   7.263  19.197  0.00  0.00    +0.000 N 
ATOM     18  C   UNL     1       2.145   7.898  17.901  0.00  0.00    +0.000 C 
ATOM     19  C   UNL     1       2.115   9.409  18.136  0.00  0.00    +0.000 C 
ATOM     20  C   UNL     1       1.095   9.829  19.210  0.00  0.00    +0.000 C 
ATOM     21  C   UNL     1       1.211   8.963  20.475  0.00  0.00    +0.000 C 
ATOM     22  C   UNL     1       1.269   7.470  20.155  0.00  0.00    +0.000 C 
BRANCH  17  26
ATOM     23  C   UNL     1       2.919   2.708  20.902  0.00  0.00    +0.000 C 
ATOM     24  C   UNL     1       3.349   3.869  20.058  0.00  0.00    +0.000 A 
ATOM     25  C   UNL     1       2.548   4.985  19.920  0.00  0.00    +0.000 A 
ATOM     26  C   UNL     1       3.055   6.062  19.210  0.00  0.00    +0.000 A 
ATOM     27  N   UNL     1       4.279   6.003  18.657  0.00  0.00    +0.000 NA
ATOM     28  C   UNL     1       4.988   4.871  18.819  0.00  0.00    +0.000 A 
ATOM     29  C   UNL     1       6.371   4.828  18.252  0.00  0.00    +0.000 C 
ATOM     30  N   UNL     1       4.571   3.792  19.503  0.00  0.00    +0.000 NA
ENDBRANCH  17  26
ENDBRANCH   1  20
TORSDOF 3
ENDMDL
MODEL 9
REMARK VINA RESULT:      -7.4      4.422     10.172
REMARK  Name = 
REMARK  5 active torsions:
REMARK  status: ('A' for Active; 'I' for Inactive)
REMARK    1  A    between atoms: C_1  and  C_2
REMARK    2  A    between atoms: C_4  and  N_5
REMARK    3  A    between atoms: C_8  and  N_9
REMARK    4  A    between atoms: C_16  and  C_17
REMARK    5  A    between atoms: C_27  and  C_28
REMARK                            x       y       z     vdW  Elec       q    Type
REMARK                         _______ _______ _______ _____ _____    ______ ____
ROOT
ATOM      1  N   UNL     1       1.147  11.399  19.428  0.00  0.00    +0.000 N 
ATOM      2  C   UNL     1       0.544  12.490  19.990  0.00  0.00    +0.000 C 
ATOM      3  O   UNL     1      -0.662  12.510  20.244  0.00  0.00    +0.000 OA
ATOM      4  N   UNL     1       1.369  13.553  20.275  0.00  0.00    +0.000 N 
ATOM      5  C   UNL     1       2.800  13.682  20.059  0.00  0.00    +0.000 C 
ATOM      6  C   UNL     1       3.271  14.516  21.233  0.00  0.00    +0.000 C 
ATOM      7  C   UNL     1       2.110  15.467  21.496  0.00  0.00    +0.000 C 
ATOM      8  C   UNL     1       0.853  14.714  21.010  0.00  0.00    +0.000 C 
ATOM      9  H   UNL     1       2.148  11.362  19.380  0.00  0.00    +0.000 HD
ENDROOT
BRANCH   8  10
ATOM     10  C   UNL     1      -0.019  15.654  20.193  0.00  0.00    +0.000 A 
ATOM     11  C   UNL     1      -1.235  16.111  20.730  0.00  0.00    +0.000 A 
ATOM     12  C   UNL     1      -2.020  17.043  20.042  0.00  0.00    +0.000 A 
ATOM     13  C   UNL     1      -1.596  17.537  18.810  0.00  0.00    +0.000 A 
ATOM     14  C   UNL     1      -0.397  17.087  18.274  0.00  0.00    +0.000 A 
ATOM     15  F   UNL     1       0.018  17.568  17.094  0.00  0.00    +0.000 F 
ATOM     16  C   UNL     1       0.391  16.160  18.949  0.00  0.00    +0.000 A 
ENDBRANCH   8  10
BRANCH   1  20
ATOM     17  N   UNL     1       1.858   7.752  19.433  0.00  0.00    +0.000 N 
ATOM     18  C   UNL     1       1.485   8.464  20.650  0.00  0.00    +0.000 C 
ATOM     19  C   UNL     1       0.229   9.276  20.335  0.00  0.00    +0.000 C 
ATOM     20  C   UNL     1       0.396  10.186  19.105  0.00  0.00    +0.000 C 
ATOM     21  C   UNL     1       1.014   9.432  17.916  0.00  0.00    +0.000 C 
ATOM     22  C   UNL     1       2.244   8.619  18.319  0.00  0.00    +0.000 C 
BRANCH  17  26
ATOM     23  C   UNL     1       4.844   4.277  17.706  0.00  0.00    +0.000 C 
ATOM     24  C   UNL     1       3.900   4.821  18.736  0.00  0.00    +0.000 A 
ATOM     25  C   UNL     1       3.431   6.117  18.657  0.00  0.00    +0.000 A 
ATOM     26  C   UNL     1       2.481   6.519  19.583  0.00  0.00    +0.000 A 
ATOM     27  N   UNL     1       2.055   5.674  20.538  0.00  0.00    +0.000 NA
ATOM     28  C   UNL     1       2.578   4.434  20.559  0.00  0.00    +0.000 A 
ATOM     29  C   UNL     1       2.061   3.478  21.585  0.00  0.00    +0.000 C 
ATOM     30  N   UNL     1       3.490   3.967  19.690  0.00  0.00    +0.000 NA
ENDBRANCH  17  26
ENDBRANCH   1  20
TORSDOF 3
ENDMDL
