MODEL 1
REMARK VINA RESULT:      -9.0      0.000      0.000
REMARK  Name = 
REMARK  6 active torsions:
REMARK  status: ('A' for Active; 'I' for Inactive)
REMARK    1  A    between atoms: C_1  and  N_2
REMARK    2  A    between atoms: C_6  and  C_7
REMARK    3  A    between atoms: C_7  and  C_8
REMARK    4  A    between atoms: C_8  and  C_9
REMARK    5  A    between atoms: C_13  and  N_14
REMARK    6  A    between atoms: C_21  and  C_22
REMARK                            x       y       z     vdW  Elec       q    Type
REMARK                         _______ _______ _______ _____ _____    ______ ____
ROOT
ATOM      1  C   UNL     1       4.269   4.695  17.880  0.00  0.00    +0.000 A 
ATOM      2  C   UNL     1       4.134   3.741  18.879  0.00  0.00    +0.000 A 
ATOM      3  N   UNL     1       3.417   3.929  20.003  0.00  0.00    +0.000 NA
ATOM      4  C   UNL     1       2.806   5.135  20.149  0.00  0.00    +0.000 A 
ATOM      5  C   UNL     1       2.843   6.163  19.207  0.00  0.00    +0.000 A 
ATOM      6  C   UNL     1       3.595   5.913  18.051  0.00  0.00    +0.000 A 
ENDROOT
BRANCH   5   7
ATOM      7  N   UNL     1       2.158   7.395  19.385  0.00  0.00    +0.000 N 
ATOM      8  C   UNL     1       1.482   7.739  20.628  0.00  0.00    +0.000 C 
ATOM      9  C   UNL     1       0.964   9.119  20.372  0.00  0.00    +0.000 A 
ATOM     10  C   UNL     1       1.301   9.505  19.077  0.00  0.00    +0.000 A 
ATOM     11  C   UNL     1       0.946  10.728  18.540  0.00  0.00    +0.000 A 
ATOM     12  C   UNL     1       0.219  11.601  19.349  0.00  0.00    +0.000 A 
ATOM     13  C   UNL     1      -0.120  11.231  20.665  0.00  0.00    +0.000 A 
ATOM     14  C   UNL     1       0.253   9.980  21.201  0.00  0.00    +0.000 A 
ATOM     15  C   UNL     1       2.067   8.423  18.447  0.00  0.00    +0.000 C 
ATOM     16  O   UNL     1       2.499   8.506  17.314  0.00  0.00    +0.000 OA
BRANCH  14  17
ATOM     17  C   UNL     1      -0.116   9.633  22.621  0.00  0.00    +0.000 C 
ATOM     18  F   UNL     1       0.957   9.349  23.406  0.00  0.00    +0.000 F 
ATOM     19  F   UNL     1      -0.779  10.645  23.243  0.00  0.00    +0.000 F 
ATOM     20  F   UNL     1      -0.931   8.545  22.694  0.00  0.00    +0.000 F 
ENDBRANCH  14  17
ENDBRANCH   5   7
BRANCH   1  21
ATOM     21  C   UNL     1       5.121   4.440  16.664  0.00  0.00    +0.000 C 
BRANCH  21  22
ATOM     22  C   UNL     1       6.626   4.414  16.944  0.00  0.00    +0.000 C 
BRANCH  22  28
ATOM     23  C   UNL     1       7.610   5.479  19.715  0.00  0.00    +0.000 C 
ATOM     24  N   UNL     1       7.592   6.206  18.475  0.00  0.00    +0.000 N 
ATOM     25  C   UNL     1       7.984   7.499  18.304  0.00  0.00    +0.000 A 
ATOM     26  N   UNL     1       7.850   7.834  17.043  0.00  0.00    +0.000 NA
ATOM     27  N   UNL     1       7.340   6.746  16.376  0.00  0.00    +0.000 NA
ATOM     28  C   UNL     1       7.182   5.765  17.243  0.00  0.00    +0.000 A 
ENDBRANCH  22  28
ENDBRANCH  21  22
ENDBRANCH   1  21
TORSDOF 5
ENDMDL
MODEL 2
REMARK VINA RESULT:      -8.8      1.633      2.496
REMARK  Name = 
REMARK  6 active torsions:
REMARK  status: ('A' for Active; 'I' for Inactive)
REMARK    1  A    between atoms: C_1  and  N_2
REMARK    2  A    between atoms: C_6  and  C_7
REMARK    3  A    between atoms: C_7  and  C_8
REMARK    4  A    between atoms: C_8  and  C_9
REMARK    5  A    between atoms: C_13  and  N_14
REMARK    6  A    between atoms: C_21  and  C_22
REMARK                            x       y       z     vdW  Elec       q    Type
REMARK                         _______ _______ _______ _____ _____    ______ ____
ROOT
ATOM      1  C   UNL     1       4.669   5.307  17.970  0.00  0.00    +0.000 A 
ATOM      2  C   UNL     1       4.302   4.158  18.659  0.00  0.00    +0.000 A 
ATOM      3  N   UNL     1       3.288   4.106  19.543  0.00  0.00    +0.000 NA
ATOM      4  C   UNL     1       2.604   5.260  19.764  0.00  0.00    +0.000 A 
ATOM      5  C   UNL     1       2.857   6.470  19.117  0.00  0.00    +0.000 A 
ATOM      6  C   UNL     1       3.916   6.468  18.199  0.00  0.00    +0.000 A 
ENDROOT
BRANCH   5   7
ATOM      7  N   UNL     1       2.091   7.643  19.351  0.00  0.00    +0.000 N 
ATOM      8  C   UNL     1       1.430   7.901  20.623  0.00  0.00    +0.000 C 
ATOM      9  C   UNL     1       0.808   9.247  20.424  0.00  0.00    +0.000 A 
ATOM     10  C   UNL     1       1.078   9.694  19.133  0.00  0.00    +0.000 A 
ATOM     11  C   UNL     1       0.621  10.903  18.644  0.00  0.00    +0.000 A 
ATOM     12  C   UNL     1      -0.142  11.698  19.500  0.00  0.00    +0.000 A 
ATOM     13  C   UNL     1      -0.415  11.267  20.812  0.00  0.00    +0.000 A 
ATOM     14  C   UNL     1       0.062  10.031  21.299  0.00  0.00    +0.000 A 
ATOM     15  C   UNL     1       1.900   8.689  18.449  0.00  0.00    +0.000 C 
ATOM     16  O   UNL     1       2.290   8.836  17.307  0.00  0.00    +0.000 OA
BRANCH  14  17
ATOM     17  C   UNL     1      -0.239   9.617  22.717  0.00  0.00    +0.000 C 
ATOM     18  F   UNL     1      -0.993  10.520  23.398  0.00  0.00    +0.000 F 
ATOM     19  F   UNL     1      -0.916   8.440  22.777  0.00  0.00    +0.000 F 
ATOM     20  F   UNL     1       0.891   9.442  23.456  0.00  0.00    +0.000 F 
ENDBRANCH  14  17
ENDBRANCH   5   7
BRANCH   1  21
ATOM     21  C   UNL     1       5.842   5.311  17.025  0.00  0.00    +0.000 C 
BRANCH  21  22
ATOM     22  C   UNL     1       5.635   4.473  15.760  0.00  0.00    +0.000 C 
BRANCH  22  28
ATOM     23  C   UNL     1       5.589   3.461  12.801  0.00  0.00    +0.000 C 
ATOM     24  N   UNL     1       6.566   4.332  13.393  0.00  0.00    +0.000 N 
ATOM     25  C   UNL     1       7.656   4.851  12.764  0.00  0.00    +0.000 A 
ATOM     26  N   UNL     1       8.320   5.615  13.597  0.00  0.00    +0.000 NA
ATOM     27  N   UNL     1       7.665   5.584  14.803  0.00  0.00    +0.000 NA
ATOM     28  C   UNL     1       6.607   4.806  14.680  0.00  0.00    +0.000 A 
ENDBRANCH  22  28
ENDBRANCH  21  22
ENDBRANCH   1  21
TORSDOF 5
ENDMDL
MODEL 3
REMARK VINA RESULT:      -8.8      1.818      3.700
REMARK  Name = 
REMARK  6 active torsions:
REMARK  status: ('A' for Active; 'I' for Inactive)
REMARK    1  A    between atoms: C_1  and  N_2
REMARK    2  A    between atoms: C_6  and  C_7
REMARK    3  A    between atoms: C_7  and  C_8
REMARK    4  A    between atoms: C_8  and  C_9
REMARK    5  A    between atoms: C_13  and  N_14
REMARK    6  A    between atoms: C_21  and  C_22
REMARK                            x       y       z     vdW  Elec       q    Type
REMARK                         _______ _______ _______ _____ _____    ______ ____
ROOT
ATOM      1  C   UNL     1       2.994   4.543  17.718  0.00  0.00    +0.000 A 
ATOM      2  C   UNL     1       4.375   4.630  17.839  0.00  0.00    +0.000 A 
ATOM      3  N   UNL     1       5.020   5.722  18.292  0.00  0.00    +0.000 NA
ATOM      4  C   UNL     1       4.254   6.791  18.635  0.00  0.00    +0.000 A 
ATOM      5  C   UNL     1       2.860   6.819  18.584  0.00  0.00    +0.000 A 
ATOM      6  C   UNL     1       2.237   5.654  18.115  0.00  0.00    +0.000 A 
ENDROOT
BRANCH   5   7
ATOM      7  N   UNL     1       2.098   7.948  18.989  0.00  0.00    +0.000 N 
ATOM      8  C   UNL     1       1.478   8.039  20.304  0.00  0.00    +0.000 C 
ATOM      9  C   UNL     1       0.845   9.394  20.295  0.00  0.00    +0.000 A 
ATOM     10  C   UNL     1       1.069  10.002  19.062  0.00  0.00    +0.000 A 
ATOM     11  C   UNL     1       0.591  11.258  18.743  0.00  0.00    +0.000 A 
ATOM     12  C   UNL     1      -0.146  11.933  19.716  0.00  0.00    +0.000 A 
ATOM     13  C   UNL     1      -0.373  11.340  20.973  0.00  0.00    +0.000 A 
ATOM     14  C   UNL     1       0.125  10.056  21.285  0.00  0.00    +0.000 A 
ATOM     15  C   UNL     1       1.872   9.096  18.231  0.00  0.00    +0.000 C 
ATOM     16  O   UNL     1       2.224   9.388  17.105  0.00  0.00    +0.000 OA
BRANCH  14  17
ATOM     17  C   UNL     1      -0.126   9.466  22.649  0.00  0.00    +0.000 C 
ATOM     18  F   UNL     1       1.012   9.181  23.336  0.00  0.00    +0.000 F 
ATOM     19  F   UNL     1      -0.846  10.300  23.447  0.00  0.00    +0.000 F 
ATOM     20  F   UNL     1      -0.828   8.302  22.589  0.00  0.00    +0.000 F 
ENDBRANCH  14  17
ENDBRANCH   5   7
BRANCH   1  21
ATOM     21  C   UNL     1       2.334   3.308  17.164  0.00  0.00    +0.000 C 
BRANCH  21  22
ATOM     22  C   UNL     1       2.403   2.088  18.087  0.00  0.00    +0.000 C 
BRANCH  22  28
ATOM     23  C   UNL     1       4.493   2.156  20.413  0.00  0.00    +0.000 C 
ATOM     24  N   UNL     1       3.087   2.435  20.517  0.00  0.00    +0.000 N 
ATOM     25  C   UNL     1       2.421   2.757  21.659  0.00  0.00    +0.000 A 
ATOM     26  N   UNL     1       1.155   2.961  21.385  0.00  0.00    +0.000 NA
ATOM     27  N   UNL     1       0.981   2.749  20.039  0.00  0.00    +0.000 NA
ATOM     28  C   UNL     1       2.149   2.429  19.516  0.00  0.00    +0.000 A 
ENDBRANCH  22  28
ENDBRANCH  21  22
ENDBRANCH   1  21
TORSDOF 5
ENDMDL
MODEL 4
REMARK VINA RESULT:      -8.6      1.171      1.849
REMARK  Name = 
REMARK  6 active torsions:
REMARK  status: ('A' for Active; 'I' for Inactive)
REMARK    1  A    between atoms: C_1  and  N_2
REMARK    2  A    between atoms: C_6  and  C_7
REMARK    3  A    between atoms: C_7  and  C_8
REMARK    4  A    between atoms: C_8  and  C_9
REMARK    5  A    between atoms: C_13  and  N_14
REMARK    6  A    between atoms: C_21  and  C_22
REMARK                            x       y       z     vdW  Elec       q    Type
REMARK                         _______ _______ _______ _____ _____    ______ ____
ROOT
ATOM      1  C   UNL     1       4.948   4.924  19.281  0.00  0.00    +0.000 A 
ATOM      2  C   UNL     1       4.219   3.743  19.319  0.00  0.00    +0.000 A 
ATOM      3  N   UNL     1       2.882   3.692  19.474  0.00  0.00    +0.000 NA
ATOM      4  C   UNL     1       2.233   4.879  19.608  0.00  0.00    +0.000 A 
ATOM      5  C   UNL     1       2.847   6.131  19.560  0.00  0.00    +0.000 A 
ATOM      6  C   UNL     1       4.238   6.128  19.387  0.00  0.00    +0.000 A 
ENDROOT
BRANCH   5   7
ATOM      7  N   UNL     1       2.123   7.348  19.668  0.00  0.00    +0.000 N 
ATOM      8  C   UNL     1       1.413   7.729  20.881  0.00  0.00    +0.000 C 
ATOM      9  C   UNL     1       0.860   9.079  20.551  0.00  0.00    +0.000 A 
ATOM     10  C   UNL     1       1.211   9.416  19.246  0.00  0.00    +0.000 A 
ATOM     11  C   UNL     1       0.832  10.601  18.645  0.00  0.00    +0.000 A 
ATOM     12  C   UNL     1       0.064  11.488  19.400  0.00  0.00    +0.000 A 
ATOM     13  C   UNL     1      -0.290  11.170  20.725  0.00  0.00    +0.000 A 
ATOM     14  C   UNL     1       0.108   9.957  21.326  0.00  0.00    +0.000 A 
ATOM     15  C   UNL     1       2.021   8.329  18.682  0.00  0.00    +0.000 C 
ATOM     16  O   UNL     1       2.472   8.372  17.554  0.00  0.00    +0.000 OA
BRANCH  14  17
ATOM     17  C   UNL     1      -0.278   9.665  22.753  0.00  0.00    +0.000 C 
ATOM     18  F   UNL     1       0.787   9.458  23.573  0.00  0.00    +0.000 F 
ATOM     19  F   UNL     1      -0.990  10.680  23.312  0.00  0.00    +0.000 F 
ATOM     20  F   UNL     1      -1.056   8.553  22.863  0.00  0.00    +0.000 F 
ENDBRANCH  14  17
ENDBRANCH   5   7
BRANCH   1  21
ATOM     21  C   UNL     1       6.448   4.912  19.147  0.00  0.00    +0.000 C 
BRANCH  21  22
ATOM     22  C   UNL     1       7.000   5.933  18.148  0.00  0.00    +0.000 C 
BRANCH  22  28
ATOM     23  C   UNL     1       4.930   6.753  15.952  0.00  0.00    +0.000 C 
ATOM     24  N   UNL     1       6.013   5.820  15.802  0.00  0.00    +0.000 N 
ATOM     25  C   UNL     1       6.308   5.115  14.675  0.00  0.00    +0.000 A 
ATOM     26  N   UNL     1       7.368   4.373  14.888  0.00  0.00    +0.000 NA
ATOM     27  N   UNL     1       7.766   4.578  16.186  0.00  0.00    +0.000 NA
ATOM     28  C   UNL     1       6.945   5.450  16.738  0.00  0.00    +0.000 A 
ENDBRANCH  22  28
ENDBRANCH  21  22
ENDBRANCH   1  21
TORSDOF 5
ENDMDL
MODEL 5
REMARK VINA RESULT:      -8.5      1.015      1.516
REMARK  Name = 
REMARK  6 active torsions:
REMARK  status: ('A' for Active; 'I' for Inactive)
REMARK    1  A    between atoms: C_1  and  N_2
REMARK    2  A    between atoms: C_6  and  C_7
REMARK    3  A    between atoms: C_7  and  C_8
REMARK    4  A    between atoms: C_8  and  C_9
REMARK    5  A    between atoms: C_13  and  N_14
REMARK    6  A    between atoms: C_21  and  C_22
REMARK                            x       y       z     vdW  Elec       q    Type
REMARK                         _______ _______ _______ _____ _____    ______ ____
ROOT
ATOM      1  C   UNL     1       4.240   6.115  17.105  0.00  0.00    +0.000 A 
ATOM      2  C   UNL     1       3.940   4.890  17.686  0.00  0.00    +0.000 A 
ATOM      3  N   UNL     1       3.044   4.732  18.680  0.00  0.00    +0.000 NA
ATOM      4  C   UNL     1       2.417   5.852  19.127  0.00  0.00    +0.000 A 
ATOM      5  C   UNL     1       2.611   7.132  18.609  0.00  0.00    +0.000 A 
ATOM      6  C   UNL     1       3.546   7.241  17.570  0.00  0.00    +0.000 A 
ENDROOT
BRANCH   5   7
ATOM      7  N   UNL     1       1.905   8.270  19.083  0.00  0.00    +0.000 N 
ATOM      8  C   UNL     1       1.273   8.304  20.396  0.00  0.00    +0.000 C 
ATOM      9  C   UNL     1       0.713   9.689  20.475  0.00  0.00    +0.000 A 
ATOM     10  C   UNL     1       0.987  10.367  19.290  0.00  0.00    +0.000 A 
ATOM     11  C   UNL     1       0.582  11.667  19.054  0.00  0.00    +0.000 A 
ATOM     12  C   UNL     1      -0.131  12.312  20.065  0.00  0.00    +0.000 A 
ATOM     13  C   UNL     1      -0.407  11.647  21.274  0.00  0.00    +0.000 A 
ATOM     14  C   UNL     1       0.017  10.319  21.501  0.00  0.00    +0.000 A 
ATOM     15  C   UNL     1       1.752   9.479  18.405  0.00  0.00    +0.000 C 
ATOM     16  O   UNL     1       2.134   9.828  17.306  0.00  0.00    +0.000 OA
BRANCH  14  17
ATOM     17  C   UNL     1      -0.285   9.651  22.818  0.00  0.00    +0.000 C 
ATOM     18  F   UNL     1       0.824   9.393  23.562  0.00  0.00    +0.000 F 
ATOM     19  F   UNL     1      -1.097  10.407  23.605  0.00  0.00    +0.000 F 
ATOM     20  F   UNL     1      -0.916   8.456  22.660  0.00  0.00    +0.000 F 
ENDBRANCH  14  17
ENDBRANCH   5   7
BRANCH   1  21
ATOM     21  C   UNL     1       5.284   6.233  16.025  0.00  0.00    +0.000 C 
BRANCH  21  22
ATOM     22  C   UNL     1       6.503   5.329  16.226  0.00  0.00    +0.000 C 
BRANCH  22  28
ATOM     23  C   UNL     1       7.623   7.988  17.433  0.00  0.00    +0.000 C 
ATOM     24  N   UNL     1       7.641   6.691  18.053  0.00  0.00    +0.000 N 
ATOM     25  C   UNL     1       8.172   6.398  19.272  0.00  0.00    +0.000 A 
ATOM     26  N   UNL     1       7.999   5.124  19.530  0.00  0.00    +0.000 NA
ATOM     27  N   UNL     1       7.359   4.564  18.451  0.00  0.00    +0.000 NA
ATOM     28  C   UNL     1       7.146   5.511  17.559  0.00  0.00    +0.000 A 
ENDBRANCH  22  28
ENDBRANCH  21  22
ENDBRANCH   1  21
TORSDOF 5
ENDMDL
MODEL 6
REMARK VINA RESULT:      -8.4      3.847      8.206
REMARK  Name = 
REMARK  6 active torsions:
REMARK  status: ('A' for Active; 'I' for Inactive)
REMARK    1  A    between atoms: C_1  and  N_2
REMARK    2  A    between atoms: C_6  and  C_7
REMARK    3  A    between atoms: C_7  and  C_8
REMARK    4  A    between atoms: C_8  and  C_9
REMARK    5  A    between atoms: C_13  and  N_14
REMARK    6  A    between atoms: C_21  and  C_22
REMARK                            x       y       z     vdW  Elec       q    Type
REMARK                         _______ _______ _______ _____ _____    ______ ____
ROOT
ATOM      1  C   UNL     1       0.082  10.802  20.315  0.00  0.00    +0.000 A 
ATOM      2  C   UNL     1       0.241  10.973  21.684  0.00  0.00    +0.000 A 
ATOM      3  N   UNL     1       0.868  10.087  22.482  0.00  0.00    +0.000 NA
ATOM      4  C   UNL     1       1.357   8.966  21.890  0.00  0.00    +0.000 A 
ATOM      5  C   UNL     1       1.285   8.692  20.524  0.00  0.00    +0.000 A 
ATOM      6  C   UNL     1       0.632   9.650  19.738  0.00  0.00    +0.000 A 
ENDROOT
BRANCH   5   7
ATOM      7  N   UNL     1       1.845   7.522  19.943  0.00  0.00    +0.000 N 
ATOM      8  C   UNL     1       1.670   6.200  20.530  0.00  0.00    +0.000 C 
ATOM      9  C   UNL     1       2.371   5.297  19.564  0.00  0.00    +0.000 A 
ATOM     10  C   UNL     1       2.918   6.058  18.534  0.00  0.00    +0.000 A 
ATOM     11  C   UNL     1       3.643   5.507  17.494  0.00  0.00    +0.000 A 
ATOM     12  C   UNL     1       3.821   4.123  17.495  0.00  0.00    +0.000 A 
ATOM     13  C   UNL     1       3.265   3.338  18.522  0.00  0.00    +0.000 A 
ATOM     14  C   UNL     1       2.524   3.914  19.576  0.00  0.00    +0.000 A 
ATOM     15  C   UNL     1       2.581   7.468  18.760  0.00  0.00    +0.000 C 
ATOM     16  O   UNL     1       2.925   8.349  17.998  0.00  0.00    +0.000 OA
BRANCH  14  17
ATOM     17  C   UNL     1       1.931   3.033  20.646  0.00  0.00    +0.000 C 
ATOM     18  F   UNL     1       0.663   3.379  20.994  0.00  0.00    +0.000 F 
ATOM     19  F   UNL     1       1.873   1.728  20.265  0.00  0.00    +0.000 F 
ATOM     20  F   UNL     1       2.655   3.058  21.798  0.00  0.00    +0.000 F 
ENDBRANCH  14  17
ENDBRANCH   5   7
BRANCH   1  21
ATOM     21  C   UNL     1      -0.668  11.810  19.484  0.00  0.00    +0.000 C 
BRANCH  21  22
ATOM     22  C   UNL     1      -1.182  11.268  18.148  0.00  0.00    +0.000 C 
BRANCH  22  28
ATOM     23  C   UNL     1      -2.849  10.855  15.533  0.00  0.00    +0.000 C 
ATOM     24  N   UNL     1      -3.354  11.260  16.816  0.00  0.00    +0.000 N 
ATOM     25  C   UNL     1      -4.652  11.555  17.104  0.00  0.00    +0.000 A 
ATOM     26  N   UNL     1      -4.758  11.872  18.372  0.00  0.00    +0.000 NA
ATOM     27  N   UNL     1      -3.502  11.802  18.925  0.00  0.00    +0.000 NA
ATOM     28  C   UNL     1      -2.655  11.435  17.983  0.00  0.00    +0.000 A 
ENDBRANCH  22  28
ENDBRANCH  21  22
ENDBRANCH   1  21
TORSDOF 5
ENDMDL
MODEL 7
REMARK VINA RESULT:      -8.3      0.740      1.424
REMARK  Name = 
REMARK  6 active torsions:
REMARK  status: ('A' for Active; 'I' for Inactive)
REMARK    1  A    between atoms: C_1  and  N_2
REMARK    2  A    between atoms: C_6  and  C_7
REMARK    3  A    between atoms: C_7  and  C_8
REMARK    4  A    between atoms: C_8  and  C_9
REMARK    5  A    between atoms: C_13  and  N_14
REMARK    6  A    between atoms: C_21  and  C_22
REMARK                            x       y       z     vdW  Elec       q    Type
REMARK                         _______ _______ _______ _____ _____    ______ ____
ROOT
ATOM      1  C   UNL     1       3.944   4.431  17.590  0.00  0.00    +0.000 A 
ATOM      2  C   UNL     1       3.461   3.393  18.375  0.00  0.00    +0.000 A 
ATOM      3  N   UNL     1       2.573   3.559  19.374  0.00  0.00    +0.000 NA
ATOM      4  C   UNL     1       2.147   4.828  19.614  0.00  0.00    +0.000 A 
ATOM      5  C   UNL     1       2.536   5.948  18.880  0.00  0.00    +0.000 A 
ATOM      6  C   UNL     1       3.453   5.719  17.846  0.00  0.00    +0.000 A 
ENDROOT
BRANCH   5   7
ATOM      7  N   UNL     1       2.036   7.252  19.143  0.00  0.00    +0.000 N 
ATOM      8  C   UNL     1       1.412   7.607  20.410  0.00  0.00    +0.000 C 
ATOM      9  C   UNL     1       1.101   9.062  20.248  0.00  0.00    +0.000 A 
ATOM     10  C   UNL     1       1.495   9.480  18.979  0.00  0.00    +0.000 A 
ATOM     11  C   UNL     1       1.323  10.774  18.526  0.00  0.00    +0.000 A 
ATOM     12  C   UNL     1       0.727  11.687  19.395  0.00  0.00    +0.000 A 
ATOM     13  C   UNL     1       0.333  11.285  20.685  0.00  0.00    +0.000 A 
ATOM     14  C   UNL     1       0.518   9.960  21.136  0.00  0.00    +0.000 A 
ATOM     15  C   UNL     1       2.098   8.342  18.275  0.00  0.00    +0.000 C 
ATOM     16  O   UNL     1       2.542   8.436  17.148  0.00  0.00    +0.000 OA
BRANCH  14  17
ATOM     17  C   UNL     1       0.098   9.578  22.532  0.00  0.00    +0.000 C 
ATOM     18  F   UNL     1      -0.485  10.594  23.222  0.00  0.00    +0.000 F 
ATOM     19  F   UNL     1      -0.801   8.556  22.538  0.00  0.00    +0.000 F 
ATOM     20  F   UNL     1       1.147   9.162  23.293  0.00  0.00    +0.000 F 
ENDBRANCH  14  17
ENDBRANCH   5   7
BRANCH   1  21
ATOM     21  C   UNL     1       4.970   4.186  16.515  0.00  0.00    +0.000 C 
BRANCH  21  22
ATOM     22  C   UNL     1       6.008   5.302  16.367  0.00  0.00    +0.000 C 
BRANCH  22  28
ATOM     23  C   UNL     1       7.421   7.919  17.336  0.00  0.00    +0.000 C 
ATOM     24  N   UNL     1       7.472   6.632  17.973  0.00  0.00    +0.000 N 
ATOM     25  C   UNL     1       8.168   6.329  19.103  0.00  0.00    +0.000 A 
ATOM     26  N   UNL     1       7.978   5.069  19.411  0.00  0.00    +0.000 NA
ATOM     27  N   UNL     1       7.156   4.526  18.453  0.00  0.00    +0.000 NA
ATOM     28  C   UNL     1       6.853   5.471  17.583  0.00  0.00    +0.000 A 
ENDBRANCH  22  28
ENDBRANCH  21  22
ENDBRANCH   1  21
TORSDOF 5
ENDMDL
MODEL 8
REMARK VINA RESULT:      -8.3      1.773      3.934
REMARK  Name = 
REMARK  6 active torsions:
REMARK  status: ('A' for Active; 'I' for Inactive)
REMARK    1  A    between atoms: C_1  and  N_2
REMARK    2  A    between atoms: C_6  and  C_7
REMARK    3  A    between atoms: C_7  and  C_8
REMARK    4  A    between atoms: C_8  and  C_9
REMARK    5  A    between atoms: C_13  and  N_14
REMARK    6  A    between atoms: C_21  and  C_22
REMARK                            x       y       z     vdW  Elec       q    Type
REMARK                         _______ _______ _______ _____ _____    ______ ____
ROOT
ATOM      1  C   UNL     1       3.196   4.829  17.662  0.00  0.00    +0.000 A 
ATOM      2  C   UNL     1       4.539   5.107  17.442  0.00  0.00    +0.000 A 
ATOM      3  N   UNL     1       5.095   6.317  17.643  0.00  0.00    +0.000 NA
ATOM      4  C   UNL     1       4.272   7.308  18.078  0.00  0.00    +0.000 A 
ATOM      5  C   UNL     1       2.916   7.148  18.360  0.00  0.00    +0.000 A 
ATOM      6  C   UNL     1       2.389   5.868  18.144  0.00  0.00    +0.000 A 
ENDROOT
BRANCH   5   7
ATOM      7  N   UNL     1       2.101   8.205  18.848  0.00  0.00    +0.000 N 
ATOM      8  C   UNL     1       1.457   8.154  20.154  0.00  0.00    +0.000 C 
ATOM      9  C   UNL     1       0.769   9.478  20.253  0.00  0.00    +0.000 A 
ATOM     10  C   UNL     1       0.988  10.202  19.084  0.00  0.00    +0.000 A 
ATOM     11  C   UNL     1       0.465  11.463  18.869  0.00  0.00    +0.000 A 
ATOM     12  C   UNL     1      -0.315  12.018  19.884  0.00  0.00    +0.000 A 
ATOM     13  C   UNL     1      -0.538  11.305  21.077  0.00  0.00    +0.000 A 
ATOM     14  C   UNL     1       0.006  10.019  21.284  0.00  0.00    +0.000 A 
ATOM     15  C   UNL     1       1.841   9.408  18.192  0.00  0.00    +0.000 C 
ATOM     16  O   UNL     1       2.199   9.813  17.104  0.00  0.00    +0.000 OA
BRANCH  14  17
ATOM     17  C   UNL     1      -0.243   9.299  22.585  0.00  0.00    +0.000 C 
ATOM     18  F   UNL     1      -1.035   9.992  23.446  0.00  0.00    +0.000 F 
ATOM     19  F   UNL     1      -0.851   8.097  22.399  0.00  0.00    +0.000 F 
ATOM     20  F   UNL     1       0.909   9.040  23.262  0.00  0.00    +0.000 F 
ENDBRANCH  14  17
ENDBRANCH   5   7
BRANCH   1  21
ATOM     21  C   UNL     1       2.625   3.464  17.377  0.00  0.00    +0.000 C 
BRANCH  21  22
ATOM     22  C   UNL     1       3.184   2.349  18.265  0.00  0.00    +0.000 C 
BRANCH  22  28
ATOM     23  C   UNL     1       0.280   2.780  19.345  0.00  0.00    +0.000 C 
ATOM     24  N   UNL     1       1.480   2.681  20.130  0.00  0.00    +0.000 N 
ATOM     25  C   UNL     1       1.555   2.781  21.486  0.00  0.00    +0.000 A 
ATOM     26  N   UNL     1       2.801   2.627  21.867  0.00  0.00    +0.000 NA
ATOM     27  N   UNL     1       3.562   2.442  20.739  0.00  0.00    +0.000 NA
ATOM     28  C   UNL     1       2.763   2.478  19.690  0.00  0.00    +0.000 A 
ENDBRANCH  22  28
ENDBRANCH  21  22
ENDBRANCH   1  21
TORSDOF 5
ENDMDL
MODEL 9
REMARK VINA RESULT:      -8.3      3.707      8.061
REMARK  Name = 
REMARK  6 active torsions:
REMARK  status: ('A' for Active; 'I' for Inactive)
REMARK    1  A    between atoms: C_1  and  N_2
REMARK    2  A    between atoms: C_6  and  C_7
REMARK    3  A    between atoms: C_7  and  C_8
REMARK    4  A    between atoms: C_8  and  C_9
REMARK    5  A    between atoms: C_13  and  N_14
REMARK    6  A    between atoms: C_21  and  C_22
REMARK                            x       y       z     vdW  Elec       q    Type
REMARK                         _______ _______ _______ _____ _____    ______ ____
ROOT
ATOM      1  C   UNL     1       0.010  10.851  19.974  0.00  0.00    +0.000 A 
ATOM      2  C   UNL     1       0.156  11.101  21.332  0.00  0.00    +0.000 A 
ATOM      3  N   UNL     1       0.797  10.275  22.181  0.00  0.00    +0.000 NA
ATOM      4  C   UNL     1       1.313   9.132  21.656  0.00  0.00    +0.000 A 
ATOM      5  C   UNL     1       1.256   8.781  20.307  0.00  0.00    +0.000 A 
ATOM      6  C   UNL     1       0.587   9.680  19.465  0.00  0.00    +0.000 A 
ENDROOT
BRANCH   5   7
ATOM      7  N   UNL     1       1.843   7.593  19.795  0.00  0.00    +0.000 N 
ATOM      8  C   UNL     1       1.666   6.297  20.436  0.00  0.00    +0.000 C 
ATOM      9  C   UNL     1       2.403   5.359  19.533  0.00  0.00    +0.000 A 
ATOM     10  C   UNL     1       2.969   6.079  18.484  0.00  0.00    +0.000 A 
ATOM     11  C   UNL     1       3.728   5.490  17.490  0.00  0.00    +0.000 A 
ATOM     12  C   UNL     1       3.921   4.110  17.559  0.00  0.00    +0.000 A 
ATOM     13  C   UNL     1       3.345   3.365  18.606  0.00  0.00    +0.000 A 
ATOM     14  C   UNL     1       2.570   3.980  19.612  0.00  0.00    +0.000 A 
ATOM     15  C   UNL     1       2.611   7.494  18.636  0.00  0.00    +0.000 C 
ATOM     16  O   UNL     1       2.967   8.344  17.843  0.00  0.00    +0.000 OA
BRANCH  14  17
ATOM     17  C   UNL     1       1.957   3.142  20.704  0.00  0.00    +0.000 C 
ATOM     18  F   UNL     1       2.677   3.141  21.857  0.00  0.00    +0.000 F 
ATOM     19  F   UNL     1       0.709   3.566  21.041  0.00  0.00    +0.000 F 
ATOM     20  F   UNL     1       1.827   1.835  20.344  0.00  0.00    +0.000 F 
ENDBRANCH  14  17
ENDBRANCH   5   7
BRANCH   1  21
ATOM     21  C   UNL     1      -0.756  11.795  19.084  0.00  0.00    +0.000 C 
BRANCH  21  22
ATOM     22  C   UNL     1      -2.251  11.483  18.972  0.00  0.00    +0.000 C 
BRANCH  22  28
ATOM     23  C   UNL     1      -5.005  12.080  17.614  0.00  0.00    +0.000 C 
ATOM     24  N   UNL     1      -3.889  11.393  17.023  0.00  0.00    +0.000 N 
ATOM     25  C   UNL     1      -3.853  10.865  15.768  0.00  0.00    +0.000 A 
ATOM     26  N   UNL     1      -2.676  10.328  15.553  0.00  0.00    +0.000 NA
ATOM     27  N   UNL     1      -1.930  10.488  16.696  0.00  0.00    +0.000 NA
ATOM     28  C   UNL     1      -2.665  11.130  17.584  0.00  0.00    +0.000 A 
ENDBRANCH  22  28
ENDBRANCH  21  22
ENDBRANCH   1  21
TORSDOF 5
ENDMDL
