MODEL 1
REMARK VINA RESULT:      -8.3      0.000      0.000
REMARK  Name = 
REMARK  7 active torsions:
REMARK  status: ('A' for Active; 'I' for Inactive)
REMARK    1  A    between atoms: C_2  and  C_3
REMARK    2  A    between atoms: C_2  and  C_10
REMARK    3  A    between atoms: C_3  and  C_4
REMARK    4  A    between atoms: N_8  and  C_9
REMARK    5  A    between atoms: C_14  and  N_15
REMARK    6  A    between atoms: C_22  and  C_23
REMARK    7  A    between atoms: C_23  and  C_24
REMARK                            x       y       z     vdW  Elec       q    Type
REMARK                         _______ _______ _______ _____ _____    ______ ____
ROOT
ATOM      1  C   UNL     1       1.356   8.874  19.669  0.00  0.00    +0.000 A 
ATOM      2  C   UNL     1       1.973   9.246  18.470  0.00  0.00    +0.000 A 
ATOM      3  C   UNL     1       2.503   8.279  17.622  0.00  0.00    +0.000 A 
ATOM      4  C   UNL     1       2.542   6.952  18.027  0.00  0.00    +0.000 A 
ATOM      5  C   UNL     1       2.322   6.671  19.382  0.00  0.00    +0.000 A 
ATOM      6  C   UNL     1       1.553   7.570  20.146  0.00  0.00    +0.000 A 
ENDROOT
BRANCH   5   7
ATOM      7  N   UNL     1       3.336   5.882  20.087  0.00  0.00    +0.000 N 
ATOM      8  C   UNL     1       4.490   5.632  19.187  0.00  0.00    +0.000 C 
ATOM      9  C   UNL     1       4.152   4.306  18.571  0.00  0.00    +0.000 A 
ATOM     10  C   UNL     1       3.311   3.634  19.460  0.00  0.00    +0.000 A 
ATOM     11  C   UNL     1       2.637   2.470  19.134  0.00  0.00    +0.000 A 
ATOM     12  C   UNL     1       2.785   1.992  17.836  0.00  0.00    +0.000 A 
ATOM     13  C   UNL     1       3.612   2.666  16.919  0.00  0.00    +0.000 A 
ATOM     14  C   UNL     1       4.337   3.824  17.278  0.00  0.00    +0.000 A 
ATOM     15  C   UNL     1       2.922   4.588  20.529  0.00  0.00    +0.000 C 
ATOM     16  O   UNL     1       2.213   4.303  21.464  0.00  0.00    +0.000 OA
BRANCH  14  17
ATOM     17  C   UNL     1       5.186   4.524  16.240  0.00  0.00    +0.000 C 
ATOM     18  C   UNL     1       6.654   4.483  16.631  0.00  0.00    +0.000 C 
ATOM     19  F   UNL     1       5.063   3.954  15.008  0.00  0.00    +0.000 F 
ATOM     20  F   UNL     1       4.848   5.833  16.061  0.00  0.00    +0.000 F 
ENDBRANCH  14  17
ENDBRANCH   5   7
BRANCH   1  22
ATOM     21  C   UNL     1       0.355   9.720  21.724  0.00  0.00    +0.000 C 
ATOM     22  C   UNL     1       0.596   9.897  20.415  0.00  0.00    +0.000 C 
BRANCH  22  23
ATOM     23  C   UNL     1       0.155  11.130  19.638  0.00  0.00    +0.000 C 
BRANCH  23  24
ATOM     24  C   UNL     1      -1.178  11.049  18.948  0.00  0.00    +0.000 A 
ATOM     25  N   UNL     1      -1.501  10.254  17.944  0.00  0.00    +0.000 NA
ATOM     26  N   UNL     1      -2.783  10.562  17.543  0.00  0.00    +0.000 NA
ATOM     27  C   UNL     1      -3.221  11.515  18.317  0.00  0.00    +0.000 A 
ATOM     28  N   UNL     1      -2.270  11.836  19.236  0.00  0.00    +0.000 N 
ATOM     29  C   UNL     1      -2.427  12.774  20.313  0.00  0.00    +0.000 C 
ENDBRANCH  23  24
ENDBRANCH  22  23
ENDBRANCH   1  22
TORSDOF 5
ENDMDL
MODEL 2
REMARK VINA RESULT:      -8.3      1.825      2.347
REMARK  Name = 
REMARK  7 active torsions:
REMARK  status: ('A' for Active; 'I' for Inactive)
REMARK    1  A    between atoms: C_2  and  C_3
REMARK    2  A    between atoms: C_2  and  C_10
REMARK    3  A    between atoms: C_3  and  C_4
REMARK    4  A    between atoms: N_8  and  C_9
REMARK    5  A    between atoms: C_14  and  N_15
REMARK    6  A    between atoms: C_22  and  C_23
REMARK    7  A    between atoms: C_23  and  C_24
REMARK                            x       y       z     vdW  Elec       q    Type
REMARK                         _______ _______ _______ _____ _____    ______ ____
ROOT
ATOM      1  C   UNL     1       1.209   8.733  20.042  0.00  0.00    +0.000 A 
ATOM      2  C   UNL     1       1.805   9.216  18.873  0.00  0.00    +0.000 A 
ATOM      3  C   UNL     1       2.361   8.335  17.950  0.00  0.00    +0.000 A 
ATOM      4  C   UNL     1       2.446   6.983  18.252  0.00  0.00    +0.000 A 
ATOM      5  C   UNL     1       2.243   6.591  19.582  0.00  0.00    +0.000 A 
ATOM      6  C   UNL     1       1.450   7.402  20.416  0.00  0.00    +0.000 A 
ENDROOT
BRANCH   5   7
ATOM      7  N   UNL     1       3.287   5.784  20.219  0.00  0.00    +0.000 N 
ATOM      8  C   UNL     1       4.409   5.575  19.269  0.00  0.00    +0.000 C 
ATOM      9  C   UNL     1       4.055   4.270  18.617  0.00  0.00    +0.000 A 
ATOM     10  C   UNL     1       3.251   3.560  19.511  0.00  0.00    +0.000 A 
ATOM     11  C   UNL     1       2.572   2.404  19.168  0.00  0.00    +0.000 A 
ATOM     12  C   UNL     1       2.674   1.975  17.848  0.00  0.00    +0.000 A 
ATOM     13  C   UNL     1       3.464   2.688  16.927  0.00  0.00    +0.000 A 
ATOM     14  C   UNL     1       4.195   3.837  17.301  0.00  0.00    +0.000 A 
ATOM     15  C   UNL     1       2.896   4.472  20.628  0.00  0.00    +0.000 C 
ATOM     16  O   UNL     1       2.224   4.148  21.577  0.00  0.00    +0.000 OA
BRANCH  14  17
ATOM     17  C   UNL     1       5.002   4.580  16.260  0.00  0.00    +0.000 C 
ATOM     18  C   UNL     1       6.487   4.500  16.573  0.00  0.00    +0.000 C 
ATOM     19  F   UNL     1       4.809   4.077  15.007  0.00  0.00    +0.000 F 
ATOM     20  F   UNL     1       4.676   5.900  16.167  0.00  0.00    +0.000 F 
ENDBRANCH  14  17
ENDBRANCH   5   7
BRANCH   1  22
ATOM     21  C   UNL     1       0.137   9.353  22.142  0.00  0.00    +0.000 C 
ATOM     22  C   UNL     1       0.421   9.669  20.867  0.00  0.00    +0.000 C 
BRANCH  22  23
ATOM     23  C   UNL     1       0.001  10.979  20.213  0.00  0.00    +0.000 C 
BRANCH  23  24
ATOM     24  C   UNL     1       0.581  12.238  20.795  0.00  0.00    +0.000 A 
ATOM     25  N   UNL     1       0.267  12.790  21.952  0.00  0.00    +0.000 NA
ATOM     26  N   UNL     1       0.952  13.981  22.063  0.00  0.00    +0.000 NA
ATOM     27  C   UNL     1       1.680  14.119  20.991  0.00  0.00    +0.000 A 
ATOM     28  N   UNL     1       1.513  13.041  20.178  0.00  0.00    +0.000 N 
ATOM     29  C   UNL     1       2.223  12.795  18.953  0.00  0.00    +0.000 C 
ENDBRANCH  23  24
ENDBRANCH  22  23
ENDBRANCH   1  22
TORSDOF 5
ENDMDL
MODEL 3
REMARK VINA RESULT:      -8.2      3.586      8.326
REMARK  Name = 
REMARK  7 active torsions:
REMARK  status: ('A' for Active; 'I' for Inactive)
REMARK    1  A    between atoms: C_2  and  C_3
REMARK    2  A    between atoms: C_2  and  C_10
REMARK    3  A    between atoms: C_3  and  C_4
REMARK    4  A    between atoms: N_8  and  C_9
REMARK    5  A    between atoms: C_14  and  N_15
REMARK    6  A    between atoms: C_22  and  C_23
REMARK    7  A    between atoms: C_23  and  C_24
REMARK                            x       y       z     vdW  Elec       q    Type
REMARK                         _______ _______ _______ _____ _____    ______ ____
ROOT
ATOM      1  C   UNL     1       2.570   4.317  18.741  0.00  0.00    +0.000 A 
ATOM      2  C   UNL     1       2.485   3.985  20.096  0.00  0.00    +0.000 A 
ATOM      3  C   UNL     1       1.847   4.837  20.992  0.00  0.00    +0.000 A 
ATOM      4  C   UNL     1       1.411   6.084  20.566  0.00  0.00    +0.000 A 
ATOM      5  C   UNL     1       1.885   6.563  19.337  0.00  0.00    +0.000 A 
ATOM      6  C   UNL     1       2.287   5.636  18.356  0.00  0.00    +0.000 A 
ENDROOT
BRANCH   5   7
ATOM      7  N   UNL     1       2.524   7.882  19.322  0.00  0.00    +0.000 N 
ATOM      8  C   UNL     1       2.186   8.616  20.568  0.00  0.00    +0.000 C 
ATOM      9  C   UNL     1       0.972   9.403  20.171  0.00  0.00    +0.000 A 
ATOM     10  C   UNL     1       1.028   9.591  18.789  0.00  0.00    +0.000 A 
ATOM     11  C   UNL     1      -0.026  10.098  18.048  0.00  0.00    +0.000 A 
ATOM     12  C   UNL     1      -1.204  10.382  18.731  0.00  0.00    +0.000 A 
ATOM     13  C   UNL     1      -1.287  10.181  20.121  0.00  0.00    +0.000 A 
ATOM     14  C   UNL     1      -0.189   9.713  20.876  0.00  0.00    +0.000 A 
ATOM     15  C   UNL     1       2.132   8.752  18.259  0.00  0.00    +0.000 C 
ATOM     16  O   UNL     1       2.451   8.709  17.096  0.00  0.00    +0.000 OA
BRANCH  14  17
ATOM     17  C   UNL     1      -0.347   9.487  22.362  0.00  0.00    +0.000 C 
ATOM     18  C   UNL     1      -1.072  10.656  23.010  0.00  0.00    +0.000 C 
ATOM     19  F   UNL     1      -1.052   8.352  22.636  0.00  0.00    +0.000 F 
ATOM     20  F   UNL     1       0.841   9.333  23.013  0.00  0.00    +0.000 F 
ENDBRANCH  14  17
ENDBRANCH   5   7
BRANCH   1  22
ATOM     21  C   UNL     1       2.503   2.051  17.846  0.00  0.00    +0.000 C 
ATOM     22  C   UNL     1       3.032   3.285  17.792  0.00  0.00    +0.000 C 
BRANCH  22  23
ATOM     23  C   UNL     1       4.077   3.707  16.768  0.00  0.00    +0.000 C 
BRANCH  23  24
ATOM     24  C   UNL     1       5.443   4.041  17.300  0.00  0.00    +0.000 A 
ATOM     25  N   UNL     1       5.806   4.090  18.568  0.00  0.00    +0.000 NA
ATOM     26  N   UNL     1       7.111   4.529  18.628  0.00  0.00    +0.000 NA
ATOM     27  C   UNL     1       7.522   4.716  17.405  0.00  0.00    +0.000 A 
ATOM     28  N   UNL     1       6.529   4.394  16.532  0.00  0.00    +0.000 N 
ATOM     29  C   UNL     1       6.642   4.384  15.100  0.00  0.00    +0.000 C 
ENDBRANCH  23  24
ENDBRANCH  22  23
ENDBRANCH   1  22
TORSDOF 5
ENDMDL
MODEL 4
REMARK VINA RESULT:      -8.2      1.630      2.058
REMARK  Name = 
REMARK  7 active torsions:
REMARK  status: ('A' for Active; 'I' for Inactive)
REMARK    1  A    between atoms: C_2  and  C_3
REMARK    2  A    between atoms: C_2  and  C_10
REMARK    3  A    between atoms: C_3  and  C_4
REMARK    4  A    between atoms: N_8  and  C_9
REMARK    5  A    between atoms: C_14  and  N_15
REMARK    6  A    between atoms: C_22  and  C_23
REMARK    7  A    between atoms: C_23  and  C_24
REMARK                            x       y       z     vdW  Elec       q    Type
REMARK                         _______ _______ _______ _____ _____    ______ ____
ROOT
ATOM      1  C   UNL     1       1.194   8.731  20.104  0.00  0.00    +0.000 A 
ATOM      2  C   UNL     1       1.810   9.255  18.964  0.00  0.00    +0.000 A 
ATOM      3  C   UNL     1       2.386   8.407  18.023  0.00  0.00    +0.000 A 
ATOM      4  C   UNL     1       2.470   7.046  18.280  0.00  0.00    +0.000 A 
ATOM      5  C   UNL     1       2.243   6.609  19.592  0.00  0.00    +0.000 A 
ATOM      6  C   UNL     1       1.432   7.390  20.438  0.00  0.00    +0.000 A 
ENDROOT
BRANCH   5   7
ATOM      7  N   UNL     1       3.277   5.783  20.222  0.00  0.00    +0.000 N 
ATOM      8  C   UNL     1       4.400   5.576  19.272  0.00  0.00    +0.000 C 
ATOM      9  C   UNL     1       4.035   4.283  18.603  0.00  0.00    +0.000 A 
ATOM     10  C   UNL     1       3.222   3.570  19.485  0.00  0.00    +0.000 A 
ATOM     11  C   UNL     1       2.533   2.424  19.125  0.00  0.00    +0.000 A 
ATOM     12  C   UNL     1       2.635   2.012  17.800  0.00  0.00    +0.000 A 
ATOM     13  C   UNL     1       3.434   2.729  16.890  0.00  0.00    +0.000 A 
ATOM     14  C   UNL     1       4.175   3.866  17.282  0.00  0.00    +0.000 A 
ATOM     15  C   UNL     1       2.873   4.470  20.613  0.00  0.00    +0.000 C 
ATOM     16  O   UNL     1       2.195   4.140  21.556  0.00  0.00    +0.000 OA
BRANCH  14  17
ATOM     17  C   UNL     1       4.991   4.615  16.252  0.00  0.00    +0.000 C 
ATOM     18  C   UNL     1       6.475   4.519  16.570  0.00  0.00    +0.000 C 
ATOM     19  F   UNL     1       4.800   4.128  14.993  0.00  0.00    +0.000 F 
ATOM     20  F   UNL     1       4.676   5.938  16.173  0.00  0.00    +0.000 F 
ENDBRANCH  14  17
ENDBRANCH   5   7
BRANCH   1  22
ATOM     21  C   UNL     1       0.178   9.333  22.237  0.00  0.00    +0.000 C 
ATOM     22  C   UNL     1       0.387   9.638  20.945  0.00  0.00    +0.000 C 
BRANCH  22  23
ATOM     23  C   UNL     1      -0.138  10.906  20.285  0.00  0.00    +0.000 C 
BRANCH  23  24
ATOM     24  C   UNL     1       0.163  12.202  20.985  0.00  0.00    +0.000 A 
ATOM     25  N   UNL     1       1.355  12.730  21.191  0.00  0.00    +0.000 NA
ATOM     26  N   UNL     1       1.199  13.868  21.952  0.00  0.00    +0.000 NA
ATOM     27  C   UNL     1      -0.076  14.024  22.173  0.00  0.00    +0.000 A 
ATOM     28  N   UNL     1      -0.774  13.028  21.563  0.00  0.00    +0.000 N 
ATOM     29  C   UNL     1      -2.206  12.920  21.507  0.00  0.00    +0.000 C 
ENDBRANCH  23  24
ENDBRANCH  22  23
ENDBRANCH   1  22
TORSDOF 5
ENDMDL
MODEL 5
REMARK VINA RESULT:      -8.2      0.740      1.299
REMARK  Name = 
REMARK  7 active torsions:
REMARK  status: ('A' for Active; 'I' for Inactive)
REMARK    1  A    between atoms: C_2  and  C_3
REMARK    2  A    between atoms: C_2  and  C_10
REMARK    3  A    between atoms: C_3  and  C_4
REMARK    4  A    between atoms: N_8  and  C_9
REMARK    5  A    between atoms: C_14  and  N_15
REMARK    6  A    between atoms: C_22  and  C_23
REMARK    7  A    between atoms: C_23  and  C_24
REMARK                            x       y       z     vdW  Elec       q    Type
REMARK                         _______ _______ _______ _____ _____    ______ ____
ROOT
ATOM      1  C   UNL     1       1.244   8.797  19.788  0.00  0.00    +0.000 A 
ATOM      2  C   UNL     1       1.901   9.218  18.628  0.00  0.00    +0.000 A 
ATOM      3  C   UNL     1       2.494   8.290  17.778  0.00  0.00    +0.000 A 
ATOM      4  C   UNL     1       2.551   6.954  18.148  0.00  0.00    +0.000 A 
ATOM      5  C   UNL     1       2.279   6.628  19.484  0.00  0.00    +0.000 A 
ATOM      6  C   UNL     1       1.454   7.484  20.237  0.00  0.00    +0.000 A 
ENDROOT
BRANCH   5   7
ATOM      7  N   UNL     1       3.283   5.846  20.211  0.00  0.00    +0.000 N 
ATOM      8  C   UNL     1       4.491   5.671  19.365  0.00  0.00    +0.000 C 
ATOM      9  C   UNL     1       4.231   4.360  18.681  0.00  0.00    +0.000 A 
ATOM     10  C   UNL     1       3.370   3.625  19.497  0.00  0.00    +0.000 A 
ATOM     11  C   UNL     1       2.756   2.453  19.092  0.00  0.00    +0.000 A 
ATOM     12  C   UNL     1       2.987   2.033  17.786  0.00  0.00    +0.000 A 
ATOM     13  C   UNL     1       3.837   2.771  16.941  0.00  0.00    +0.000 A 
ATOM     14  C   UNL     1       4.500   3.937  17.382  0.00  0.00    +0.000 A 
ATOM     15  C   UNL     1       2.892   4.522  20.580  0.00  0.00    +0.000 C 
ATOM     16  O   UNL     1       2.147   4.176  21.464  0.00  0.00    +0.000 OA
BRANCH  14  17
ATOM     17  C   UNL     1       5.377   4.706  16.419  0.00  0.00    +0.000 C 
ATOM     18  C   UNL     1       5.719   3.855  15.207  0.00  0.00    +0.000 C 
ATOM     19  F   UNL     1       4.774   5.846  15.975  0.00  0.00    +0.000 F 
ATOM     20  F   UNL     1       6.552   5.118  16.972  0.00  0.00    +0.000 F 
ENDBRANCH  14  17
ENDBRANCH   5   7
BRANCH   1  22
ATOM     21  C   UNL     1      -0.073   9.453  21.731  0.00  0.00    +0.000 C 
ATOM     22  C   UNL     1       0.425   9.778  20.527  0.00  0.00    +0.000 C 
BRANCH  22  23
ATOM     23  C   UNL     1       0.223  11.138  19.873  0.00  0.00    +0.000 C 
BRANCH  23  24
ATOM     24  C   UNL     1      -1.195  11.536  19.571  0.00  0.00    +0.000 A 
ATOM     25  N   UNL     1      -1.943  12.379  20.259  0.00  0.00    +0.000 NA
ATOM     26  N   UNL     1      -3.206  12.388  19.707  0.00  0.00    +0.000 NA
ATOM     27  C   UNL     1      -3.197  11.575  18.688  0.00  0.00    +0.000 A 
ATOM     28  N   UNL     1      -1.955  11.039  18.536  0.00  0.00    +0.000 N 
ATOM     29  C   UNL     1      -1.540  10.174  17.468  0.00  0.00    +0.000 C 
ENDBRANCH  23  24
ENDBRANCH  22  23
ENDBRANCH   1  22
TORSDOF 5
ENDMDL
MODEL 6
REMARK VINA RESULT:      -8.2      2.488      3.513
REMARK  Name = 
REMARK  7 active torsions:
REMARK  status: ('A' for Active; 'I' for Inactive)
REMARK    1  A    between atoms: C_2  and  C_3
REMARK    2  A    between atoms: C_2  and  C_10
REMARK    3  A    between atoms: C_3  and  C_4
REMARK    4  A    between atoms: N_8  and  C_9
REMARK    5  A    between atoms: C_14  and  N_15
REMARK    6  A    between atoms: C_22  and  C_23
REMARK    7  A    between atoms: C_23  and  C_24
REMARK                            x       y       z     vdW  Elec       q    Type
REMARK                         _______ _______ _______ _____ _____    ______ ____
ROOT
ATOM      1  C   UNL     1       1.090   9.467  19.364  0.00  0.00    +0.000 A 
ATOM      2  C   UNL     1       0.713   8.715  20.481  0.00  0.00    +0.000 A 
ATOM      3  C   UNL     1       1.424   7.572  20.833  0.00  0.00    +0.000 A 
ATOM      4  C   UNL     1       2.426   7.098  19.998  0.00  0.00    +0.000 A 
ATOM      5  C   UNL     1       2.493   7.609  18.695  0.00  0.00    +0.000 A 
ATOM      6  C   UNL     1       1.979   8.895  18.442  0.00  0.00    +0.000 A 
ENDROOT
BRANCH   5   7
ATOM      7  N   UNL     1       2.487   6.649  17.588  0.00  0.00    +0.000 N 
ATOM      8  C   UNL     1       1.621   5.493  17.932  0.00  0.00    +0.000 C 
ATOM      9  C   UNL     1       2.591   4.517  18.530  0.00  0.00    +0.000 A 
ATOM     10  C   UNL     1       3.852   4.801  18.002  0.00  0.00    +0.000 A 
ATOM     11  C   UNL     1       5.021   4.236  18.479  0.00  0.00    +0.000 A 
ATOM     12  C   UNL     1       4.913   3.381  19.571  0.00  0.00    +0.000 A 
ATOM     13  C   UNL     1       3.654   3.096  20.131  0.00  0.00    +0.000 A 
ATOM     14  C   UNL     1       2.461   3.638  19.603  0.00  0.00    +0.000 A 
ATOM     15  C   UNL     1       3.753   6.079  17.251  0.00  0.00    +0.000 C 
ATOM     16  O   UNL     1       4.672   6.586  16.656  0.00  0.00    +0.000 OA
BRANCH  14  17
ATOM     17  C   UNL     1       1.140   3.321  20.266  0.00  0.00    +0.000 C 
ATOM     18  C   UNL     1       1.360   2.579  21.574  0.00  0.00    +0.000 C 
ATOM     19  F   UNL     1       0.419   4.447  20.537  0.00  0.00    +0.000 F 
ATOM     20  F   UNL     1       0.320   2.552  19.494  0.00  0.00    +0.000 F 
ENDBRANCH  14  17
ENDBRANCH   5   7
BRANCH   1  22
ATOM     21  C   UNL     1       1.239  11.835  18.806  0.00  0.00    +0.000 C 
ATOM     22  C   UNL     1       0.473  10.793  19.169  0.00  0.00    +0.000 C 
BRANCH  22  23
ATOM     23  C   UNL     1      -1.035  10.886  19.362  0.00  0.00    +0.000 C 
BRANCH  23  24
ATOM     24  C   UNL     1      -1.887  10.594  18.157  0.00  0.00    +0.000 A 
ATOM     25  N   UNL     1      -1.555   9.854  17.116  0.00  0.00    +0.000 NA
ATOM     26  N   UNL     1      -2.576   9.922  16.193  0.00  0.00    +0.000 NA
ATOM     27  C   UNL     1      -3.512  10.678  16.694  0.00  0.00    +0.000 A 
ATOM     28  N   UNL     1      -3.148  11.099  17.936  0.00  0.00    +0.000 N 
ATOM     29  C   UNL     1      -3.964  11.870  18.833  0.00  0.00    +0.000 C 
ENDBRANCH  23  24
ENDBRANCH  22  23
ENDBRANCH   1  22
TORSDOF 5
ENDMDL
MODEL 7
REMARK VINA RESULT:      -8.1      0.817      1.010
REMARK  Name = 
REMARK  7 active torsions:
REMARK  status: ('A' for Active; 'I' for Inactive)
REMARK    1  A    between atoms: C_2  and  C_3
REMARK    2  A    between atoms: C_2  and  C_10
REMARK    3  A    between atoms: C_3  and  C_4
REMARK    4  A    between atoms: N_8  and  C_9
REMARK    5  A    between atoms: C_14  and  N_15
REMARK    6  A    between atoms: C_22  and  C_23
REMARK    7  A    between atoms: C_23  and  C_24
REMARK                            x       y       z     vdW  Elec       q    Type
REMARK                         _______ _______ _______ _____ _____    ______ ____
ROOT
ATOM      1  C   UNL     1       1.192   8.679  20.127  0.00  0.00    +0.000 A 
ATOM      2  C   UNL     1       1.798   9.214  18.986  0.00  0.00    +0.000 A 
ATOM      3  C   UNL     1       2.375   8.376  18.037  0.00  0.00    +0.000 A 
ATOM      4  C   UNL     1       2.473   7.015  18.287  0.00  0.00    +0.000 A 
ATOM      5  C   UNL     1       2.257   6.569  19.598  0.00  0.00    +0.000 A 
ATOM      6  C   UNL     1       1.444   7.338  20.452  0.00  0.00    +0.000 A 
ENDROOT
BRANCH   5   7
ATOM      7  N   UNL     1       3.302   5.749  20.217  0.00  0.00    +0.000 N 
ATOM      8  C   UNL     1       4.422   5.559  19.261  0.00  0.00    +0.000 C 
ATOM      9  C   UNL     1       4.067   4.268  18.584  0.00  0.00    +0.000 A 
ATOM     10  C   UNL     1       3.265   3.540  19.465  0.00  0.00    +0.000 A 
ATOM     11  C   UNL     1       2.585   2.391  19.100  0.00  0.00    +0.000 A 
ATOM     12  C   UNL     1       2.685   1.988  17.772  0.00  0.00    +0.000 A 
ATOM     13  C   UNL     1       3.474   2.719  16.864  0.00  0.00    +0.000 A 
ATOM     14  C   UNL     1       4.205   3.861  17.260  0.00  0.00    +0.000 A 
ATOM     15  C   UNL     1       2.912   4.429  20.601  0.00  0.00    +0.000 C 
ATOM     16  O   UNL     1       2.242   4.086  21.544  0.00  0.00    +0.000 OA
BRANCH  14  17
ATOM     17  C   UNL     1       5.010   4.625  16.232  0.00  0.00    +0.000 C 
ATOM     18  C   UNL     1       6.495   4.543  16.544  0.00  0.00    +0.000 C 
ATOM     19  F   UNL     1       4.819   4.143  14.970  0.00  0.00    +0.000 F 
ATOM     20  F   UNL     1       4.680   5.945  16.162  0.00  0.00    +0.000 F 
ENDBRANCH  14  17
ENDBRANCH   5   7
BRANCH   1  22
ATOM     21  C   UNL     1      -0.203   9.086  22.084  0.00  0.00    +0.000 C 
ATOM     22  C   UNL     1       0.382   9.574  20.977  0.00  0.00    +0.000 C 
BRANCH  22  23
ATOM     23  C   UNL     1       0.290  11.033  20.551  0.00  0.00    +0.000 C 
BRANCH  23  24
ATOM     24  C   UNL     1      -1.086  11.564  20.263  0.00  0.00    +0.000 A 
ATOM     25  N   UNL     1      -1.759  11.440  19.134  0.00  0.00    +0.000 NA
ATOM     26  N   UNL     1      -2.934  12.152  19.250  0.00  0.00    +0.000 NA
ATOM     27  C   UNL     1      -2.964  12.672  20.445  0.00  0.00    +0.000 A 
ATOM     28  N   UNL     1      -1.848  12.309  21.134  0.00  0.00    +0.000 N 
ATOM     29  C   UNL     1      -1.576  12.614  22.511  0.00  0.00    +0.000 C 
ENDBRANCH  23  24
ENDBRANCH  22  23
ENDBRANCH   1  22
TORSDOF 5
ENDMDL
MODEL 8
REMARK VINA RESULT:      -8.1      3.050      8.017
REMARK  Name = 
REMARK  7 active torsions:
REMARK  status: ('A' for Active; 'I' for Inactive)
REMARK    1  A    between atoms: C_2  and  C_3
REMARK    2  A    between atoms: C_2  and  C_10
REMARK    3  A    between atoms: C_3  and  C_4
REMARK    4  A    between atoms: N_8  and  C_9
REMARK    5  A    between atoms: C_14  and  N_15
REMARK    6  A    between atoms: C_22  and  C_23
REMARK    7  A    between atoms: C_23  and  C_24
REMARK                            x       y       z     vdW  Elec       q    Type
REMARK                         _______ _______ _______ _____ _____    ______ ____
ROOT
ATOM      1  C   UNL     1       2.391   7.260  18.696  0.00  0.00    +0.000 A 
ATOM      2  C   UNL     1       2.256   8.160  17.634  0.00  0.00    +0.000 A 
ATOM      3  C   UNL     1       1.995   9.505  17.879  0.00  0.00    +0.000 A 
ATOM      4  C   UNL     1       1.733   9.932  19.173  0.00  0.00    +0.000 A 
ATOM      5  C   UNL     1       1.449   8.960  20.142  0.00  0.00    +0.000 A 
ATOM      6  C   UNL     1       1.958   7.659  19.969  0.00  0.00    +0.000 A 
ENDROOT
BRANCH   5   7
ATOM      7  N   UNL     1       0.205   9.103  20.903  0.00  0.00    +0.000 N 
ATOM      8  C   UNL     1      -0.959   8.951  19.994  0.00  0.00    +0.000 C 
ATOM      9  C   UNL     1      -1.257  10.366  19.594  0.00  0.00    +0.000 A 
ATOM     10  C   UNL     1      -0.783  11.197  20.612  0.00  0.00    +0.000 A 
ATOM     11  C   UNL     1      -0.703  12.574  20.493  0.00  0.00    +0.000 A 
ATOM     12  C   UNL     1      -1.075  13.129  19.272  0.00  0.00    +0.000 A 
ATOM     13  C   UNL     1      -1.536  12.306  18.227  0.00  0.00    +0.000 A 
ATOM     14  C   UNL     1      -1.663  10.908  18.378  0.00  0.00    +0.000 A 
ATOM     15  C   UNL     1       0.011  10.363  21.549  0.00  0.00    +0.000 C 
ATOM     16  O   UNL     1       0.539  10.785  22.549  0.00  0.00    +0.000 OA
BRANCH  14  17
ATOM     17  C   UNL     1      -2.135  10.072  17.209  0.00  0.00    +0.000 C 
ATOM     18  C   UNL     1      -2.611  10.960  16.071  0.00  0.00    +0.000 C 
ATOM     19  F   UNL     1      -1.149   9.263  16.726  0.00  0.00    +0.000 F 
ATOM     20  F   UNL     1      -3.161   9.232  17.526  0.00  0.00    +0.000 F 
ENDBRANCH  14  17
ENDBRANCH   5   7
BRANCH   1  22
ATOM     21  C   UNL     1       4.181   5.753  18.013  0.00  0.00    +0.000 C 
ATOM     22  C   UNL     1       2.906   5.907  18.409  0.00  0.00    +0.000 C 
BRANCH  22  23
ATOM     23  C   UNL     1       1.945   4.745  18.620  0.00  0.00    +0.000 C 
BRANCH  23  24
ATOM     24  C   UNL     1       2.134   3.935  19.872  0.00  0.00    +0.000 A 
ATOM     25  N   UNL     1       1.577   4.159  21.048  0.00  0.00    +0.000 NA
ATOM     26  N   UNL     1       2.087   3.249  21.949  0.00  0.00    +0.000 NA
ATOM     27  C   UNL     1       2.919   2.480  21.305  0.00  0.00    +0.000 A 
ATOM     28  N   UNL     1       2.962   2.843  19.994  0.00  0.00    +0.000 N 
ATOM     29  C   UNL     1       3.695   2.166  18.960  0.00  0.00    +0.000 C 
ENDBRANCH  23  24
ENDBRANCH  22  23
ENDBRANCH   1  22
TORSDOF 5
ENDMDL
MODEL 9
REMARK VINA RESULT:      -8.0      1.734      2.148
REMARK  Name = 
REMARK  7 active torsions:
REMARK  status: ('A' for Active; 'I' for Inactive)
REMARK    1  A    between atoms: C_2  and  C_3
REMARK    2  A    between atoms: C_2  and  C_10
REMARK    3  A    between atoms: C_3  and  C_4
REMARK    4  A    between atoms: N_8  and  C_9
REMARK    5  A    between atoms: C_14  and  N_15
REMARK    6  A    between atoms: C_22  and  C_23
REMARK    7  A    between atoms: C_23  and  C_24
REMARK                            x       y       z     vdW  Elec       q    Type
REMARK                         _______ _______ _______ _____ _____    ______ ____
ROOT
ATOM      1  C   UNL     1       1.299   8.884  19.376  0.00  0.00    +0.000 A 
ATOM      2  C   UNL     1       2.021   9.234  18.231  0.00  0.00    +0.000 A 
ATOM      3  C   UNL     1       2.649   8.256  17.467  0.00  0.00    +0.000 A 
ATOM      4  C   UNL     1       2.676   6.943  17.916  0.00  0.00    +0.000 A 
ATOM      5  C   UNL     1       2.331   6.696  19.251  0.00  0.00    +0.000 A 
ATOM      6  C   UNL     1       1.475   7.599  19.910  0.00  0.00    +0.000 A 
ENDROOT
BRANCH   5   7
ATOM      7  N   UNL     1       3.288   5.951  20.074  0.00  0.00    +0.000 N 
ATOM      8  C   UNL     1       4.518   5.678  19.288  0.00  0.00    +0.000 C 
ATOM      9  C   UNL     1       4.246   4.323  18.704  0.00  0.00    +0.000 A 
ATOM     10  C   UNL     1       3.338   3.678  19.546  0.00  0.00    +0.000 A 
ATOM     11  C   UNL     1       2.706   2.492  19.216  0.00  0.00    +0.000 A 
ATOM     12  C   UNL     1       2.969   1.961  17.957  0.00  0.00    +0.000 A 
ATOM     13  C   UNL     1       3.866   2.607  17.086  0.00  0.00    +0.000 A 
ATOM     14  C   UNL     1       4.546   3.788  17.454  0.00  0.00    +0.000 A 
ATOM     15  C   UNL     1       2.850   4.672  20.535  0.00  0.00    +0.000 C 
ATOM     16  O   UNL     1       2.066   4.419  21.418  0.00  0.00    +0.000 OA
BRANCH  14  17
ATOM     17  C   UNL     1       5.475   4.454  16.463  0.00  0.00    +0.000 C 
ATOM     18  C   UNL     1       6.902   4.465  16.988  0.00  0.00    +0.000 C 
ATOM     19  F   UNL     1       5.477   3.820  15.256  0.00  0.00    +0.000 F 
ATOM     20  F   UNL     1       5.133   5.744  16.186  0.00  0.00    +0.000 F 
ENDBRANCH  14  17
ENDBRANCH   5   7
BRANCH   1  22
ATOM     21  C   UNL     1      -0.599  10.413  19.341  0.00  0.00    +0.000 C 
ATOM     22  C   UNL     1       0.450   9.910  20.013  0.00  0.00    +0.000 C 
BRANCH  22  23
ATOM     23  C   UNL     1       0.809  10.315  21.436  0.00  0.00    +0.000 C 
BRANCH  23  24
ATOM     24  C   UNL     1      -0.245  11.056  22.211  0.00  0.00    +0.000 A 
ATOM     25  N   UNL     1      -1.155  10.528  23.009  0.00  0.00    +0.000 NA
ATOM     26  N   UNL     1      -1.987  11.537  23.443  0.00  0.00    +0.000 NA
ATOM     27  C   UNL     1      -1.558  12.654  22.925  0.00  0.00    +0.000 A 
ATOM     28  N   UNL     1      -0.450  12.416  22.171  0.00  0.00    +0.000 N 
ATOM     29  C   UNL     1       0.352  13.415  21.521  0.00  0.00    +0.000 C 
ENDBRANCH  23  24
ENDBRANCH  22  23
ENDBRANCH   1  22
TORSDOF 5
ENDMDL
