MODEL 1
REMARK VINA RESULT:      -8.4      0.000      0.000
REMARK  Name = 
REMARK  3 active torsions:
REMARK  status: ('A' for Active; 'I' for Inactive)
REMARK    1  A    between atoms: C_2  and  C_3
REMARK    2  A    between atoms: C_3  and  N_4
REMARK    3  A    between atoms: C_18  and  C_19
REMARK                            x       y       z     vdW  Elec       q    Type
REMARK                         _______ _______ _______ _____ _____    ______ ____
ROOT
ATOM      1  O   UNL     1       6.096   3.387  18.611  0.00  0.00    +0.000 OA
ATOM      2  C   UNL     1       5.346   4.351  18.794  0.00  0.00    +0.000 C 
ATOM      3  N   UNL     1       4.277   4.174  19.639  0.00  0.00    +0.000 N 
ATOM      4  C   UNL     1       3.270   5.068  19.854  0.00  0.00    +0.000 A 
ATOM      5  N   UNL     1       3.057   6.185  19.222  0.00  0.00    +0.000 NA
ATOM      6  C   UNL     1       2.017   6.881  19.818  0.00  0.00    +0.000 A 
ATOM      7  C   UNL     1       1.415   6.223  20.872  0.00  0.00    +0.000 A 
ATOM      8  S   UNL     1       2.174   4.688  21.099  0.00  0.00    +0.000 S 
ATOM      9  H   UNL     1       4.242   3.296  20.136  0.00  0.00    +0.000 HD
ENDROOT
BRANCH   6  10
ATOM     10  C   UNL     1       1.707   8.222  19.350  0.00  0.00    +0.000 A 
ATOM     11  C   UNL     1       2.144   8.740  18.125  0.00  0.00    +0.000 A 
ATOM     12  C   UNL     1       1.925  10.092  17.819  0.00  0.00    +0.000 A 
ATOM     13  C   UNL     1       1.292  10.926  18.741  0.00  0.00    +0.000 A 
ATOM     14  C   UNL     1       0.782  10.384  19.915  0.00  0.00    +0.000 A 
ATOM     15  C   UNL     1       0.982   9.048  20.219  0.00  0.00    +0.000 A 
ATOM     16  O   UNL     1       0.111  11.139  20.836  0.00  0.00    +0.000 OA
ATOM     17  C   UNL     1       0.780  12.391  20.928  0.00  0.00    +0.000 C 
ATOM     18  C   UNL     1       0.850  13.086  19.571  0.00  0.00    +0.000 C 
ATOM     19  O   UNL     1       1.249  12.262  18.464  0.00  0.00    +0.000 OA
ENDBRANCH   6  10
BRANCH   2  20
ATOM     20  C   UNL     1       5.547   5.672  18.040  0.00  0.00    +0.000 C 
BRANCH  20  21
ATOM     21  N   UNL     1       5.974   5.569  16.647  0.00  0.00    +0.000 N 
ATOM     22  C   UNL     1       7.248   5.922  16.266  0.00  0.00    +0.000 A 
ATOM     23  N   UNL     1       7.781   5.681  15.119  0.00  0.00    +0.000 NA
ATOM     24  C   UNL     1       7.021   4.966  14.188  0.00  0.00    +0.000 A 
ATOM     25  C   UNL     1       7.595   4.673  12.951  0.00  0.00    +0.000 A 
ATOM     26  C   UNL     1       6.900   3.910  12.012  0.00  0.00    +0.000 A 
ATOM     27  C   UNL     1       5.618   3.442  12.303  0.00  0.00    +0.000 A 
ATOM     28  C   UNL     1       5.029   3.741  13.533  0.00  0.00    +0.000 A 
ATOM     29  C   UNL     1       5.738   4.503  14.471  0.00  0.00    +0.000 A 
ATOM     30  C   UNL     1       5.177   4.806  15.803  0.00  0.00    +0.000 A 
ATOM     31  O   UNL     1       4.080   4.349  16.119  0.00  0.00    +0.000 OA
ENDBRANCH  20  21
ENDBRANCH   2  20
TORSDOF 3
ENDMDL
MODEL 2
REMARK VINA RESULT:      -8.3      7.578     10.597
REMARK  Name = 
REMARK  3 active torsions:
REMARK  status: ('A' for Active; 'I' for Inactive)
REMARK    1  A    between atoms: C_2  and  C_3
REMARK    2  A    between atoms: C_3  and  N_4
REMARK    3  A    between atoms: C_18  and  C_19
REMARK                            x       y       z     vdW  Elec       q    Type
REMARK                         _______ _______ _______ _____ _____    ______ ____
ROOT
ATOM      1  O   UNL     1      -2.801  14.669  25.007  0.00  0.00    +0.000 OA
ATOM      2  C   UNL     1      -3.221  14.328  23.897  0.00  0.00    +0.000 C 
ATOM      3  N   UNL     1      -4.527  13.914  23.810  0.00  0.00    +0.000 N 
ATOM      4  C   UNL     1      -5.125  13.372  22.710  0.00  0.00    +0.000 A 
ATOM      5  N   UNL     1      -4.556  13.029  21.592  0.00  0.00    +0.000 NA
ATOM      6  C   UNL     1      -5.513  12.642  20.667  0.00  0.00    +0.000 A 
ATOM      7  C   UNL     1      -6.808  12.643  21.147  0.00  0.00    +0.000 A 
ATOM      8  S   UNL     1      -6.806  13.128  22.804  0.00  0.00    +0.000 S 
ATOM      9  H   UNL     1      -5.085  14.021  24.645  0.00  0.00    +0.000 HD
ENDROOT
BRANCH   6  10
ATOM     10  C   UNL     1      -5.100  12.351  19.305  0.00  0.00    +0.000 A 
ATOM     11  C   UNL     1      -5.964  12.390  18.203  0.00  0.00    +0.000 A 
ATOM     12  C   UNL     1      -5.517  11.949  16.948  0.00  0.00    +0.000 A 
ATOM     13  C   UNL     1      -4.221  11.454  16.799  0.00  0.00    +0.000 A 
ATOM     14  C   UNL     1      -3.343  11.504  17.874  0.00  0.00    +0.000 A 
ATOM     15  C   UNL     1      -3.771  11.948  19.114  0.00  0.00    +0.000 A 
ATOM     16  O   UNL     1      -2.047  11.077  17.779  0.00  0.00    +0.000 OA
ATOM     17  C   UNL     1      -2.046   9.898  16.984  0.00  0.00    +0.000 C 
ATOM     18  C   UNL     1      -2.660  10.151  15.609  0.00  0.00    +0.000 C 
ATOM     19  O   UNL     1      -3.892  10.891  15.599  0.00  0.00    +0.000 OA
ENDBRANCH   6  10
BRANCH   2  20
ATOM     20  C   UNL     1      -2.295  14.284  22.674  0.00  0.00    +0.000 C 
BRANCH  20  21
ATOM     21  N   UNL     1      -1.477  13.083  22.518  0.00  0.00    +0.000 N 
ATOM     22  C   UNL     1      -1.591  12.028  23.392  0.00  0.00    +0.000 A 
ATOM     23  N   UNL     1      -1.074  10.859  23.230  0.00  0.00    +0.000 NA
ATOM     24  C   UNL     1      -0.367  10.623  22.046  0.00  0.00    +0.000 A 
ATOM     25  C   UNL     1       0.176   9.355  21.842  0.00  0.00    +0.000 A 
ATOM     26  C   UNL     1       0.838   9.052  20.651  0.00  0.00    +0.000 A 
ATOM     27  C   UNL     1       0.968  10.023  19.658  0.00  0.00    +0.000 A 
ATOM     28  C   UNL     1       0.441  11.300  19.858  0.00  0.00    +0.000 A 
ATOM     29  C   UNL     1      -0.227  11.592  21.055  0.00  0.00    +0.000 A 
ATOM     30  C   UNL     1      -0.843  12.913  21.294  0.00  0.00    +0.000 A 
ATOM     31  O   UNL     1      -0.809  13.768  20.411  0.00  0.00    +0.000 OA
ENDBRANCH  20  21
ENDBRANCH   2  20
TORSDOF 3
ENDMDL
MODEL 3
REMARK VINA RESULT:      -7.7      5.064      8.005
REMARK  Name = 
REMARK  3 active torsions:
REMARK  status: ('A' for Active; 'I' for Inactive)
REMARK    1  A    between atoms: C_2  and  C_3
REMARK    2  A    between atoms: C_3  and  N_4
REMARK    3  A    between atoms: C_18  and  C_19
REMARK                            x       y       z     vdW  Elec       q    Type
REMARK                         _______ _______ _______ _____ _____    ______ ____
ROOT
ATOM      1  O   UNL     1       3.017  12.279  17.756  0.00  0.00    +0.000 OA
ATOM      2  C   UNL     1       2.165  12.513  18.619  0.00  0.00    +0.000 C 
ATOM      3  N   UNL     1       2.324  13.643  19.382  0.00  0.00    +0.000 N 
ATOM      4  C   UNL     1       1.572  13.991  20.466  0.00  0.00    +0.000 A 
ATOM      5  N   UNL     1       0.658  13.277  21.055  0.00  0.00    +0.000 NA
ATOM      6  C   UNL     1       0.023  14.025  22.033  0.00  0.00    +0.000 A 
ATOM      7  C   UNL     1       0.532  15.297  22.204  0.00  0.00    +0.000 A 
ATOM      8  S   UNL     1       1.849  15.540  21.114  0.00  0.00    +0.000 S 
ATOM      9  H   UNL     1       3.073  14.263  19.110  0.00  0.00    +0.000 HD
ENDROOT
BRANCH   6  10
ATOM     10  C   UNL     1      -1.126  13.457  22.719  0.00  0.00    +0.000 A 
ATOM     11  C   UNL     1      -1.319  12.084  22.910  0.00  0.00    +0.000 A 
ATOM     12  C   UNL     1      -2.527  11.616  23.450  0.00  0.00    +0.000 A 
ATOM     13  C   UNL     1      -3.543  12.514  23.779  0.00  0.00    +0.000 A 
ATOM     14  C   UNL     1      -3.308  13.879  23.672  0.00  0.00    +0.000 A 
ATOM     15  C   UNL     1      -2.115  14.351  23.151  0.00  0.00    +0.000 A 
ATOM     16  O   UNL     1      -4.246  14.811  24.022  0.00  0.00    +0.000 OA
ATOM     17  C   UNL     1      -5.510  14.326  23.587  0.00  0.00    +0.000 C 
ATOM     18  C   UNL     1      -5.820  12.958  24.189  0.00  0.00    +0.000 C 
ATOM     19  O   UNL     1      -4.752  11.997  24.147  0.00  0.00    +0.000 OA
ENDBRANCH   6  10
BRANCH   2  20
ATOM     20  C   UNL     1       1.015  11.533  18.889  0.00  0.00    +0.000 C 
BRANCH  20  21
ATOM     21  N   UNL     1       1.386  10.223  19.422  0.00  0.00    +0.000 N 
ATOM     22  C   UNL     1       1.016   9.842  20.690  0.00  0.00    +0.000 A 
ATOM     23  N   UNL     1       1.115   8.652  21.174  0.00  0.00    +0.000 NA
ATOM     24  C   UNL     1       1.601   7.648  20.330  0.00  0.00    +0.000 A 
ATOM     25  C   UNL     1       1.687   6.349  20.830  0.00  0.00    +0.000 A 
ATOM     26  C   UNL     1       2.109   5.302  20.010  0.00  0.00    +0.000 A 
ATOM     27  C   UNL     1       2.457   5.552  18.682  0.00  0.00    +0.000 A 
ATOM     28  C   UNL     1       2.388   6.850  18.176  0.00  0.00    +0.000 A 
ATOM     29  C   UNL     1       1.957   7.893  19.006  0.00  0.00    +0.000 A 
ATOM     30  C   UNL     1       1.822   9.276  18.504  0.00  0.00    +0.000 A 
ATOM     31  O   UNL     1       2.052   9.518  17.321  0.00  0.00    +0.000 OA
ENDBRANCH  20  21
ENDBRANCH   2  20
TORSDOF 3
ENDMDL
MODEL 4
REMARK VINA RESULT:      -7.6      4.800      8.021
REMARK  Name = 
REMARK  3 active torsions:
REMARK  status: ('A' for Active; 'I' for Inactive)
REMARK    1  A    between atoms: C_2  and  C_3
REMARK    2  A    between atoms: C_3  and  N_4
REMARK    3  A    between atoms: C_18  and  C_19
REMARK                            x       y       z     vdW  Elec       q    Type
REMARK                         _______ _______ _______ _____ _____    ______ ____
ROOT
ATOM      1  O   UNL     1      -1.448  11.170  19.664  0.00  0.00    +0.000 OA
ATOM      2  C   UNL     1      -0.463  11.914  19.624  0.00  0.00    +0.000 C 
ATOM      3  N   UNL     1      -0.669  13.225  19.269  0.00  0.00    +0.000 N 
ATOM      4  C   UNL     1       0.302  14.153  19.035  0.00  0.00    +0.000 A 
ATOM      5  N   UNL     1       1.587  13.955  18.978  0.00  0.00    +0.000 NA
ATOM      6  C   UNL     1       2.252  15.165  18.857  0.00  0.00    +0.000 A 
ATOM      7  C   UNL     1       1.426  16.268  18.758  0.00  0.00    +0.000 A 
ATOM      8  S   UNL     1      -0.223  15.756  18.806  0.00  0.00    +0.000 S 
ATOM      9  H   UNL     1      -1.631  13.514  19.170  0.00  0.00    +0.000 HD
ENDROOT
BRANCH   6  10
ATOM     10  C   UNL     1       3.704  15.179  18.914  0.00  0.00    +0.000 A 
ATOM     11  C   UNL     1       4.530  15.019  17.795  0.00  0.00    +0.000 A 
ATOM     12  C   UNL     1       5.918  14.896  17.961  0.00  0.00    +0.000 A 
ATOM     13  C   UNL     1       6.475  14.914  19.240  0.00  0.00    +0.000 A 
ATOM     14  C   UNL     1       5.660  15.164  20.337  0.00  0.00    +0.000 A 
ATOM     15  C   UNL     1       4.291  15.298  20.181  0.00  0.00    +0.000 A 
ATOM     16  O   UNL     1       6.152  15.240  21.610  0.00  0.00    +0.000 OA
ATOM     17  C   UNL     1       7.141  14.226  21.744  0.00  0.00    +0.000 C 
ATOM     18  C   UNL     1       8.245  14.381  20.701  0.00  0.00    +0.000 C 
ATOM     19  O   UNL     1       7.806  14.630  19.356  0.00  0.00    +0.000 OA
ENDBRANCH   6  10
BRANCH   2  20
ATOM     20  C   UNL     1       0.953  11.377  19.876  0.00  0.00    +0.000 C 
BRANCH  20  21
ATOM     21  N   UNL     1       1.256  10.057  19.328  0.00  0.00    +0.000 N 
ATOM     22  C   UNL     1       1.804   9.917  18.074  0.00  0.00    +0.000 A 
ATOM     23  N   UNL     1       2.291   8.830  17.585  0.00  0.00    +0.000 NA
ATOM     24  C   UNL     1       2.304   7.698  18.408  0.00  0.00    +0.000 A 
ATOM     25  C   UNL     1       2.853   6.520  17.903  0.00  0.00    +0.000 A 
ATOM     26  C   UNL     1       2.944   5.381  18.705  0.00  0.00    +0.000 A 
ATOM     27  C   UNL     1       2.475   5.414  20.018  0.00  0.00    +0.000 A 
ATOM     28  C   UNL     1       1.910   6.584  20.529  0.00  0.00    +0.000 A 
ATOM     29  C   UNL     1       1.830   7.723  19.717  0.00  0.00    +0.000 A 
ATOM     30  C   UNL     1       1.284   8.998  20.227  0.00  0.00    +0.000 A 
ATOM     31  O   UNL     1       0.928   9.081  21.400  0.00  0.00    +0.000 OA
ENDBRANCH  20  21
ENDBRANCH   2  20
TORSDOF 3
ENDMDL
MODEL 5
REMARK VINA RESULT:      -7.5      5.266      9.578
REMARK  Name = 
REMARK  3 active torsions:
REMARK  status: ('A' for Active; 'I' for Inactive)
REMARK    1  A    between atoms: C_2  and  C_3
REMARK    2  A    between atoms: C_3  and  N_4
REMARK    3  A    between atoms: C_18  and  C_19
REMARK                            x       y       z     vdW  Elec       q    Type
REMARK                         _______ _______ _______ _____ _____    ______ ____
ROOT
ATOM      1  O   UNL     1       0.268  16.092  18.716  0.00  0.00    +0.000 OA
ATOM      2  C   UNL     1       0.445  14.872  18.641  0.00  0.00    +0.000 C 
ATOM      3  N   UNL     1      -0.665  14.063  18.679  0.00  0.00    +0.000 N 
ATOM      4  C   UNL     1      -0.661  12.701  18.751  0.00  0.00    +0.000 A 
ATOM      5  N   UNL     1       0.366  11.922  18.922  0.00  0.00    +0.000 NA
ATOM      6  C   UNL     1      -0.015  10.595  18.804  0.00  0.00    +0.000 A 
ATOM      7  C   UNL     1      -1.368  10.401  18.605  0.00  0.00    +0.000 A 
ATOM      8  S   UNL     1      -2.169  11.931  18.583  0.00  0.00    +0.000 S 
ATOM      9  H   UNL     1      -1.558  14.532  18.657  0.00  0.00    +0.000 HD
ENDROOT
BRANCH   6  10
ATOM     10  C   UNL     1       1.009   9.563  18.825  0.00  0.00    +0.000 A 
ATOM     11  C   UNL     1       1.905   9.333  17.774  0.00  0.00    +0.000 A 
ATOM     12  C   UNL     1       2.761   8.222  17.815  0.00  0.00    +0.000 A 
ATOM     13  C   UNL     1       2.707   7.335  18.890  0.00  0.00    +0.000 A 
ATOM     14  C   UNL     1       1.880   7.619  19.970  0.00  0.00    +0.000 A 
ATOM     15  C   UNL     1       1.041   8.720  19.944  0.00  0.00    +0.000 A 
ATOM     16  O   UNL     1       1.816   6.814  21.073  0.00  0.00    +0.000 OA
ATOM     17  C   UNL     1       1.863   5.466  20.619  0.00  0.00    +0.000 C 
ATOM     18  C   UNL     1       3.120   5.199  19.796  0.00  0.00    +0.000 C 
ATOM     19  O   UNL     1       3.443   6.187  18.804  0.00  0.00    +0.000 OA
ENDBRANCH   6  10
BRANCH   2  20
ATOM     20  C   UNL     1       1.858  14.273  18.595  0.00  0.00    +0.000 C 
BRANCH  20  21
ATOM     21  N   UNL     1       2.712  14.529  19.753  0.00  0.00    +0.000 N 
ATOM     22  C   UNL     1       2.376  14.061  21.001  0.00  0.00    +0.000 A 
ATOM     23  N   UNL     1       3.148  14.056  22.033  0.00  0.00    +0.000 NA
ATOM     24  C   UNL     1       4.454  14.529  21.868  0.00  0.00    +0.000 A 
ATOM     25  C   UNL     1       5.310  14.504  22.968  0.00  0.00    +0.000 A 
ATOM     26  C   UNL     1       6.640  14.909  22.839  0.00  0.00    +0.000 A 
ATOM     27  C   UNL     1       7.118  15.350  21.606  0.00  0.00    +0.000 A 
ATOM     28  C   UNL     1       6.266  15.392  20.501  0.00  0.00    +0.000 A 
ATOM     29  C   UNL     1       4.935  14.978  20.640  0.00  0.00    +0.000 A 
ATOM     30  C   UNL     1       4.007  14.960  19.490  0.00  0.00    +0.000 A 
ATOM     31  O   UNL     1       4.415  15.275  18.375  0.00  0.00    +0.000 OA
ENDBRANCH  20  21
ENDBRANCH   2  20
TORSDOF 3
ENDMDL
MODEL 6
REMARK VINA RESULT:      -7.5      6.548      9.766
REMARK  Name = 
REMARK  3 active torsions:
REMARK  status: ('A' for Active; 'I' for Inactive)
REMARK    1  A    between atoms: C_2  and  C_3
REMARK    2  A    between atoms: C_3  and  N_4
REMARK    3  A    between atoms: C_18  and  C_19
REMARK                            x       y       z     vdW  Elec       q    Type
REMARK                         _______ _______ _______ _____ _____    ______ ____
ROOT
ATOM      1  O   UNL     1      -3.068  11.718  23.600  0.00  0.00    +0.000 OA
ATOM      2  C   UNL     1      -2.658  12.683  22.947  0.00  0.00    +0.000 C 
ATOM      3  N   UNL     1      -3.575  13.635  22.574  0.00  0.00    +0.000 N 
ATOM      4  C   UNL     1      -3.342  14.689  21.740  0.00  0.00    +0.000 A 
ATOM      5  N   UNL     1      -2.266  14.925  21.047  0.00  0.00    +0.000 NA
ATOM      6  C   UNL     1      -2.356  16.161  20.429  0.00  0.00    +0.000 A 
ATOM      7  C   UNL     1      -3.557  16.815  20.624  0.00  0.00    +0.000 A 
ATOM      8  S   UNL     1      -4.593  15.834  21.598  0.00  0.00    +0.000 S 
ATOM      9  H   UNL     1      -4.505  13.532  22.954  0.00  0.00    +0.000 HD
ENDROOT
BRANCH   6  10
ATOM     10  C   UNL     1      -1.200  16.679  19.715  0.00  0.00    +0.000 A 
ATOM     11  C   UNL     1      -1.266  17.707  18.767  0.00  0.00    +0.000 A 
ATOM     12  C   UNL     1      -0.128  18.042  18.019  0.00  0.00    +0.000 A 
ATOM     13  C   UNL     1       1.064  17.340  18.202  0.00  0.00    +0.000 A 
ATOM     14  C   UNL     1       1.146  16.384  19.207  0.00  0.00    +0.000 A 
ATOM     15  C   UNL     1       0.031  16.055  19.959  0.00  0.00    +0.000 A 
ATOM     16  O   UNL     1       2.298  15.695  19.468  0.00  0.00    +0.000 OA
ATOM     17  C   UNL     1       2.900  15.386  18.217  0.00  0.00    +0.000 C 
ATOM     18  C   UNL     1       3.168  16.647  17.400  0.00  0.00    +0.000 C 
ATOM     19  O   UNL     1       2.091  17.596  17.339  0.00  0.00    +0.000 OA
ENDBRANCH   6  10
BRANCH   2  20
ATOM     20  C   UNL     1      -1.195  12.775  22.494  0.00  0.00    +0.000 C 
BRANCH  20  21
ATOM     21  N   UNL     1      -0.760  11.801  21.495  0.00  0.00    +0.000 N 
ATOM     22  C   UNL     1      -0.678  12.135  20.164  0.00  0.00    +0.000 A 
ATOM     23  N   UNL     1      -0.121  11.426  19.245  0.00  0.00    +0.000 NA
ATOM     24  C   UNL     1       0.491  10.229  19.632  0.00  0.00    +0.000 A 
ATOM     25  C   UNL     1       1.123   9.462  18.654  0.00  0.00    +0.000 A 
ATOM     26  C   UNL     1       1.799   8.291  18.999  0.00  0.00    +0.000 A 
ATOM     27  C   UNL     1       1.838   7.875  20.330  0.00  0.00    +0.000 A 
ATOM     28  C   UNL     1       1.197   8.627  21.316  0.00  0.00    +0.000 A 
ATOM     29  C   UNL     1       0.527   9.804  20.958  0.00  0.00    +0.000 A 
ATOM     30  C   UNL     1      -0.127  10.659  21.971  0.00  0.00    +0.000 A 
ATOM     31  O   UNL     1      -0.050  10.359  23.161  0.00  0.00    +0.000 OA
ENDBRANCH  20  21
ENDBRANCH   2  20
TORSDOF 3
ENDMDL
MODEL 7
REMARK VINA RESULT:      -7.5      4.744      7.955
REMARK  Name = 
REMARK  3 active torsions:
REMARK  status: ('A' for Active; 'I' for Inactive)
REMARK    1  A    between atoms: C_2  and  C_3
REMARK    2  A    between atoms: C_3  and  N_4
REMARK    3  A    between atoms: C_18  and  C_19
REMARK                            x       y       z     vdW  Elec       q    Type
REMARK                         _______ _______ _______ _____ _____    ______ ____
ROOT
ATOM      1  O   UNL     1      -1.468  10.844  19.154  0.00  0.00    +0.000 OA
ATOM      2  C   UNL     1      -0.485  11.567  19.340  0.00  0.00    +0.000 C 
ATOM      3  N   UNL     1      -0.598  12.894  19.007  0.00  0.00    +0.000 N 
ATOM      4  C   UNL     1       0.413  13.810  19.009  0.00  0.00    +0.000 A 
ATOM      5  N   UNL     1       1.680  13.586  19.199  0.00  0.00    +0.000 NA
ATOM      6  C   UNL     1       2.374  14.784  19.262  0.00  0.00    +0.000 A 
ATOM      7  C   UNL     1       1.599  15.908  19.048  0.00  0.00    +0.000 A 
ATOM      8  S   UNL     1      -0.033  15.431  18.746  0.00  0.00    +0.000 S 
ATOM      9  H   UNL     1      -1.517  13.208  18.731  0.00  0.00    +0.000 HD
ENDROOT
BRANCH   6  10
ATOM     10  C   UNL     1       3.785  14.765  19.606  0.00  0.00    +0.000 A 
ATOM     11  C   UNL     1       4.267  14.794  20.921  0.00  0.00    +0.000 A 
ATOM     12  C   UNL     1       5.644  14.923  21.158  0.00  0.00    +0.000 A 
ATOM     13  C   UNL     1       6.532  15.043  20.089  0.00  0.00    +0.000 A 
ATOM     14  C   UNL     1       6.056  14.922  18.789  0.00  0.00    +0.000 A 
ATOM     15  C   UNL     1       4.701  14.782  18.545  0.00  0.00    +0.000 A 
ATOM     16  O   UNL     1       6.882  14.984  17.700  0.00  0.00    +0.000 OA
ATOM     17  C   UNL     1       7.845  15.999  17.955  0.00  0.00    +0.000 C 
ATOM     18  C   UNL     1       8.623  15.720  19.239  0.00  0.00    +0.000 C 
ATOM     19  O   UNL     1       7.837  15.328  20.376  0.00  0.00    +0.000 OA
ENDBRANCH   6  10
BRANCH   2  20
ATOM     20  C   UNL     1       0.845  10.990  19.845  0.00  0.00    +0.000 C 
BRANCH  20  21
ATOM     21  N   UNL     1       1.267   9.719  19.262  0.00  0.00    +0.000 N 
ATOM     22  C   UNL     1       1.857   9.668  18.020  0.00  0.00    +0.000 A 
ATOM     23  N   UNL     1       2.442   8.641  17.509  0.00  0.00    +0.000 NA
ATOM     24  C   UNL     1       2.523   7.485  18.293  0.00  0.00    +0.000 A 
ATOM     25  C   UNL     1       3.178   6.372  17.765  0.00  0.00    +0.000 A 
ATOM     26  C   UNL     1       3.338   5.216  18.530  0.00  0.00    +0.000 A 
ATOM     27  C   UNL     1       2.834   5.164  19.830  0.00  0.00    +0.000 A 
ATOM     28  C   UNL     1       2.165   6.267  20.363  0.00  0.00    +0.000 A 
ATOM     29  C   UNL     1       2.015   7.425  19.588  0.00  0.00    +0.000 A 
ATOM     30  C   UNL     1       1.356   8.634  20.125  0.00  0.00    +0.000 A 
ATOM     31  O   UNL     1       0.964   8.646  21.289  0.00  0.00    +0.000 OA
ENDBRANCH  20  21
ENDBRANCH   2  20
TORSDOF 3
ENDMDL
MODEL 8
REMARK VINA RESULT:      -7.5      4.840      8.171
REMARK  Name = 
REMARK  3 active torsions:
REMARK  status: ('A' for Active; 'I' for Inactive)
REMARK    1  A    between atoms: C_2  and  C_3
REMARK    2  A    between atoms: C_3  and  N_4
REMARK    3  A    between atoms: C_18  and  C_19
REMARK                            x       y       z     vdW  Elec       q    Type
REMARK                         _______ _______ _______ _____ _____    ______ ____
ROOT
ATOM      1  O   UNL     1      -1.322  10.911  19.450  0.00  0.00    +0.000 OA
ATOM      2  C   UNL     1      -0.418  11.749  19.374  0.00  0.00    +0.000 C 
ATOM      3  N   UNL     1      -0.781  13.068  19.254  0.00  0.00    +0.000 N 
ATOM      4  C   UNL     1       0.063  14.113  19.019  0.00  0.00    +0.000 A 
ATOM      5  N   UNL     1       1.332  14.056  18.739  0.00  0.00    +0.000 NA
ATOM      6  C   UNL     1       1.872  15.331  18.702  0.00  0.00    +0.000 A 
ATOM      7  C   UNL     1       0.958  16.348  18.895  0.00  0.00    +0.000 A 
ATOM      8  S   UNL     1      -0.616  15.671  19.114  0.00  0.00    +0.000 S 
ATOM      9  H   UNL     1      -1.766  13.270  19.346  0.00  0.00    +0.000 HD
ENDROOT
BRANCH   6  10
ATOM     10  C   UNL     1       3.308  15.484  18.541  0.00  0.00    +0.000 A 
ATOM     11  C   UNL     1       4.145  14.488  18.023  0.00  0.00    +0.000 A 
ATOM     12  C   UNL     1       5.537  14.664  18.042  0.00  0.00    +0.000 A 
ATOM     13  C   UNL     1       6.090  15.820  18.593  0.00  0.00    +0.000 A 
ATOM     14  C   UNL     1       5.251  16.842  19.022  0.00  0.00    +0.000 A 
ATOM     15  C   UNL     1       3.876  16.682  18.996  0.00  0.00    +0.000 A 
ATOM     16  O   UNL     1       5.732  18.017  19.528  0.00  0.00    +0.000 OA
ATOM     17  C   UNL     1       6.852  17.701  20.346  0.00  0.00    +0.000 C 
ATOM     18  C   UNL     1       7.921  16.945  19.561  0.00  0.00    +0.000 C 
ATOM     19  O   UNL     1       7.448  15.869  18.734  0.00  0.00    +0.000 OA
ENDBRANCH   6  10
BRANCH   2  20
ATOM     20  C   UNL     1       1.057  11.329  19.326  0.00  0.00    +0.000 C 
BRANCH  20  21
ATOM     21  N   UNL     1       1.327   9.937  18.969  0.00  0.00    +0.000 N 
ATOM     22  C   UNL     1       1.894   9.612  17.758  0.00  0.00    +0.000 A 
ATOM     23  N   UNL     1       2.353   8.454  17.432  0.00  0.00    +0.000 NA
ATOM     24  C   UNL     1       2.313   7.445  18.401  0.00  0.00    +0.000 A 
ATOM     25  C   UNL     1       2.832   6.193  18.073  0.00  0.00    +0.000 A 
ATOM     26  C   UNL     1       2.870   5.172  19.023  0.00  0.00    +0.000 A 
ATOM     27  C   UNL     1       2.378   5.397  20.309  0.00  0.00    +0.000 A 
ATOM     28  C   UNL     1       1.843   6.642  20.643  0.00  0.00    +0.000 A 
ATOM     29  C   UNL     1       1.816   7.662  19.683  0.00  0.00    +0.000 A 
ATOM     30  C   UNL     1       1.303   9.010  20.003  0.00  0.00    +0.000 A 
ATOM     31  O   UNL     1       0.928   9.263  21.146  0.00  0.00    +0.000 OA
ENDBRANCH  20  21
ENDBRANCH   2  20
TORSDOF 3
ENDMDL
MODEL 9
REMARK VINA RESULT:      -7.5      4.663      7.695
REMARK  Name = 
REMARK  3 active torsions:
REMARK  status: ('A' for Active; 'I' for Inactive)
REMARK    1  A    between atoms: C_2  and  C_3
REMARK    2  A    between atoms: C_3  and  N_4
REMARK    3  A    between atoms: C_18  and  C_19
REMARK                            x       y       z     vdW  Elec       q    Type
REMARK                         _______ _______ _______ _____ _____    ______ ____
ROOT
ATOM      1  O   UNL     1      -1.069  10.213  18.601  0.00  0.00    +0.000 OA
ATOM      2  C   UNL     1      -0.182  11.058  18.756  0.00  0.00    +0.000 C 
ATOM      3  N   UNL     1      -0.567  12.371  18.879  0.00  0.00    +0.000 N 
ATOM      4  C   UNL     1       0.266  13.450  18.916  0.00  0.00    +0.000 A 
ATOM      5  N   UNL     1       1.552  13.462  18.718  0.00  0.00    +0.000 NA
ATOM      6  C   UNL     1       2.064  14.724  18.974  0.00  0.00    +0.000 A 
ATOM      7  C   UNL     1       1.115  15.672  19.304  0.00  0.00    +0.000 A 
ATOM      8  S   UNL     1      -0.453  14.950  19.275  0.00  0.00    +0.000 S 
ATOM      9  H   UNL     1      -1.560  12.540  18.943  0.00  0.00    +0.000 HD
ENDROOT
BRANCH   6  10
ATOM     10  C   UNL     1       3.503  14.920  18.945  0.00  0.00    +0.000 A 
ATOM     11  C   UNL     1       4.276  14.848  17.780  0.00  0.00    +0.000 A 
ATOM     12  C   UNL     1       5.676  14.902  17.864  0.00  0.00    +0.000 A 
ATOM     13  C   UNL     1       6.300  15.007  19.107  0.00  0.00    +0.000 A 
ATOM     14  C   UNL     1       5.525  15.169  20.249  0.00  0.00    +0.000 A 
ATOM     15  C   UNL     1       4.143  15.130  20.174  0.00  0.00    +0.000 A 
ATOM     16  O   UNL     1       6.077  15.324  21.491  0.00  0.00    +0.000 OA
ATOM     17  C   UNL     1       7.191  14.443  21.573  0.00  0.00    +0.000 C 
ATOM     18  C   UNL     1       8.204  14.720  20.465  0.00  0.00    +0.000 C 
ATOM     19  O   UNL     1       7.660  14.892  19.147  0.00  0.00    +0.000 OA
ENDBRANCH   6  10
BRANCH   2  20
ATOM     20  C   UNL     1       1.303  10.670  18.725  0.00  0.00    +0.000 C 
BRANCH  20  21
ATOM     21  N   UNL     1       1.644   9.356  19.266  0.00  0.00    +0.000 N 
ATOM     22  C   UNL     1       1.213   8.967  20.513  0.00  0.00    +0.000 A 
ATOM     23  N   UNL     1       1.285   7.774  20.993  0.00  0.00    +0.000 NA
ATOM     24  C   UNL     1       1.808   6.774  20.167  0.00  0.00    +0.000 A 
ATOM     25  C   UNL     1       1.867   5.472  20.662  0.00  0.00    +0.000 A 
ATOM     26  C   UNL     1       2.325   4.428  19.856  0.00  0.00    +0.000 A 
ATOM     27  C   UNL     1       2.736   4.686  18.548  0.00  0.00    +0.000 A 
ATOM     28  C   UNL     1       2.695   5.988  18.047  0.00  0.00    +0.000 A 
ATOM     29  C   UNL     1       2.228   7.027  18.863  0.00  0.00    +0.000 A 
ATOM     30  C   UNL     1       2.121   8.414  18.364  0.00  0.00    +0.000 A 
ATOM     31  O   UNL     1       2.408   8.663  17.195  0.00  0.00    +0.000 OA
ENDBRANCH  20  21
ENDBRANCH   2  20
TORSDOF 3
ENDMDL
