MODEL 1
REMARK VINA RESULT:      -7.8      0.000      0.000
REMARK  Name = 
REMARK  9 active torsions:
REMARK  status: ('A' for Active; 'I' for Inactive)
REMARK    1  A    between atoms: C_1  and  N_2
REMARK    2  A    between atoms: C_4  and  C_5
REMARK    3  A    between atoms: C_9  and  C_10
REMARK    4  A    between atoms: C_10  and  N_11
REMARK    5  A    between atoms: N_11  and  C_12
REMARK    6  A    between atoms: C_16  and  C_17
REMARK    7  A    between atoms: C_17  and  C_18
REMARK    8  A    between atoms: C_18  and  C_19
REMARK    9  A    between atoms: N_23  and  C_24
REMARK                            x       y       z     vdW  Elec       q    Type
REMARK                         _______ _______ _______ _____ _____    ______ ____
ROOT
ATOM      1  C   UNL     1       2.937   6.218  18.587  0.00  0.00    +0.000 A 
ATOM      2  C   UNL     1       2.510   5.019  19.143  0.00  0.00    +0.000 A 
ATOM      3  C   UNL     1       3.444   4.045  19.508  0.00  0.00    +0.000 A 
ATOM      4  C   UNL     1       4.811   4.255  19.296  0.00  0.00    +0.000 A 
ATOM      5  C   UNL     1       5.287   5.430  18.693  0.00  0.00    +0.000 A 
ATOM      6  C   UNL     1       4.311   6.397  18.376  0.00  0.00    +0.000 A 
ENDROOT
BRANCH   5   7
ATOM      7  C   UNL     1       6.809   5.666  18.261  0.00  0.00    +0.000 C 
ATOM      8  C   UNL     1       7.756   5.916  19.475  0.00  0.00    +0.000 C 
ATOM      9  O   UNL     1       8.431   6.983  18.767  0.00  0.00    +0.000 OA
ATOM     10  C   UNL     1       7.299   7.083  17.858  0.00  0.00    +0.000 C 
BRANCH   7  11
ATOM     11  C   UNL     1       7.359   4.537  17.369  0.00  0.00    +0.000 C 
BRANCH  11  12
ATOM     12  C   UNL     1       6.977   4.656  15.934  0.00  0.00    +0.000 A 
ATOM     13  N   UNL     1       7.683   5.250  14.991  0.00  0.00    +0.000 NA
ATOM     14  N   UNL     1       7.041   5.067  13.790  0.00  0.00    +0.000 NA
ATOM     15  C   UNL     1       5.956   4.367  14.023  0.00  0.00    +0.000 A 
ATOM     16  N   UNL     1       5.865   4.099  15.355  0.00  0.00    +0.000 N 
ATOM     17  C   UNL     1       4.812   3.347  15.983  0.00  0.00    +0.000 C 
ENDBRANCH  11  12
ENDBRANCH   7  11
ENDBRANCH   5   7
BRANCH   1  18
ATOM     18  N   UNL     1       2.108   7.238  18.132  0.00  0.00    +0.000 N 
ATOM     19  H   UNL     1       1.132   6.979  18.281  0.00  0.00    +0.000 HD
BRANCH  18  20
ATOM     20  C   UNL     1       2.335   8.632  18.491  0.00  0.00    +0.000 C 
BRANCH  20  25
ATOM     21  C   UNL     1      -1.600  11.437  18.024  0.00  0.00    +0.000 C 
ATOM     22  N   UNL     1      -0.638  10.593  18.690  0.00  0.00    +0.000 N 
ATOM     23  C   UNL     1      -0.681  10.167  19.981  0.00  0.00    +0.000 A 
ATOM     24  C   UNL     1       0.422   9.348  20.162  0.00  0.00    +0.000 A 
ATOM     25  C   UNL     1       1.075   9.362  18.891  0.00  0.00    +0.000 A 
ATOM     26  N   UNL     1       0.422  10.131  18.007  0.00  0.00    +0.000 NA
BRANCH  24  27
ATOM     27  C   UNL     1       0.824   8.611  21.387  0.00  0.00    +0.000 C 
ATOM     28  F   UNL     1       1.937   9.160  21.951  0.00  0.00    +0.000 F 
ATOM     29  F   UNL     1      -0.130   8.637  22.354  0.00  0.00    +0.000 F 
ATOM     30  F   UNL     1       1.137   7.310  21.154  0.00  0.00    +0.000 F 
ENDBRANCH  24  27
ENDBRANCH  20  25
ENDBRANCH  18  20
ENDBRANCH   1  18
TORSDOF 7
ENDMDL
MODEL 2
REMARK VINA RESULT:      -7.8      2.996      4.217
REMARK  Name = 
REMARK  9 active torsions:
REMARK  status: ('A' for Active; 'I' for Inactive)
REMARK    1  A    between atoms: C_1  and  N_2
REMARK    2  A    between atoms: C_4  and  C_5
REMARK    3  A    between atoms: C_9  and  C_10
REMARK    4  A    between atoms: C_10  and  N_11
REMARK    5  A    between atoms: N_11  and  C_12
REMARK    6  A    between atoms: C_16  and  C_17
REMARK    7  A    between atoms: C_17  and  C_18
REMARK    8  A    between atoms: C_18  and  C_19
REMARK    9  A    between atoms: N_23  and  C_24
REMARK                            x       y       z     vdW  Elec       q    Type
REMARK                         _______ _______ _______ _____ _____    ______ ____
ROOT
ATOM      1  C   UNL     1       2.003   7.759  19.712  0.00  0.00    +0.000 A 
ATOM      2  C   UNL     1       2.417   8.394  18.548  0.00  0.00    +0.000 A 
ATOM      3  C   UNL     1       2.958   7.647  17.498  0.00  0.00    +0.000 A 
ATOM      4  C   UNL     1       3.111   6.261  17.615  0.00  0.00    +0.000 A 
ATOM      5  C   UNL     1       2.752   5.581  18.790  0.00  0.00    +0.000 A 
ATOM      6  C   UNL     1       2.178   6.372  19.806  0.00  0.00    +0.000 A 
ENDROOT
BRANCH   5   7
ATOM      7  C   UNL     1       3.057   4.034  19.062  0.00  0.00    +0.000 C 
ATOM      8  C   UNL     1       1.848   3.107  18.732  0.00  0.00    +0.000 C 
ATOM      9  O   UNL     1       2.069   2.338  19.938  0.00  0.00    +0.000 OA
ATOM     10  C   UNL     1       2.858   3.434  20.481  0.00  0.00    +0.000 C 
BRANCH   7  11
ATOM     11  C   UNL     1       4.329   3.541  18.347  0.00  0.00    +0.000 C 
BRANCH  11  12
ATOM     12  C   UNL     1       5.546   4.346  18.650  0.00  0.00    +0.000 A 
ATOM     13  N   UNL     1       5.917   4.772  19.842  0.00  0.00    +0.000 NA
ATOM     14  N   UNL     1       7.135   5.395  19.720  0.00  0.00    +0.000 NA
ATOM     15  C   UNL     1       7.484   5.339  18.457  0.00  0.00    +0.000 A 
ATOM     16  N   UNL     1       6.513   4.705  17.744  0.00  0.00    +0.000 N 
ATOM     17  C   UNL     1       6.549   4.450  16.329  0.00  0.00    +0.000 C 
ENDBRANCH  11  12
ENDBRANCH   7  11
ENDBRANCH   5   7
BRANCH   1  18
ATOM     18  N   UNL     1       1.504   8.394  20.844  0.00  0.00    +0.000 N 
ATOM     19  H   UNL     1       2.197   9.050  21.204  0.00  0.00    +0.000 HD
BRANCH  18  20
ATOM     20  C   UNL     1       0.170   8.982  20.871  0.00  0.00    +0.000 C 
BRANCH  20  25
ATOM     21  C   UNL     1       1.085  13.724  21.360  0.00  0.00    +0.000 C 
ATOM     22  N   UNL     1       0.548  12.527  20.761  0.00  0.00    +0.000 N 
ATOM     23  C   UNL     1      -0.134  12.436  19.588  0.00  0.00    +0.000 A 
ATOM     24  C   UNL     1      -0.410  11.091  19.397  0.00  0.00    +0.000 A 
ATOM     25  C   UNL     1       0.157  10.456  20.544  0.00  0.00    +0.000 A 
ATOM     26  N   UNL     1       0.730  11.343  21.370  0.00  0.00    +0.000 NA
BRANCH  24  27
ATOM     27  C   UNL     1      -1.115  10.455  18.254  0.00  0.00    +0.000 C 
ATOM     28  F   UNL     1      -0.280   9.633  17.555  0.00  0.00    +0.000 F 
ATOM     29  F   UNL     1      -2.157   9.677  18.645  0.00  0.00    +0.000 F 
ATOM     30  F   UNL     1      -1.586  11.350  17.348  0.00  0.00    +0.000 F 
ENDBRANCH  24  27
ENDBRANCH  20  25
ENDBRANCH  18  20
ENDBRANCH   1  18
TORSDOF 7
ENDMDL
MODEL 3
REMARK VINA RESULT:      -7.7      3.648      5.350
REMARK  Name = 
REMARK  9 active torsions:
REMARK  status: ('A' for Active; 'I' for Inactive)
REMARK    1  A    between atoms: C_1  and  N_2
REMARK    2  A    between atoms: C_4  and  C_5
REMARK    3  A    between atoms: C_9  and  C_10
REMARK    4  A    between atoms: C_10  and  N_11
REMARK    5  A    between atoms: N_11  and  C_12
REMARK    6  A    between atoms: C_16  and  C_17
REMARK    7  A    between atoms: C_17  and  C_18
REMARK    8  A    between atoms: C_18  and  C_19
REMARK    9  A    between atoms: N_23  and  C_24
REMARK                            x       y       z     vdW  Elec       q    Type
REMARK                         _______ _______ _______ _____ _____    ______ ____
ROOT
ATOM      1  C   UNL     1       0.632   9.633  18.854  0.00  0.00    +0.000 A 
ATOM      2  C   UNL     1       0.413   9.664  20.225  0.00  0.00    +0.000 A 
ATOM      3  C   UNL     1       1.049   8.737  21.057  0.00  0.00    +0.000 A 
ATOM      4  C   UNL     1       1.890   7.758  20.518  0.00  0.00    +0.000 A 
ATOM      5  C   UNL     1       2.105   7.657  19.134  0.00  0.00    +0.000 A 
ATOM      6  C   UNL     1       1.471   8.635  18.341  0.00  0.00    +0.000 A 
ENDROOT
BRANCH   5   7
ATOM      7  C   UNL     1       2.909   6.464  18.434  0.00  0.00    +0.000 C 
ATOM      8  C   UNL     1       4.055   5.896  19.325  0.00  0.00    +0.000 C 
ATOM      9  O   UNL     1       4.950   5.837  18.190  0.00  0.00    +0.000 OA
ATOM     10  C   UNL     1       4.093   6.772  17.477  0.00  0.00    +0.000 C 
BRANCH   7  11
ATOM     11  C   UNL     1       1.989   5.329  17.946  0.00  0.00    +0.000 C 
BRANCH  11  12
ATOM     12  C   UNL     1       1.804   4.230  18.935  0.00  0.00    +0.000 A 
ATOM     13  N   UNL     1       1.041   4.276  20.011  0.00  0.00    +0.000 NA
ATOM     14  N   UNL     1       1.064   3.040  20.610  0.00  0.00    +0.000 NA
ATOM     15  C   UNL     1       1.839   2.264  19.890  0.00  0.00    +0.000 A 
ATOM     16  N   UNL     1       2.339   2.970  18.839  0.00  0.00    +0.000 N 
ATOM     17  C   UNL     1       3.221   2.449  17.830  0.00  0.00    +0.000 C 
ENDBRANCH  11  12
ENDBRANCH   7  11
ENDBRANCH   5   7
BRANCH   1  18
ATOM     18  N   UNL     1       0.017  10.460  17.920  0.00  0.00    +0.000 N 
ATOM     19  H   UNL     1      -0.725   9.947  17.442  0.00  0.00    +0.000 HD
BRANCH  18  20
ATOM     20  C   UNL     1      -0.419  11.810  18.255  0.00  0.00    +0.000 C 
BRANCH  20  25
ATOM     21  C   UNL     1      -4.319  12.947  20.911  0.00  0.00    +0.000 C 
ATOM     22  N   UNL     1      -3.576  12.379  19.814  0.00  0.00    +0.000 N 
ATOM     23  C   UNL     1      -4.086  11.749  18.722  0.00  0.00    +0.000 A 
ATOM     24  C   UNL     1      -3.005  11.413  17.922  0.00  0.00    +0.000 A 
ATOM     25  C   UNL     1      -1.874  11.890  18.651  0.00  0.00    +0.000 A 
ATOM     26  N   UNL     1      -2.236  12.468  19.806  0.00  0.00    +0.000 NA
BRANCH  24  27
ATOM     27  C   UNL     1      -3.021  10.731  16.602  0.00  0.00    +0.000 C 
ATOM     28  F   UNL     1      -2.263  11.404  15.690  0.00  0.00    +0.000 F 
ATOM     29  F   UNL     1      -2.509   9.475  16.652  0.00  0.00    +0.000 F 
ATOM     30  F   UNL     1      -4.261  10.649  16.054  0.00  0.00    +0.000 F 
ENDBRANCH  24  27
ENDBRANCH  20  25
ENDBRANCH  18  20
ENDBRANCH   1  18
TORSDOF 7
ENDMDL
MODEL 4
REMARK VINA RESULT:      -7.7      1.953      2.352
REMARK  Name = 
REMARK  9 active torsions:
REMARK  status: ('A' for Active; 'I' for Inactive)
REMARK    1  A    between atoms: C_1  and  N_2
REMARK    2  A    between atoms: C_4  and  C_5
REMARK    3  A    between atoms: C_9  and  C_10
REMARK    4  A    between atoms: C_10  and  N_11
REMARK    5  A    between atoms: N_11  and  C_12
REMARK    6  A    between atoms: C_16  and  C_17
REMARK    7  A    between atoms: C_17  and  C_18
REMARK    8  A    between atoms: C_18  and  C_19
REMARK    9  A    between atoms: N_23  and  C_24
REMARK                            x       y       z     vdW  Elec       q    Type
REMARK                         _______ _______ _______ _____ _____    ______ ____
ROOT
ATOM      1  C   UNL     1       3.004   5.354  19.641  0.00  0.00    +0.000 A 
ATOM      2  C   UNL     1       2.835   4.019  19.988  0.00  0.00    +0.000 A 
ATOM      3  C   UNL     1       3.911   3.131  19.901  0.00  0.00    +0.000 A 
ATOM      4  C   UNL     1       5.159   3.569  19.444  0.00  0.00    +0.000 A 
ATOM      5  C   UNL     1       5.366   4.896  19.037  0.00  0.00    +0.000 A 
ATOM      6  C   UNL     1       4.262   5.761  19.176  0.00  0.00    +0.000 A 
ENDROOT
BRANCH   5   7
ATOM      7  C   UNL     1       6.707   5.424  18.342  0.00  0.00    +0.000 C 
ATOM      8  C   UNL     1       7.781   5.896  19.369  0.00  0.00    +0.000 C 
ATOM      9  O   UNL     1       8.088   7.057  18.562  0.00  0.00    +0.000 OA
ATOM     10  C   UNL     1       6.817   6.899  17.870  0.00  0.00    +0.000 C 
BRANCH   7  11
ATOM     11  C   UNL     1       7.311   4.406  17.356  0.00  0.00    +0.000 C 
BRANCH  11  12
ATOM     12  C   UNL     1       6.927   4.636  15.935  0.00  0.00    +0.000 A 
ATOM     13  N   UNL     1       7.689   5.180  15.006  0.00  0.00    +0.000 NA
ATOM     14  N   UNL     1       7.014   5.132  13.810  0.00  0.00    +0.000 NA
ATOM     15  C   UNL     1       5.854   4.561  14.033  0.00  0.00    +0.000 A 
ATOM     16  N   UNL     1       5.748   4.247  15.353  0.00  0.00    +0.000 N 
ATOM     17  C   UNL     1       4.618   3.602  15.967  0.00  0.00    +0.000 C 
ENDBRANCH  11  12
ENDBRANCH   7  11
ENDBRANCH   5   7
BRANCH   1  18
ATOM     18  N   UNL     1       2.003   6.318  19.630  0.00  0.00    +0.000 N 
ATOM     19  H   UNL     1       1.354   6.150  20.400  0.00  0.00    +0.000 HD
BRANCH  18  20
ATOM     20  C   UNL     1       2.304   7.739  19.507  0.00  0.00    +0.000 C 
BRANCH  20  25
ATOM     21  C   UNL     1      -0.108   9.490  23.339  0.00  0.00    +0.000 C 
ATOM     22  N   UNL     1       0.302   9.381  21.961  0.00  0.00    +0.000 N 
ATOM     23  C   UNL     1      -0.075  10.185  20.931  0.00  0.00    +0.000 A 
ATOM     24  C   UNL     1       0.601   9.731  19.809  0.00  0.00    +0.000 A 
ATOM     25  C   UNL     1       1.362   8.622  20.290  0.00  0.00    +0.000 A 
ATOM     26  N   UNL     1       1.164   8.416  21.601  0.00  0.00    +0.000 NA
BRANCH  24  27
ATOM     27  C   UNL     1       0.557  10.281  18.430  0.00  0.00    +0.000 C 
ATOM     28  F   UNL     1      -0.281  11.354  18.352  0.00  0.00    +0.000 F 
ATOM     29  F   UNL     1       1.767  10.726  18.002  0.00  0.00    +0.000 F 
ATOM     30  F   UNL     1       0.097   9.392  17.511  0.00  0.00    +0.000 F 
ENDBRANCH  24  27
ENDBRANCH  20  25
ENDBRANCH  18  20
ENDBRANCH   1  18
TORSDOF 7
ENDMDL
MODEL 5
REMARK VINA RESULT:      -7.5      2.665      3.763
REMARK  Name = 
REMARK  9 active torsions:
REMARK  status: ('A' for Active; 'I' for Inactive)
REMARK    1  A    between atoms: C_1  and  N_2
REMARK    2  A    between atoms: C_4  and  C_5
REMARK    3  A    between atoms: C_9  and  C_10
REMARK    4  A    between atoms: C_10  and  N_11
REMARK    5  A    between atoms: N_11  and  C_12
REMARK    6  A    between atoms: C_16  and  C_17
REMARK    7  A    between atoms: C_17  and  C_18
REMARK    8  A    between atoms: C_18  and  C_19
REMARK    9  A    between atoms: N_23  and  C_24
REMARK                            x       y       z     vdW  Elec       q    Type
REMARK                         _______ _______ _______ _____ _____    ______ ____
ROOT
ATOM      1  C   UNL     1       2.164   7.712  18.644  0.00  0.00    +0.000 A 
ATOM      2  C   UNL     1       1.762   7.732  19.973  0.00  0.00    +0.000 A 
ATOM      3  C   UNL     1       1.915   6.591  20.768  0.00  0.00    +0.000 A 
ATOM      4  C   UNL     1       2.449   5.415  20.228  0.00  0.00    +0.000 A 
ATOM      5  C   UNL     1       2.824   5.333  18.878  0.00  0.00    +0.000 A 
ATOM      6  C   UNL     1       2.684   6.518  18.128  0.00  0.00    +0.000 A 
ENDROOT
BRANCH   5   7
ATOM      7  C   UNL     1       3.274   3.980  18.152  0.00  0.00    +0.000 C 
ATOM      8  C   UNL     1       2.183   3.407  17.198  0.00  0.00    +0.000 C 
ATOM      9  O   UNL     1       2.429   2.063  17.673  0.00  0.00    +0.000 OA
ATOM     10  C   UNL     1       3.076   2.609  18.856  0.00  0.00    +0.000 C 
BRANCH   7  11
ATOM     11  C   UNL     1       4.620   4.116  17.416  0.00  0.00    +0.000 C 
BRANCH  11  12
ATOM     12  C   UNL     1       5.679   4.801  18.210  0.00  0.00    +0.000 A 
ATOM     13  N   UNL     1       6.167   4.393  19.366  0.00  0.00    +0.000 NA
ATOM     14  N   UNL     1       7.186   5.240  19.728  0.00  0.00    +0.000 NA
ATOM     15  C   UNL     1       7.301   6.147  18.788  0.00  0.00    +0.000 A 
ATOM     16  N   UNL     1       6.367   5.923  17.823  0.00  0.00    +0.000 N 
ATOM     17  C   UNL     1       6.195   6.710  16.632  0.00  0.00    +0.000 C 
ENDBRANCH  11  12
ENDBRANCH   7  11
ENDBRANCH   5   7
BRANCH   1  18
ATOM     18  N   UNL     1       2.013   8.758  17.740  0.00  0.00    +0.000 N 
ATOM     19  H   UNL     1       1.367   8.483  17.000  0.00  0.00    +0.000 HD
BRANCH  18  20
ATOM     20  C   UNL     1       1.747  10.122  18.179  0.00  0.00    +0.000 C 
BRANCH  20  25
ATOM     21  C   UNL     1      -3.059   9.802  17.577  0.00  0.00    +0.000 C 
ATOM     22  N   UNL     1      -1.816  10.272  18.137  0.00  0.00    +0.000 N 
ATOM     23  C   UNL     1      -1.665  11.152  19.163  0.00  0.00    +0.000 A 
ATOM     24  C   UNL     1      -0.301  11.269  19.383  0.00  0.00    +0.000 A 
ATOM     25  C   UNL     1       0.281  10.405  18.406  0.00  0.00    +0.000 A 
ATOM     26  N   UNL     1      -0.653   9.811  17.649  0.00  0.00    +0.000 NA
BRANCH  24  27
ATOM     27  C   UNL     1       0.393  12.088  20.409  0.00  0.00    +0.000 C 
ATOM     28  F   UNL     1       1.188  13.034  19.831  0.00  0.00    +0.000 F 
ATOM     29  F   UNL     1      -0.467  12.769  21.210  0.00  0.00    +0.000 F 
ATOM     30  F   UNL     1       1.215  11.363  21.210  0.00  0.00    +0.000 F 
ENDBRANCH  24  27
ENDBRANCH  20  25
ENDBRANCH  18  20
ENDBRANCH   1  18
TORSDOF 7
ENDMDL
MODEL 6
REMARK VINA RESULT:      -7.5      1.143      1.196
REMARK  Name = 
REMARK  9 active torsions:
REMARK  status: ('A' for Active; 'I' for Inactive)
REMARK    1  A    between atoms: C_1  and  N_2
REMARK    2  A    between atoms: C_4  and  C_5
REMARK    3  A    between atoms: C_9  and  C_10
REMARK    4  A    between atoms: C_10  and  N_11
REMARK    5  A    between atoms: N_11  and  C_12
REMARK    6  A    between atoms: C_16  and  C_17
REMARK    7  A    between atoms: C_17  and  C_18
REMARK    8  A    between atoms: C_18  and  C_19
REMARK    9  A    between atoms: N_23  and  C_24
REMARK                            x       y       z     vdW  Elec       q    Type
REMARK                         _______ _______ _______ _____ _____    ______ ____
ROOT
ATOM      1  C   UNL     1       3.066   7.120  17.975  0.00  0.00    +0.000 A 
ATOM      2  C   UNL     1       2.345   5.947  18.156  0.00  0.00    +0.000 A 
ATOM      3  C   UNL     1       3.014   4.742  18.389  0.00  0.00    +0.000 A 
ATOM      4  C   UNL     1       4.412   4.700  18.420  0.00  0.00    +0.000 A 
ATOM      5  C   UNL     1       5.185   5.850  18.196  0.00  0.00    +0.000 A 
ATOM      6  C   UNL     1       4.465   7.046  18.000  0.00  0.00    +0.000 A 
ENDROOT
BRANCH   5   7
ATOM      7  C   UNL     1       6.778   5.846  18.042  0.00  0.00    +0.000 C 
ATOM      8  C   UNL     1       7.522   5.968  19.407  0.00  0.00    +0.000 C 
ATOM      9  O   UNL     1       8.465   6.910  18.844  0.00  0.00    +0.000 OA
ATOM     10  C   UNL     1       7.540   7.168  17.751  0.00  0.00    +0.000 C 
BRANCH   7  11
ATOM     11  C   UNL     1       7.300   4.635  17.246  0.00  0.00    +0.000 C 
BRANCH  11  12
ATOM     12  C   UNL     1       7.043   4.716  15.781  0.00  0.00    +0.000 A 
ATOM     13  N   UNL     1       7.691   5.479  14.922  0.00  0.00    +0.000 NA
ATOM     14  N   UNL     1       7.226   5.201  13.659  0.00  0.00    +0.000 NA
ATOM     15  C   UNL     1       6.303   4.276  13.772  0.00  0.00    +0.000 A 
ATOM     16  N   UNL     1       6.142   3.951  15.084  0.00  0.00    +0.000 N 
ATOM     17  C   UNL     1       5.222   2.969  15.593  0.00  0.00    +0.000 C 
ENDBRANCH  11  12
ENDBRANCH   7  11
ENDBRANCH   5   7
BRANCH   1  18
ATOM     18  N   UNL     1       2.522   8.365  17.681  0.00  0.00    +0.000 N 
ATOM     19  H   UNL     1       2.687   8.590  16.700  0.00  0.00    +0.000 HD
BRANCH  18  20
ATOM     20  C   UNL     1       1.164   8.723  18.072  0.00  0.00    +0.000 C 
BRANCH  20  25
ATOM     21  C   UNL     1       1.131  13.306  19.672  0.00  0.00    +0.000 C 
ATOM     22  N   UNL     1       1.099  11.867  19.756  0.00  0.00    +0.000 N 
ATOM     23  C   UNL     1       0.935  11.118  20.879  0.00  0.00    +0.000 A 
ATOM     24  C   UNL     1       0.926   9.794  20.471  0.00  0.00    +0.000 A 
ATOM     25  C   UNL     1       1.105   9.867  19.056  0.00  0.00    +0.000 A 
ATOM     26  N   UNL     1       1.217  11.136  18.636  0.00  0.00    +0.000 NA
BRANCH  24  27
ATOM     27  C   UNL     1       0.752   8.579  21.309  0.00  0.00    +0.000 C 
ATOM     28  F   UNL     1       1.031   8.839  22.619  0.00  0.00    +0.000 F 
ATOM     29  F   UNL     1      -0.520   8.104  21.291  0.00  0.00    +0.000 F 
ATOM     30  F   UNL     1       1.577   7.560  20.957  0.00  0.00    +0.000 F 
ENDBRANCH  24  27
ENDBRANCH  20  25
ENDBRANCH  18  20
ENDBRANCH   1  18
TORSDOF 7
ENDMDL
MODEL 7
REMARK VINA RESULT:      -7.5      2.508      3.568
REMARK  Name = 
REMARK  9 active torsions:
REMARK  status: ('A' for Active; 'I' for Inactive)
REMARK    1  A    between atoms: C_1  and  N_2
REMARK    2  A    between atoms: C_4  and  C_5
REMARK    3  A    between atoms: C_9  and  C_10
REMARK    4  A    between atoms: C_10  and  N_11
REMARK    5  A    between atoms: N_11  and  C_12
REMARK    6  A    between atoms: C_16  and  C_17
REMARK    7  A    between atoms: C_17  and  C_18
REMARK    8  A    between atoms: C_18  and  C_19
REMARK    9  A    between atoms: N_23  and  C_24
REMARK                            x       y       z     vdW  Elec       q    Type
REMARK                         _______ _______ _______ _____ _____    ______ ____
ROOT
ATOM      1  C   UNL     1       3.289   4.770  19.657  0.00  0.00    +0.000 A 
ATOM      2  C   UNL     1       2.695   3.516  19.717  0.00  0.00    +0.000 A 
ATOM      3  C   UNL     1       3.085   2.513  18.826  0.00  0.00    +0.000 A 
ATOM      4  C   UNL     1       4.057   2.766  17.852  0.00  0.00    +0.000 A 
ATOM      5  C   UNL     1       4.651   4.031  17.721  0.00  0.00    +0.000 A 
ATOM      6  C   UNL     1       4.251   4.998  18.665  0.00  0.00    +0.000 A 
ENDROOT
BRANCH   5   7
ATOM      7  C   UNL     1       5.635   4.442  16.527  0.00  0.00    +0.000 C 
ATOM      8  C   UNL     1       5.193   5.745  15.795  0.00  0.00    +0.000 C 
ATOM      9  O   UNL     1       5.487   5.157  14.506  0.00  0.00    +0.000 OA
ATOM     10  C   UNL     1       5.445   3.834  15.111  0.00  0.00    +0.000 C 
BRANCH   7  11
ATOM     11  C   UNL     1       7.106   4.543  16.973  0.00  0.00    +0.000 C 
BRANCH  11  12
ATOM     12  C   UNL     1       7.533   5.919  17.350  0.00  0.00    +0.000 A 
ATOM     13  N   UNL     1       7.628   6.952  16.534  0.00  0.00    +0.000 NA
ATOM     14  N   UNL     1       7.962   8.059  17.275  0.00  0.00    +0.000 NA
ATOM     15  C   UNL     1       8.066   7.682  18.527  0.00  0.00    +0.000 A 
ATOM     16  N   UNL     1       7.821   6.346  18.621  0.00  0.00    +0.000 N 
ATOM     17  C   UNL     1       7.837   5.580  19.839  0.00  0.00    +0.000 C 
ENDBRANCH  11  12
ENDBRANCH   7  11
ENDBRANCH   5   7
BRANCH   1  18
ATOM     18  N   UNL     1       2.950   5.863  20.447  0.00  0.00    +0.000 N 
ATOM     19  H   UNL     1       3.506   6.673  20.172  0.00  0.00    +0.000 HD
BRANCH  18  20
ATOM     20  C   UNL     1       1.562   6.243  20.679  0.00  0.00    +0.000 C 
BRANCH  20  25
ATOM     21  C   UNL     1       0.233  10.742  21.927  0.00  0.00    +0.000 C 
ATOM     22  N   UNL     1       0.725   9.688  21.075  0.00  0.00    +0.000 N 
ATOM     23  C   UNL     1       1.183   9.815  19.801  0.00  0.00    +0.000 A 
ATOM     24  C   UNL     1       1.588   8.551  19.401  0.00  0.00    +0.000 A 
ATOM     25  C   UNL     1       1.313   7.726  20.534  0.00  0.00    +0.000 A 
ATOM     26  N   UNL     1       0.780   8.430  21.543  0.00  0.00    +0.000 NA
BRANCH  24  27
ATOM     27  C   UNL     1       2.188   8.150  18.102  0.00  0.00    +0.000 C 
ATOM     28  F   UNL     1       1.718   6.936  17.695  0.00  0.00    +0.000 F 
ATOM     29  F   UNL     1       1.893   9.015  17.097  0.00  0.00    +0.000 F 
ATOM     30  F   UNL     1       3.538   8.020  18.150  0.00  0.00    +0.000 F 
ENDBRANCH  24  27
ENDBRANCH  20  25
ENDBRANCH  18  20
ENDBRANCH   1  18
TORSDOF 7
ENDMDL
MODEL 8
REMARK VINA RESULT:      -7.4      2.155      3.218
REMARK  Name = 
REMARK  9 active torsions:
REMARK  status: ('A' for Active; 'I' for Inactive)
REMARK    1  A    between atoms: C_1  and  N_2
REMARK    2  A    between atoms: C_4  and  C_5
REMARK    3  A    between atoms: C_9  and  C_10
REMARK    4  A    between atoms: C_10  and  N_11
REMARK    5  A    between atoms: N_11  and  C_12
REMARK    6  A    between atoms: C_16  and  C_17
REMARK    7  A    between atoms: C_17  and  C_18
REMARK    8  A    between atoms: C_18  and  C_19
REMARK    9  A    between atoms: N_23  and  C_24
REMARK                            x       y       z     vdW  Elec       q    Type
REMARK                         _______ _______ _______ _____ _____    ______ ____
ROOT
ATOM      1  C   UNL     1       2.702   6.289  18.160  0.00  0.00    +0.000 A 
ATOM      2  C   UNL     1       1.897   5.181  18.392  0.00  0.00    +0.000 A 
ATOM      3  C   UNL     1       2.283   3.923  17.918  0.00  0.00    +0.000 A 
ATOM      4  C   UNL     1       3.467   3.772  17.188  0.00  0.00    +0.000 A 
ATOM      5  C   UNL     1       4.288   4.870  16.887  0.00  0.00    +0.000 A 
ATOM      6  C   UNL     1       3.875   6.109  17.417  0.00  0.00    +0.000 A 
ENDROOT
BRANCH   5   7
ATOM      7  C   UNL     1       5.557   4.803  15.914  0.00  0.00    +0.000 C 
ATOM      8  C   UNL     1       5.168   4.793  14.404  0.00  0.00    +0.000 C 
ATOM      9  O   UNL     1       6.151   3.767  14.127  0.00  0.00    +0.000 OA
ATOM     10  C   UNL     1       6.189   3.434  15.543  0.00  0.00    +0.000 C 
BRANCH   7  11
ATOM     11  C   UNL     1       6.589   5.911  16.200  0.00  0.00    +0.000 C 
BRANCH  11  12
ATOM     12  C   UNL     1       7.183   5.848  17.565  0.00  0.00    +0.000 A 
ATOM     13  N   UNL     1       7.298   4.767  18.312  0.00  0.00    +0.000 NA
ATOM     14  N   UNL     1       7.979   5.101  19.457  0.00  0.00    +0.000 NA
ATOM     15  C   UNL     1       8.267   6.379  19.388  0.00  0.00    +0.000 A 
ATOM     16  N   UNL     1       7.774   6.894  18.228  0.00  0.00    +0.000 N 
ATOM     17  C   UNL     1       7.902   8.262  17.803  0.00  0.00    +0.000 C 
ENDBRANCH  11  12
ENDBRANCH   7  11
ENDBRANCH   5   7
BRANCH   1  18
ATOM     18  N   UNL     1       2.401   7.596  18.529  0.00  0.00    +0.000 N 
ATOM     19  H   UNL     1       1.915   8.066  17.765  0.00  0.00    +0.000 HD
BRANCH  18  20
ATOM     20  C   UNL     1       1.780   7.910  19.810  0.00  0.00    +0.000 C 
BRANCH  20  25
ATOM     21  C   UNL     1       0.775  12.447  18.406  0.00  0.00    +0.000 C 
ATOM     22  N   UNL     1       0.765  11.285  19.260  0.00  0.00    +0.000 N 
ATOM     23  C   UNL     1       0.101  11.144  20.439  0.00  0.00    +0.000 A 
ATOM     24  C   UNL     1       0.349   9.852  20.877  0.00  0.00    +0.000 A 
ATOM     25  C   UNL     1       1.197   9.302  19.868  0.00  0.00    +0.000 A 
ATOM     26  N   UNL     1       1.449  10.189  18.894  0.00  0.00    +0.000 NA
BRANCH  24  27
ATOM     27  C   UNL     1      -0.165   9.188  22.102  0.00  0.00    +0.000 C 
ATOM     28  F   UNL     1      -1.048   9.989  22.765  0.00  0.00    +0.000 F 
ATOM     29  F   UNL     1      -0.837   8.038  21.836  0.00  0.00    +0.000 F 
ATOM     30  F   UNL     1       0.808   8.896  23.003  0.00  0.00    +0.000 F 
ENDBRANCH  24  27
ENDBRANCH  20  25
ENDBRANCH  18  20
ENDBRANCH   1  18
TORSDOF 7
ENDMDL
MODEL 9
REMARK VINA RESULT:      -7.4      3.402      4.985
REMARK  Name = 
REMARK  9 active torsions:
REMARK  status: ('A' for Active; 'I' for Inactive)
REMARK    1  A    between atoms: C_1  and  N_2
REMARK    2  A    between atoms: C_4  and  C_5
REMARK    3  A    between atoms: C_9  and  C_10
REMARK    4  A    between atoms: C_10  and  N_11
REMARK    5  A    between atoms: N_11  and  C_12
REMARK    6  A    between atoms: C_16  and  C_17
REMARK    7  A    between atoms: C_17  and  C_18
REMARK    8  A    between atoms: C_18  and  C_19
REMARK    9  A    between atoms: N_23  and  C_24
REMARK                            x       y       z     vdW  Elec       q    Type
REMARK                         _______ _______ _______ _____ _____    ______ ____
ROOT
ATOM      1  C   UNL     1       1.025   9.544  19.150  0.00  0.00    +0.000 A 
ATOM      2  C   UNL     1       0.697   9.374  20.489  0.00  0.00    +0.000 A 
ATOM      3  C   UNL     1       1.184   8.269  21.194  0.00  0.00    +0.000 A 
ATOM      4  C   UNL     1       1.983   7.314  20.555  0.00  0.00    +0.000 A 
ATOM      5  C   UNL     1       2.300   7.418  19.191  0.00  0.00    +0.000 A 
ATOM      6  C   UNL     1       1.817   8.567  18.534  0.00  0.00    +0.000 A 
ENDROOT
BRANCH   5   7
ATOM      7  C   UNL     1       3.057   6.282  18.356  0.00  0.00    +0.000 C 
ATOM      8  C   UNL     1       4.152   5.543  19.184  0.00  0.00    +0.000 C 
ATOM      9  O   UNL     1       5.068   5.581  18.065  0.00  0.00    +0.000 OA
ATOM     10  C   UNL     1       4.277   6.645  17.466  0.00  0.00    +0.000 C 
BRANCH   7  11
ATOM     11  C   UNL     1       2.091   5.271  17.710  0.00  0.00    +0.000 C 
BRANCH  11  12
ATOM     12  C   UNL     1       2.308   3.862  18.143  0.00  0.00    +0.000 A 
ATOM     13  N   UNL     1       3.081   2.977  17.542  0.00  0.00    +0.000 NA
ATOM     14  N   UNL     1       3.089   1.828  18.295  0.00  0.00    +0.000 NA
ATOM     15  C   UNL     1       2.322   2.033  19.339  0.00  0.00    +0.000 A 
ATOM     16  N   UNL     1       1.797   3.288  19.280  0.00  0.00    +0.000 N 
ATOM     17  C   UNL     1       0.915   3.869  20.255  0.00  0.00    +0.000 C 
ENDBRANCH  11  12
ENDBRANCH   7  11
ENDBRANCH   5   7
BRANCH   1  18
ATOM     18  N   UNL     1       0.559  10.566  18.330  0.00  0.00    +0.000 N 
ATOM     19  H   UNL     1       1.242  10.756  17.596  0.00  0.00    +0.000 HD
BRANCH  18  20
ATOM     20  C   UNL     1      -0.794  10.563  17.789  0.00  0.00    +0.000 C 
BRANCH  20  25
ATOM     21  C   UNL     1      -2.326  13.931  20.931  0.00  0.00    +0.000 C 
ATOM     22  N   UNL     1      -2.433  12.861  19.971  0.00  0.00    +0.000 N 
ATOM     23  C   UNL     1      -3.577  12.325  19.468  0.00  0.00    +0.000 A 
ATOM     24  C   UNL     1      -3.191  11.360  18.552  0.00  0.00    +0.000 A 
ATOM     25  C   UNL     1      -1.764  11.397  18.593  0.00  0.00    +0.000 A 
ATOM     26  N   UNL     1      -1.316  12.310  19.468  0.00  0.00    +0.000 NA
BRANCH  24  27
ATOM     27  C   UNL     1      -4.059  10.500  17.707  0.00  0.00    +0.000 C 
ATOM     28  F   UNL     1      -5.372  10.635  18.053  0.00  0.00    +0.000 F 
ATOM     29  F   UNL     1      -3.991  10.816  16.388  0.00  0.00    +0.000 F 
ATOM     30  F   UNL     1      -3.785   9.176  17.829  0.00  0.00    +0.000 F 
ENDBRANCH  24  27
ENDBRANCH  20  25
ENDBRANCH  18  20
ENDBRANCH   1  18
TORSDOF 7
ENDMDL
