MODEL 1
REMARK VINA RESULT:      -8.3      0.000      0.000
REMARK  Name = 
REMARK  2 active torsions:
REMARK  status: ('A' for Active; 'I' for Inactive)
REMARK    1  A    between atoms: C_3  and  C_4
REMARK    2  A    between atoms: C_8  and  N_9
REMARK                            x       y       z     vdW  Elec       q    Type
REMARK                         _______ _______ _______ _____ _____    ______ ____
ROOT
ATOM      1  C   UNL     1       2.112   6.721  20.229  0.00  0.00    +0.000 A 
ATOM      2  N   UNL     1       1.511   5.777  20.978  0.00  0.00    +0.000 NA
ATOM      3  C   UNL     1       2.030   4.558  20.859  0.00  0.00    +0.000 A 
ATOM      4  C   UNL     1       3.084   4.234  20.031  0.00  0.00    +0.000 A 
ATOM      5  C   UNL     1       3.640   5.249  19.286  0.00  0.00    +0.000 A 
ATOM      6  N   UNL     1       3.162   6.504  19.395  0.00  0.00    +0.000 NA
ATOM      7  C   UNL     1       3.380   2.775  20.084  0.00  0.00    +0.000 C 
ATOM      8  C   UNL     1       2.654   2.359  21.372  0.00  0.00    +0.000 C 
ATOM      9  C   UNL     1       1.487   3.341  21.544  0.00  0.00    +0.000 C 
ENDROOT
BRANCH   5  10
ATOM     10  N   UNL     1       4.663   4.964  18.371  0.00  0.00    +0.000 N 
ATOM     11  C   UNL     1       6.029   5.386  18.765  0.00  0.00    +0.000 C 
ATOM     12  C   UNL     1       6.716   6.275  17.710  0.00  0.00    +0.000 C 
ATOM     13  C   UNL     1       6.608   5.589  16.384  0.00  0.00    +0.000 A 
ATOM     14  C   UNL     1       7.642   5.330  15.519  0.00  0.00    +0.000 A 
ATOM     15  N   UNL     1       7.488   4.620  14.385  0.00  0.00    +0.000 NA
ATOM     16  C   UNL     1       6.244   4.170  14.135  0.00  0.00    +0.000 A 
ATOM     17  N   UNL     1       5.158   4.377  14.888  0.00  0.00    +0.000 NA
ATOM     18  C   UNL     1       5.371   5.084  16.020  0.00  0.00    +0.000 A 
ATOM     19  C   UNL     1       4.234   5.309  16.994  0.00  0.00    +0.000 C 
ENDBRANCH   5  10
BRANCH   1  22
ATOM     20  C   UNL     1       0.975  10.167  19.208  0.00  0.00    +0.000 A 
ATOM     21  C   UNL     1       1.505   8.890  19.129  0.00  0.00    +0.000 A 
ATOM     22  C   UNL     1       1.541   8.081  20.276  0.00  0.00    +0.000 A 
ATOM     23  C   UNL     1       1.022   8.630  21.456  0.00  0.00    +0.000 A 
ATOM     24  C   UNL     1       0.510   9.919  21.438  0.00  0.00    +0.000 A 
ATOM     25  N   UNL     1       0.475  10.699  20.340  0.00  0.00    +0.000 NA
ENDBRANCH   1  22
TORSDOF 2
ENDMDL
MODEL 2
REMARK VINA RESULT:      -7.7      1.226      6.862
REMARK  Name = 
REMARK  2 active torsions:
REMARK  status: ('A' for Active; 'I' for Inactive)
REMARK    1  A    between atoms: C_3  and  C_4
REMARK    2  A    between atoms: C_8  and  N_9
REMARK                            x       y       z     vdW  Elec       q    Type
REMARK                         _______ _______ _______ _____ _____    ______ ____
ROOT
ATOM      1  C   UNL     1       4.170   4.902  17.659  0.00  0.00    +0.000 A 
ATOM      2  N   UNL     1       4.010   3.759  18.352  0.00  0.00    +0.000 NA
ATOM      3  C   UNL     1       2.990   3.766  19.208  0.00  0.00    +0.000 A 
ATOM      4  C   UNL     1       2.153   4.841  19.419  0.00  0.00    +0.000 A 
ATOM      5  C   UNL     1       2.388   5.981  18.683  0.00  0.00    +0.000 A 
ATOM      6  N   UNL     1       3.393   6.008  17.787  0.00  0.00    +0.000 NA
ATOM      7  C   UNL     1       1.157   4.544  20.486  0.00  0.00    +0.000 C 
ATOM      8  C   UNL     1       1.236   3.012  20.565  0.00  0.00    +0.000 C 
ATOM      9  C   UNL     1       2.658   2.632  20.130  0.00  0.00    +0.000 C 
ENDROOT
BRANCH   5  10
ATOM     10  N   UNL     1       1.617   7.129  18.911  0.00  0.00    +0.000 N 
ATOM     11  C   UNL     1       1.534   8.094  17.788  0.00  0.00    +0.000 C 
ATOM     12  C   UNL     1       1.948   9.524  18.186  0.00  0.00    +0.000 C 
ATOM     13  C   UNL     1       1.188   9.900  19.419  0.00  0.00    +0.000 A 
ATOM     14  C   UNL     1       0.444  11.040  19.597  0.00  0.00    +0.000 A 
ATOM     15  N   UNL     1      -0.296  11.268  20.699  0.00  0.00    +0.000 NA
ATOM     16  C   UNL     1      -0.265  10.305  21.639  0.00  0.00    +0.000 A 
ATOM     17  N   UNL     1       0.436   9.167  21.589  0.00  0.00    +0.000 NA
ATOM     18  C   UNL     1       1.150   8.982  20.456  0.00  0.00    +0.000 A 
ATOM     19  C   UNL     1       1.917   7.694  20.249  0.00  0.00    +0.000 C 
ENDBRANCH   5  10
BRANCH   1  22
ATOM     20  C   UNL     1       7.508   5.806  16.157  0.00  0.00    +0.000 A 
ATOM     21  C   UNL     1       6.450   5.748  17.049  0.00  0.00    +0.000 A 
ATOM     22  C   UNL     1       5.321   4.973  16.738  0.00  0.00    +0.000 A 
ATOM     23  C   UNL     1       5.340   4.286  15.516  0.00  0.00    +0.000 A 
ATOM     24  C   UNL     1       6.446   4.403  14.688  0.00  0.00    +0.000 A 
ATOM     25  N   UNL     1       7.531   5.147  14.983  0.00  0.00    +0.000 NA
ENDBRANCH   1  22
TORSDOF 2
ENDMDL
MODEL 3
REMARK VINA RESULT:      -7.6      1.398      6.829
REMARK  Name = 
REMARK  2 active torsions:
REMARK  status: ('A' for Active; 'I' for Inactive)
REMARK    1  A    between atoms: C_3  and  C_4
REMARK    2  A    between atoms: C_8  and  N_9
REMARK                            x       y       z     vdW  Elec       q    Type
REMARK                         _______ _______ _______ _____ _____    ______ ____
ROOT
ATOM      1  C   UNL     1       4.152   4.626  17.169  0.00  0.00    +0.000 A 
ATOM      2  N   UNL     1       3.885   3.381  17.608  0.00  0.00    +0.000 NA
ATOM      3  C   UNL     1       2.831   3.290  18.414  0.00  0.00    +0.000 A 
ATOM      4  C   UNL     1       2.058   4.359  18.815  0.00  0.00    +0.000 A 
ATOM      5  C   UNL     1       2.400   5.603  18.336  0.00  0.00    +0.000 A 
ATOM      6  N   UNL     1       3.444   5.738  17.496  0.00  0.00    +0.000 NA
ATOM      7  C   UNL     1       0.996   3.926  19.766  0.00  0.00    +0.000 C 
ATOM      8  C   UNL     1       0.971   2.409  19.533  0.00  0.00    +0.000 C 
ATOM      9  C   UNL     1       2.383   2.021  19.074  0.00  0.00    +0.000 C 
ENDROOT
BRANCH   5  10
ATOM     10  N   UNL     1       1.696   6.736  18.770  0.00  0.00    +0.000 N 
ATOM     11  C   UNL     1       1.448   7.783  17.749  0.00  0.00    +0.000 C 
ATOM     12  C   UNL     1       1.946   9.176  18.178  0.00  0.00    +0.000 C 
ATOM     13  C   UNL     1       1.403   9.463  19.543  0.00  0.00    +0.000 A 
ATOM     14  C   UNL     1       0.718  10.590  19.923  0.00  0.00    +0.000 A 
ATOM     15  N   UNL     1       0.172  10.739  21.145  0.00  0.00    +0.000 NA
ATOM     16  C   UNL     1       0.338   9.707  21.994  0.00  0.00    +0.000 A 
ATOM     17  N   UNL     1       1.001   8.572  21.747  0.00  0.00    +0.000 NA
ATOM     18  C   UNL     1       1.519   8.470  20.502  0.00  0.00    +0.000 A 
ATOM     19  C   UNL     1       2.219   7.196  20.078  0.00  0.00    +0.000 C 
ENDBRANCH   5  10
BRANCH   1  22
ATOM     20  C   UNL     1       6.514   4.470  14.235  0.00  0.00    +0.000 A 
ATOM     21  C   UNL     1       5.373   4.306  15.003  0.00  0.00    +0.000 A 
ATOM     22  C   UNL     1       5.346   4.797  16.318  0.00  0.00    +0.000 A 
ATOM     23  C   UNL     1       6.502   5.443  16.779  0.00  0.00    +0.000 A 
ATOM     24  C   UNL     1       7.596   5.561  15.935  0.00  0.00    +0.000 A 
ATOM     25  N   UNL     1       7.626   5.090  14.673  0.00  0.00    +0.000 NA
ENDBRANCH   1  22
TORSDOF 2
ENDMDL
MODEL 4
REMARK VINA RESULT:      -7.3      1.291      6.856
REMARK  Name = 
REMARK  2 active torsions:
REMARK  status: ('A' for Active; 'I' for Inactive)
REMARK    1  A    between atoms: C_3  and  C_4
REMARK    2  A    between atoms: C_8  and  N_9
REMARK                            x       y       z     vdW  Elec       q    Type
REMARK                         _______ _______ _______ _____ _____    ______ ____
ROOT
ATOM      1  C   UNL     1       4.116   5.132  17.640  0.00  0.00    +0.000 A 
ATOM      2  N   UNL     1       3.635   3.942  18.049  0.00  0.00    +0.000 NA
ATOM      3  C   UNL     1       2.674   4.016  18.966  0.00  0.00    +0.000 A 
ATOM      4  C   UNL     1       2.192   5.192  19.501  0.00  0.00    +0.000 A 
ATOM      5  C   UNL     1       2.742   6.368  19.044  0.00  0.00    +0.000 A 
ATOM      6  N   UNL     1       3.699   6.341  18.097  0.00  0.00    +0.000 NA
ATOM      7  C   UNL     1       1.166   4.925  20.547  0.00  0.00    +0.000 C 
ATOM      8  C   UNL     1       0.793   3.465  20.249  0.00  0.00    +0.000 C 
ATOM      9  C   UNL     1       2.035   2.825  19.614  0.00  0.00    +0.000 C 
ENDROOT
BRANCH   5  10
ATOM     10  N   UNL     1       2.345   7.589  19.607  0.00  0.00    +0.000 N 
ATOM     11  C   UNL     1       1.711   7.517  20.947  0.00  0.00    +0.000 C 
ATOM     12  C   UNL     1       0.333   8.202  21.001  0.00  0.00    +0.000 C 
ATOM     13  C   UNL     1       0.475   9.577  20.427  0.00  0.00    +0.000 A 
ATOM     14  C   UNL     1       0.071  10.748  21.017  0.00  0.00    +0.000 A 
ATOM     15  N   UNL     1       0.319  11.961  20.486  0.00  0.00    +0.000 NA
ATOM     16  C   UNL     1       0.994  11.967  19.321  0.00  0.00    +0.000 A 
ATOM     17  N   UNL     1       1.419  10.895  18.643  0.00  0.00    +0.000 NA
ATOM     18  C   UNL     1       1.154   9.705  19.226  0.00  0.00    +0.000 A 
ATOM     19  C   UNL     1       1.659   8.426  18.594  0.00  0.00    +0.000 C 
ENDBRANCH   5  10
BRANCH   1  22
ATOM     20  C   UNL     1       7.383   5.875  15.912  0.00  0.00    +0.000 A 
ATOM     21  C   UNL     1       6.365   5.908  16.851  0.00  0.00    +0.000 A 
ATOM     22  C   UNL     1       5.225   5.110  16.667  0.00  0.00    +0.000 A 
ATOM     23  C   UNL     1       5.191   4.308  15.517  0.00  0.00    +0.000 A 
ATOM     24  C   UNL     1       6.259   4.340  14.634  0.00  0.00    +0.000 A 
ATOM     25  N   UNL     1       7.355   5.106  14.807  0.00  0.00    +0.000 NA
ENDBRANCH   1  22
TORSDOF 2
ENDMDL
MODEL 5
REMARK VINA RESULT:      -7.3      1.279      6.893
REMARK  Name = 
REMARK  2 active torsions:
REMARK  status: ('A' for Active; 'I' for Inactive)
REMARK    1  A    between atoms: C_3  and  C_4
REMARK    2  A    between atoms: C_8  and  N_9
REMARK                            x       y       z     vdW  Elec       q    Type
REMARK                         _______ _______ _______ _____ _____    ______ ____
ROOT
ATOM      1  C   UNL     1       4.224   5.327  18.130  0.00  0.00    +0.000 A 
ATOM      2  N   UNL     1       4.100   4.125  18.723  0.00  0.00    +0.000 NA
ATOM      3  C   UNL     1       3.056   4.013  19.542  0.00  0.00    +0.000 A 
ATOM      4  C   UNL     1       2.161   5.027  19.810  0.00  0.00    +0.000 A 
ATOM      5  C   UNL     1       2.360   6.233  19.177  0.00  0.00    +0.000 A 
ATOM      6  N   UNL     1       3.388   6.381  18.320  0.00  0.00    +0.000 NA
ATOM      7  C   UNL     1       1.149   4.596  20.815  0.00  0.00    +0.000 C 
ATOM      8  C   UNL     1       1.302   3.069  20.774  0.00  0.00    +0.000 C 
ATOM      9  C   UNL     1       2.754   2.793  20.358  0.00  0.00    +0.000 C 
ENDROOT
BRANCH   5  10
ATOM     10  N   UNL     1       1.526   7.321  19.470  0.00  0.00    +0.000 N 
ATOM     11  C   UNL     1       1.341   8.314  18.383  0.00  0.00    +0.000 C 
ATOM     12  C   UNL     1       1.677   9.754  18.816  0.00  0.00    +0.000 C 
ATOM     13  C   UNL     1       0.940  10.040  20.087  0.00  0.00    +0.000 A 
ATOM     14  C   UNL     1       0.131  11.123  20.328  0.00  0.00    +0.000 A 
ATOM     15  N   UNL     1      -0.581  11.268  21.463  0.00  0.00    +0.000 NA
ATOM     16  C   UNL     1      -0.455  10.279  22.368  0.00  0.00    +0.000 A 
ATOM     17  N   UNL     1       0.315   9.191  22.255  0.00  0.00    +0.000 NA
ATOM     18  C   UNL     1       0.998   9.089  21.092  0.00  0.00    +0.000 A 
ATOM     19  C   UNL     1       1.838   7.861  20.815  0.00  0.00    +0.000 C 
ENDBRANCH   5  10
BRANCH   1  22
ATOM     20  C   UNL     1       6.707   4.944  15.319  0.00  0.00    +0.000 A 
ATOM     21  C   UNL     1       5.589   4.741  16.111  0.00  0.00    +0.000 A 
ATOM     22  C   UNL     1       5.396   5.528  17.257  0.00  0.00    +0.000 A 
ATOM     23  C   UNL     1       6.371   6.498  17.531  0.00  0.00    +0.000 A 
ATOM     24  C   UNL     1       7.457   6.630  16.678  0.00  0.00    +0.000 A 
ATOM     25  N   UNL     1       7.645   5.875  15.578  0.00  0.00    +0.000 NA
ENDBRANCH   1  22
TORSDOF 2
ENDMDL
MODEL 6
REMARK VINA RESULT:      -7.1      2.558      6.582
REMARK  Name = 
REMARK  2 active torsions:
REMARK  status: ('A' for Active; 'I' for Inactive)
REMARK    1  A    between atoms: C_3  and  C_4
REMARK    2  A    between atoms: C_8  and  N_9
REMARK                            x       y       z     vdW  Elec       q    Type
REMARK                         _______ _______ _______ _____ _____    ______ ____
ROOT
ATOM      1  C   UNL     1       7.015   7.226  17.182  0.00  0.00    +0.000 A 
ATOM      2  N   UNL     1       7.577   6.645  16.106  0.00  0.00    +0.000 NA
ATOM      3  C   UNL     1       6.926   5.579  15.646  0.00  0.00    +0.000 A 
ATOM      4  C   UNL     1       5.778   5.061  16.207  0.00  0.00    +0.000 A 
ATOM      5  C   UNL     1       5.269   5.701  17.314  0.00  0.00    +0.000 A 
ATOM      6  N   UNL     1       5.881   6.799  17.797  0.00  0.00    +0.000 NA
ATOM      7  C   UNL     1       5.340   3.830  15.491  0.00  0.00    +0.000 C 
ATOM      8  C   UNL     1       6.125   3.940  14.176  0.00  0.00    +0.000 C 
ATOM      9  C   UNL     1       7.397   4.735  14.500  0.00  0.00    +0.000 C 
ENDROOT
BRANCH   5  10
ATOM     10  N   UNL     1       4.149   5.175  17.971  0.00  0.00    +0.000 N 
ATOM     11  C   UNL     1       2.966   6.065  18.063  0.00  0.00    +0.000 C 
ATOM     12  C   UNL     1       2.461   6.255  19.506  0.00  0.00    +0.000 C 
ATOM     13  C   UNL     1       2.301   4.900  20.123  0.00  0.00    +0.000 A 
ATOM     14  C   UNL     1       1.179   4.427  20.758  0.00  0.00    +0.000 A 
ATOM     15  N   UNL     1       1.069   3.160  21.204  0.00  0.00    +0.000 NA
ATOM     16  C   UNL     1       2.137   2.367  20.994  0.00  0.00    +0.000 A 
ATOM     17  N   UNL     1       3.287   2.720  20.410  0.00  0.00    +0.000 NA
ATOM     18  C   UNL     1       3.339   3.997  19.970  0.00  0.00    +0.000 A 
ATOM     19  C   UNL     1       4.558   4.487  19.218  0.00  0.00    +0.000 C 
ENDBRANCH   5  10
BRANCH   1  22
ATOM     20  C   UNL     1       8.224  10.735  17.843  0.00  0.00    +0.000 A 
ATOM     21  C   UNL     1       7.532   9.677  17.277  0.00  0.00    +0.000 A 
ATOM     22  C   UNL     1       7.725   8.377  17.772  0.00  0.00    +0.000 A 
ATOM     23  C   UNL     1       8.624   8.231  18.837  0.00  0.00    +0.000 A 
ATOM     24  C   UNL     1       9.270   9.351  19.340  0.00  0.00    +0.000 A 
ATOM     25  N   UNL     1       9.089  10.599  18.866  0.00  0.00    +0.000 NA
ENDBRANCH   1  22
TORSDOF 2
ENDMDL
MODEL 7
REMARK VINA RESULT:      -7.0      1.488      2.130
REMARK  Name = 
REMARK  2 active torsions:
REMARK  status: ('A' for Active; 'I' for Inactive)
REMARK    1  A    between atoms: C_3  and  C_4
REMARK    2  A    between atoms: C_8  and  N_9
REMARK                            x       y       z     vdW  Elec       q    Type
REMARK                         _______ _______ _______ _____ _____    ______ ____
ROOT
ATOM      1  C   UNL     1       2.683   5.942  18.733  0.00  0.00    +0.000 A 
ATOM      2  N   UNL     1       2.058   4.953  19.399  0.00  0.00    +0.000 NA
ATOM      3  C   UNL     1       2.494   3.728  19.115  0.00  0.00    +0.000 A 
ATOM      4  C   UNL     1       3.487   3.444  18.202  0.00  0.00    +0.000 A 
ATOM      5  C   UNL     1       4.071   4.505  17.550  0.00  0.00    +0.000 A 
ATOM      6  N   UNL     1       3.679   5.764  17.826  0.00  0.00    +0.000 NA
ATOM      7  C   UNL     1       3.693   1.973  18.075  0.00  0.00    +0.000 C 
ATOM      8  C   UNL     1       3.001   1.452  19.342  0.00  0.00    +0.000 C 
ATOM      9  C   UNL     1       1.907   2.472  19.685  0.00  0.00    +0.000 C 
ENDROOT
BRANCH   5  10
ATOM     10  N   UNL     1       5.033   4.271  16.557  0.00  0.00    +0.000 N 
ATOM     11  C   UNL     1       6.397   4.785  16.832  0.00  0.00    +0.000 C 
ATOM     12  C   UNL     1       6.936   5.699  15.715  0.00  0.00    +0.000 C 
ATOM     13  C   UNL     1       6.765   4.986  14.410  0.00  0.00    +0.000 A 
ATOM     14  C   UNL     1       7.739   4.780  13.465  0.00  0.00    +0.000 A 
ATOM     15  N   UNL     1       7.539   4.043  12.355  0.00  0.00    +0.000 NA
ATOM     16  C   UNL     1       6.311   3.511  12.214  0.00  0.00    +0.000 A 
ATOM     17  N   UNL     1       5.279   3.660  13.052  0.00  0.00    +0.000 NA
ATOM     18  C   UNL     1       5.537   4.397  14.155  0.00  0.00    +0.000 A 
ATOM     19  C   UNL     1       4.471   4.566  15.217  0.00  0.00    +0.000 C 
ENDBRANCH   5  10
BRANCH   1  22
ATOM     20  C   UNL     1       1.271   9.011  20.404  0.00  0.00    +0.000 A 
ATOM     21  C   UNL     1       1.730   7.717  20.224  0.00  0.00    +0.000 A 
ATOM     22  C   UNL     1       2.201   7.317  18.963  0.00  0.00    +0.000 A 
ATOM     23  C   UNL     1       2.180   8.279  17.943  0.00  0.00    +0.000 A 
ATOM     24  C   UNL     1       1.703   9.552  18.220  0.00  0.00    +0.000 A 
ATOM     25  N   UNL     1       1.249   9.939  19.429  0.00  0.00    +0.000 NA
ENDBRANCH   1  22
TORSDOF 2
ENDMDL
MODEL 8
REMARK VINA RESULT:      -7.0      3.079      7.753
REMARK  Name = 
REMARK  2 active torsions:
REMARK  status: ('A' for Active; 'I' for Inactive)
REMARK    1  A    between atoms: C_3  and  C_4
REMARK    2  A    between atoms: C_8  and  N_9
REMARK                            x       y       z     vdW  Elec       q    Type
REMARK                         _______ _______ _______ _____ _____    ______ ____
ROOT
ATOM      1  C   UNL     1       6.310   4.501  15.191  0.00  0.00    +0.000 A 
ATOM      2  N   UNL     1       7.130   5.517  15.521  0.00  0.00    +0.000 NA
ATOM      3  C   UNL     1       7.133   5.833  16.813  0.00  0.00    +0.000 A 
ATOM      4  C   UNL     1       6.359   5.213  17.772  0.00  0.00    +0.000 A 
ATOM      5  C   UNL     1       5.535   4.191  17.357  0.00  0.00    +0.000 A 
ATOM      6  N   UNL     1       5.520   3.822  16.062  0.00  0.00    +0.000 NA
ATOM      7  C   UNL     1       6.551   5.844  19.107  0.00  0.00    +0.000 C 
ATOM      8  C   UNL     1       7.857   6.624  18.896  0.00  0.00    +0.000 C 
ATOM      9  C   UNL     1       7.916   6.967  17.401  0.00  0.00    +0.000 C 
ENDROOT
BRANCH   5  10
ATOM     10  N   UNL     1       4.670   3.577  18.273  0.00  0.00    +0.000 N 
ATOM     11  C   UNL     1       4.008   2.331  17.814  0.00  0.00    +0.000 C 
ATOM     12  C   UNL     1       2.474   2.378  17.940  0.00  0.00    +0.000 C 
ATOM     13  C   UNL     1       2.136   2.815  19.332  0.00  0.00    +0.000 A 
ATOM     14  C   UNL     1       1.280   2.178  20.196  0.00  0.00    +0.000 A 
ATOM     15  N   UNL     1       1.098   2.573  21.471  0.00  0.00    +0.000 NA
ATOM     16  C   UNL     1       1.809   3.647  21.863  0.00  0.00    +0.000 A 
ATOM     17  N   UNL     1       2.653   4.360  21.108  0.00  0.00    +0.000 NA
ATOM     18  C   UNL     1       2.808   3.913  19.842  0.00  0.00    +0.000 A 
ATOM     19  C   UNL     1       3.801   4.589  18.920  0.00  0.00    +0.000 C 
ENDBRANCH   5  10
BRANCH   1  22
ATOM     20  C   UNL     1       5.013   3.225  11.889  0.00  0.00    +0.000 A 
ATOM     21  C   UNL     1       5.060   3.560  13.233  0.00  0.00    +0.000 A 
ATOM     22  C   UNL     1       6.221   4.146  13.761  0.00  0.00    +0.000 A 
ATOM     23  C   UNL     1       7.283   4.365  12.872  0.00  0.00    +0.000 A 
ATOM     24  C   UNL     1       7.142   3.999  11.542  0.00  0.00    +0.000 A 
ATOM     25  N   UNL     1       6.030   3.434  11.032  0.00  0.00    +0.000 NA
ENDBRANCH   1  22
TORSDOF 2
ENDMDL
MODEL 9
REMARK VINA RESULT:      -6.9      0.932      1.518
REMARK  Name = 
REMARK  2 active torsions:
REMARK  status: ('A' for Active; 'I' for Inactive)
REMARK    1  A    between atoms: C_3  and  C_4
REMARK    2  A    between atoms: C_8  and  N_9
REMARK                            x       y       z     vdW  Elec       q    Type
REMARK                         _______ _______ _______ _____ _____    ______ ____
ROOT
ATOM      1  C   UNL     1       1.889   7.010  20.330  0.00  0.00    +0.000 A 
ATOM      2  N   UNL     1       1.576   6.017  21.183  0.00  0.00    +0.000 NA
ATOM      3  C   UNL     1       2.090   4.830  20.868  0.00  0.00    +0.000 A 
ATOM      4  C   UNL     1       2.867   4.585  19.755  0.00  0.00    +0.000 A 
ATOM      5  C   UNL     1       3.134   5.648  18.922  0.00  0.00    +0.000 A 
ATOM      6  N   UNL     1       2.656   6.872  19.217  0.00  0.00    +0.000 NA
ATOM      7  C   UNL     1       3.228   3.143  19.661  0.00  0.00    +0.000 C 
ATOM      8  C   UNL     1       2.932   2.655  21.086  0.00  0.00    +0.000 C 
ATOM      9  C   UNL     1       1.825   3.568  21.632  0.00  0.00    +0.000 C 
ENDROOT
BRANCH   5  10
ATOM     10  N   UNL     1       3.854   5.442  17.738  0.00  0.00    +0.000 N 
ATOM     11  C   UNL     1       3.392   4.326  16.876  0.00  0.00    +0.000 C 
ATOM     12  C   UNL     1       4.509   3.321  16.536  0.00  0.00    +0.000 C 
ATOM     13  C   UNL     1       5.685   4.090  16.022  0.00  0.00    +0.000 A 
ATOM     14  C   UNL     1       6.360   3.851  14.851  0.00  0.00    +0.000 A 
ATOM     15  N   UNL     1       7.351   4.646  14.401  0.00  0.00    +0.000 NA
ATOM     16  C   UNL     1       7.653   5.706  15.174  0.00  0.00    +0.000 A 
ATOM     17  N   UNL     1       7.083   6.028  16.340  0.00  0.00    +0.000 NA
ATOM     18  C   UNL     1       6.087   5.205  16.739  0.00  0.00    +0.000 A 
ATOM     19  C   UNL     1       5.311   5.515  18.001  0.00  0.00    +0.000 C 
ENDBRANCH   5  10
BRANCH   1  22
ATOM     20  C   UNL     1       0.616  10.527  19.858  0.00  0.00    +0.000 A 
ATOM     21  C   UNL     1       1.161   9.286  19.572  0.00  0.00    +0.000 A 
ATOM     22  C   UNL     1       1.298   8.336  20.597  0.00  0.00    +0.000 A 
ATOM     23  C   UNL     1       0.858   8.712  21.874  0.00  0.00    +0.000 A 
ATOM     24  C   UNL     1       0.323   9.977  22.063  0.00  0.00    +0.000 A 
ATOM     25  N   UNL     1       0.192  10.892  21.082  0.00  0.00    +0.000 NA
ENDBRANCH   1  22
TORSDOF 2
ENDMDL
