MODEL 1
REMARK VINA RESULT:      -9.3      0.000      0.000
REMARK  Name = 
REMARK  5 active torsions:
REMARK  status: ('A' for Active; 'I' for Inactive)
REMARK    1  A    between atoms: C_1  and  N_2
REMARK    2  A    between atoms: C_9  and  N_10
REMARK    3  A    between atoms: N_10  and  C_11
REMARK    4  A    between atoms: C_18  and  S_19
REMARK    5  A    between atoms: S_19  and  C_20
REMARK                            x       y       z     vdW  Elec       q    Type
REMARK                         _______ _______ _______ _____ _____    ______ ____
ROOT
ATOM      1  N   UNL     1       2.607   6.744  20.394  0.00  0.00    +0.000 N 
ATOM      2  H   UNL     1       3.072   6.650  21.290  0.00  0.00    +0.000 HD
ENDROOT
BRANCH   1  11
ATOM      3  C   UNL     1      -1.090  11.931  18.915  0.00  0.00    +0.000 C 
ATOM      4  N   UNL     1      -0.757  11.309  20.188  0.00  0.00    +0.000 N 
ATOM      5  C   UNL     1      -1.224  11.903  21.358  0.00  0.00    +0.000 C 
ATOM      6  O   UNL     1      -1.911  12.925  21.376  0.00  0.00    +0.000 OA
ATOM      7  C   UNL     1      -0.744  11.297  22.659  0.00  0.00    +0.000 C 
ATOM      8  C   UNL     1      -0.665   9.789  22.572  0.00  0.00    +0.000 C 
ATOM      9  C   UNL     1       0.177   9.399  21.394  0.00  0.00    +0.000 A 
ATOM     10  C   UNL     1       1.004   8.259  21.449  0.00  0.00    +0.000 A 
ATOM     11  C   UNL     1       1.705   7.829  20.319  0.00  0.00    +0.000 A 
ATOM     12  C   UNL     1       1.574   8.578  19.143  0.00  0.00    +0.000 A 
ATOM     13  C   UNL     1       0.750   9.703  19.077  0.00  0.00    +0.000 A 
ATOM     14  C   UNL     1       0.057  10.138  20.206  0.00  0.00    +0.000 A 
ENDBRANCH   1  11
BRANCH   1  15
ATOM     15  C   UNL     1       2.390   5.468  19.814  0.00  0.00    +0.000 A 
ATOM     16  N   UNL     1       1.273   4.802  20.165  0.00  0.00    +0.000 NA
ATOM     17  C   UNL     1       1.044   3.639  19.555  0.00  0.00    +0.000 A 
ATOM     18  N   UNL     1       1.811   3.084  18.615  0.00  0.00    +0.000 NA
ATOM     19  C   UNL     1       2.922   3.744  18.279  0.00  0.00    +0.000 A 
ATOM     20  C   UNL     1       3.720   3.207  17.277  0.00  0.00    +0.000 A 
ATOM     21  C   UNL     1       4.899   3.827  16.858  0.00  0.00    +0.000 A 
ATOM     22  C   UNL     1       5.288   5.020  17.458  0.00  0.00    +0.000 A 
ATOM     23  C   UNL     1       4.509   5.587  18.466  0.00  0.00    +0.000 A 
ATOM     24  C   UNL     1       3.304   4.956  18.875  0.00  0.00    +0.000 A 
BRANCH  22  25
ATOM     25  S   UNL     1       6.824   5.779  16.986  0.00  0.00    +0.000 S 
ATOM     26  C   UNL     1       7.635   6.089  18.533  0.00  0.00    +0.000 C 
ATOM     27  O   UNL     1       7.588   4.781  16.265  0.00  0.00    +0.000 OA
ATOM     28  O   UNL     1       6.507   7.057  16.378  0.00  0.00    +0.000 OA
ENDBRANCH  22  25
ENDBRANCH   1  15
TORSDOF 3
ENDMDL
MODEL 2
REMARK VINA RESULT:      -9.3      0.948      1.061
REMARK  Name = 
REMARK  5 active torsions:
REMARK  status: ('A' for Active; 'I' for Inactive)
REMARK    1  A    between atoms: C_1  and  N_2
REMARK    2  A    between atoms: C_9  and  N_10
REMARK    3  A    between atoms: N_10  and  C_11
REMARK    4  A    between atoms: C_18  and  S_19
REMARK    5  A    between atoms: S_19  and  C_20
REMARK                            x       y       z     vdW  Elec       q    Type
REMARK                         _______ _______ _______ _____ _____    ______ ____
ROOT
ATOM      1  N   UNL     1       2.494   7.003  20.438  0.00  0.00    +0.000 N 
ATOM      2  H   UNL     1       3.087   7.005  21.260  0.00  0.00    +0.000 HD
ENDROOT
BRANCH   1  11
ATOM      3  C   UNL     1      -1.411  12.071  19.081  0.00  0.00    +0.000 C 
ATOM      4  N   UNL     1      -1.000  11.474  20.344  0.00  0.00    +0.000 N 
ATOM      5  C   UNL     1      -1.426  12.069  21.529  0.00  0.00    +0.000 C 
ATOM      6  O   UNL     1      -2.140  13.073  21.568  0.00  0.00    +0.000 OA
ATOM      7  C   UNL     1      -0.868  11.493  22.812  0.00  0.00    +0.000 C 
ATOM      8  C   UNL     1      -0.753   9.986  22.737  0.00  0.00    +0.000 C 
ATOM      9  C   UNL     1       0.043   9.604  21.524  0.00  0.00    +0.000 A 
ATOM     10  C   UNL     1       0.902   8.487  21.552  0.00  0.00    +0.000 A 
ATOM     11  C   UNL     1       1.560   8.063  20.394  0.00  0.00    +0.000 A 
ATOM     12  C   UNL     1       1.352   8.793  19.218  0.00  0.00    +0.000 A 
ATOM     13  C   UNL     1       0.495   9.895  19.180  0.00  0.00    +0.000 A 
ATOM     14  C   UNL     1      -0.154  10.325  20.336  0.00  0.00    +0.000 A 
ENDBRANCH   1  11
BRANCH   1  15
ATOM     15  C   UNL     1       2.231   5.674  20.020  0.00  0.00    +0.000 A 
ATOM     16  N   UNL     1       1.260   4.996  20.661  0.00  0.00    +0.000 NA
ATOM     17  C   UNL     1       0.973   3.775  20.209  0.00  0.00    +0.000 A 
ATOM     18  N   UNL     1       1.546   3.173  19.166  0.00  0.00    +0.000 NA
ATOM     19  C   UNL     1       2.515   3.845  18.540  0.00  0.00    +0.000 A 
ATOM     20  C   UNL     1       3.104   3.256  17.429  0.00  0.00    +0.000 A 
ATOM     21  C   UNL     1       4.122   3.885  16.711  0.00  0.00    +0.000 A 
ATOM     22  C   UNL     1       4.563   5.141  17.116  0.00  0.00    +0.000 A 
ATOM     23  C   UNL     1       3.991   5.762  18.227  0.00  0.00    +0.000 A 
ATOM     24  C   UNL     1       2.945   5.120  18.942  0.00  0.00    +0.000 A 
BRANCH  22  25
ATOM     25  S   UNL     1       5.909   5.919  16.256  0.00  0.00    +0.000 S 
ATOM     26  C   UNL     1       6.725   4.570  15.443  0.00  0.00    +0.000 C 
ATOM     27  O   UNL     1       5.328   6.776  15.242  0.00  0.00    +0.000 OA
ATOM     28  O   UNL     1       6.811   6.456  17.257  0.00  0.00    +0.000 OA
ENDBRANCH  22  25
ENDBRANCH   1  15
TORSDOF 3
ENDMDL
MODEL 3
REMARK VINA RESULT:      -8.8      1.095      1.250
REMARK  Name = 
REMARK  5 active torsions:
REMARK  status: ('A' for Active; 'I' for Inactive)
REMARK    1  A    between atoms: C_1  and  N_2
REMARK    2  A    between atoms: C_9  and  N_10
REMARK    3  A    between atoms: N_10  and  C_11
REMARK    4  A    between atoms: C_18  and  S_19
REMARK    5  A    between atoms: S_19  and  C_20
REMARK                            x       y       z     vdW  Elec       q    Type
REMARK                         _______ _______ _______ _____ _____    ______ ____
ROOT
ATOM      1  N   UNL     1       2.763   6.565  20.164  0.00  0.00    +0.000 N 
ATOM      2  H   UNL     1       3.476   6.643  20.881  0.00  0.00    +0.000 HD
ENDROOT
BRANCH   1  11
ATOM      3  C   UNL     1      -0.792  11.864  18.733  0.00  0.00    +0.000 C 
ATOM      4  N   UNL     1      -0.504  11.202  19.997  0.00  0.00    +0.000 N 
ATOM      5  C   UNL     1      -0.989  11.773  21.171  0.00  0.00    +0.000 C 
ATOM      6  O   UNL     1      -1.656  12.809  21.199  0.00  0.00    +0.000 OA
ATOM      7  C   UNL     1      -0.555  11.123  22.467  0.00  0.00    +0.000 C 
ATOM      8  C   UNL     1      -0.504   9.617  22.341  0.00  0.00    +0.000 C 
ATOM      9  C   UNL     1       0.361   9.241  21.174  0.00  0.00    +0.000 A 
ATOM     10  C   UNL     1       1.164   8.083  21.219  0.00  0.00    +0.000 A 
ATOM     11  C   UNL     1       1.885   7.670  20.096  0.00  0.00    +0.000 A 
ATOM     12  C   UNL     1       1.799   8.452  18.938  0.00  0.00    +0.000 A 
ATOM     13  C   UNL     1       1.000   9.595  18.882  0.00  0.00    +0.000 A 
ATOM     14  C   UNL     1       0.286  10.014  20.004  0.00  0.00    +0.000 A 
ENDBRANCH   1  11
BRANCH   1  15
ATOM     15  C   UNL     1       2.376   5.211  19.999  0.00  0.00    +0.000 A 
ATOM     16  N   UNL     1       1.356   4.754  20.751  0.00  0.00    +0.000 NA
ATOM     17  C   UNL     1       0.954   3.503  20.531  0.00  0.00    +0.000 A 
ATOM     18  N   UNL     1       1.457   2.668  19.620  0.00  0.00    +0.000 NA
ATOM     19  C   UNL     1       2.474   3.122  18.885  0.00  0.00    +0.000 A 
ATOM     20  C   UNL     1       2.993   2.286  17.904  0.00  0.00    +0.000 A 
ATOM     21  C   UNL     1       4.055   2.676  17.086  0.00  0.00    +0.000 A 
ATOM     22  C   UNL     1       4.612   3.940  17.254  0.00  0.00    +0.000 A 
ATOM     23  C   UNL     1       4.113   4.805  18.228  0.00  0.00    +0.000 A 
ATOM     24  C   UNL     1       3.023   4.404  19.045  0.00  0.00    +0.000 A 
BRANCH  22  25
ATOM     25  S   UNL     1       6.012   4.419  16.270  0.00  0.00    +0.000 S 
ATOM     26  C   UNL     1       5.601   6.054  15.720  0.00  0.00    +0.000 C 
ATOM     27  O   UNL     1       7.149   4.512  17.164  0.00  0.00    +0.000 OA
ATOM     28  O   UNL     1       6.046   3.547  15.111  0.00  0.00    +0.000 OA
ENDBRANCH  22  25
ENDBRANCH   1  15
TORSDOF 3
ENDMDL
MODEL 4
REMARK VINA RESULT:      -8.8      0.740      1.824
REMARK  Name = 
REMARK  5 active torsions:
REMARK  status: ('A' for Active; 'I' for Inactive)
REMARK    1  A    between atoms: C_1  and  N_2
REMARK    2  A    between atoms: C_9  and  N_10
REMARK    3  A    between atoms: N_10  and  C_11
REMARK    4  A    between atoms: C_18  and  S_19
REMARK    5  A    between atoms: S_19  and  C_20
REMARK                            x       y       z     vdW  Elec       q    Type
REMARK                         _______ _______ _______ _____ _____    ______ ____
ROOT
ATOM      1  N   UNL     1       2.692   6.299  20.430  0.00  0.00    +0.000 N 
ATOM      2  H   UNL     1       3.014   6.002  21.345  0.00  0.00    +0.000 HD
ENDROOT
BRANCH   1  11
ATOM      3  C   UNL     1      -1.025  11.532  21.682  0.00  0.00    +0.000 C 
ATOM      4  N   UNL     1      -0.673  10.868  20.435  0.00  0.00    +0.000 N 
ATOM      5  C   UNL     1      -1.239  11.337  19.252  0.00  0.00    +0.000 C 
ATOM      6  O   UNL     1      -2.019  12.290  19.201  0.00  0.00    +0.000 OA
ATOM      7  C   UNL     1      -0.948  10.536  18.002  0.00  0.00    +0.000 C 
ATOM      8  C   UNL     1       0.476  10.023  17.992  0.00  0.00    +0.000 C 
ATOM      9  C   UNL     1       0.742   9.261  19.256  0.00  0.00    +0.000 A 
ATOM     10  C   UNL     1       1.586   8.132  19.249  0.00  0.00    +0.000 A 
ATOM     11  C   UNL     1       1.925   7.486  20.442  0.00  0.00    +0.000 A 
ATOM     12  C   UNL     1       1.384   7.984  21.633  0.00  0.00    +0.000 A 
ATOM     13  C   UNL     1       0.554   9.107  21.650  0.00  0.00    +0.000 A 
ATOM     14  C   UNL     1       0.208   9.747  20.461  0.00  0.00    +0.000 A 
ENDBRANCH   1  11
BRANCH   1  15
ATOM     15  C   UNL     1       2.431   5.174  19.609  0.00  0.00    +0.000 A 
ATOM     16  N   UNL     1       1.243   4.555  19.752  0.00  0.00    +0.000 NA
ATOM     17  C   UNL     1       0.981   3.546  18.922  0.00  0.00    +0.000 A 
ATOM     18  N   UNL     1       1.780   3.106  17.948  0.00  0.00    +0.000 NA
ATOM     19  C   UNL     1       2.960   3.716  17.818  0.00  0.00    +0.000 A 
ATOM     20  C   UNL     1       3.796   3.302  16.789  0.00  0.00    +0.000 A 
ATOM     21  C   UNL     1       5.047   3.882  16.574  0.00  0.00    +0.000 A 
ATOM     22  C   UNL     1       5.473   4.908  17.411  0.00  0.00    +0.000 A 
ATOM     23  C   UNL     1       4.656   5.349  18.453  0.00  0.00    +0.000 A 
ATOM     24  C   UNL     1       3.379   4.762  18.655  0.00  0.00    +0.000 A 
BRANCH  22  25
ATOM     25  S   UNL     1       7.094   5.603  17.194  0.00  0.00    +0.000 S 
ATOM     26  C   UNL     1       7.645   5.912  18.851  0.00  0.00    +0.000 C 
ATOM     27  O   UNL     1       7.929   4.565  16.623  0.00  0.00    +0.000 OA
ATOM     28  O   UNL     1       6.932   6.880  16.525  0.00  0.00    +0.000 OA
ENDBRANCH  22  25
ENDBRANCH   1  15
TORSDOF 3
ENDMDL
MODEL 5
REMARK VINA RESULT:      -8.7      0.953      2.084
REMARK  Name = 
REMARK  5 active torsions:
REMARK  status: ('A' for Active; 'I' for Inactive)
REMARK    1  A    between atoms: C_1  and  N_2
REMARK    2  A    between atoms: C_9  and  N_10
REMARK    3  A    between atoms: N_10  and  C_11
REMARK    4  A    between atoms: C_18  and  S_19
REMARK    5  A    between atoms: S_19  and  C_20
REMARK                            x       y       z     vdW  Elec       q    Type
REMARK                         _______ _______ _______ _____ _____    ______ ____
ROOT
ATOM      1  N   UNL     1       2.679   6.697  20.462  0.00  0.00    +0.000 N 
ATOM      2  H   UNL     1       3.216   6.583  21.314  0.00  0.00    +0.000 HD
ENDROOT
BRANCH   1  11
ATOM      3  C   UNL     1      -1.274  11.775  21.626  0.00  0.00    +0.000 C 
ATOM      4  N   UNL     1      -0.949  11.059  20.401  0.00  0.00    +0.000 N 
ATOM      5  C   UNL     1      -1.604  11.424  19.226  0.00  0.00    +0.000 C 
ATOM      6  O   UNL     1      -2.441  12.326  19.166  0.00  0.00    +0.000 OA
ATOM      7  C   UNL     1      -1.332  10.568  18.009  0.00  0.00    +0.000 C 
ATOM      8  C   UNL     1       0.117  10.138  17.948  0.00  0.00    +0.000 C 
ATOM      9  C   UNL     1       0.495   9.468  19.236  0.00  0.00    +0.000 A 
ATOM     10  C   UNL     1       1.404   8.390  19.245  0.00  0.00    +0.000 A 
ATOM     11  C   UNL     1       1.843   7.836  20.450  0.00  0.00    +0.000 A 
ATOM     12  C   UNL     1       1.337   8.372  21.640  0.00  0.00    +0.000 A 
ATOM     13  C   UNL     1       0.443   9.445  21.641  0.00  0.00    +0.000 A 
ATOM     14  C   UNL     1      -0.002   9.993  20.439  0.00  0.00    +0.000 A 
ENDBRANCH   1  11
BRANCH   1  15
ATOM     15  C   UNL     1       2.330   5.431  19.925  0.00  0.00    +0.000 A 
ATOM     16  N   UNL     1       1.237   4.820  20.420  0.00  0.00    +0.000 NA
ATOM     17  C   UNL     1       0.879   3.667  19.854  0.00  0.00    +0.000 A 
ATOM     18  N   UNL     1       1.493   3.075  18.828  0.00  0.00    +0.000 NA
ATOM     19  C   UNL     1       2.582   3.680  18.349  0.00  0.00    +0.000 A 
ATOM     20  C   UNL     1       3.221   3.104  17.258  0.00  0.00    +0.000 A 
ATOM     21  C   UNL     1       4.364   3.666  16.688  0.00  0.00    +0.000 A 
ATOM     22  C   UNL     1       4.882   4.841  17.225  0.00  0.00    +0.000 A 
ATOM     23  C   UNL     1       4.264   5.447  18.319  0.00  0.00    +0.000 A 
ATOM     24  C   UNL     1       3.093   4.875  18.882  0.00  0.00    +0.000 A 
BRANCH  22  25
ATOM     25  S   UNL     1       6.379   5.525  16.556  0.00  0.00    +0.000 S 
ATOM     26  C   UNL     1       6.310   5.092  14.837  0.00  0.00    +0.000 C 
ATOM     27  O   UNL     1       6.274   6.967  16.666  0.00  0.00    +0.000 OA
ATOM     28  O   UNL     1       7.490   4.812  17.158  0.00  0.00    +0.000 OA
ENDBRANCH  22  25
ENDBRANCH   1  15
TORSDOF 3
ENDMDL
MODEL 6
REMARK VINA RESULT:      -8.5      1.882      2.897
REMARK  Name = 
REMARK  5 active torsions:
REMARK  status: ('A' for Active; 'I' for Inactive)
REMARK    1  A    between atoms: C_1  and  N_2
REMARK    2  A    between atoms: C_9  and  N_10
REMARK    3  A    between atoms: N_10  and  C_11
REMARK    4  A    between atoms: C_18  and  S_19
REMARK    5  A    between atoms: S_19  and  C_20
REMARK                            x       y       z     vdW  Elec       q    Type
REMARK                         _______ _______ _______ _____ _____    ______ ____
ROOT
ATOM      1  N   UNL     1       2.329   8.527  18.631  0.00  0.00    +0.000 N 
ATOM      2  H   UNL     1       3.216   9.015  18.684  0.00  0.00    +0.000 HD
ENDROOT
BRANCH   1  11
ATOM      3  C   UNL     1      -2.458  12.735  20.097  0.00  0.00    +0.000 C 
ATOM      4  N   UNL     1      -2.377  11.660  19.118  0.00  0.00    +0.000 N 
ATOM      5  C   UNL     1      -3.506  11.373  18.354  0.00  0.00    +0.000 C 
ATOM      6  O   UNL     1      -4.571  11.984  18.457  0.00  0.00    +0.000 OA
ATOM      7  C   UNL     1      -3.416  10.166  17.446  0.00  0.00    +0.000 C 
ATOM      8  C   UNL     1      -2.045  10.047  16.818  0.00  0.00    +0.000 C 
ATOM      9  C   UNL     1      -0.999  10.054  17.894  0.00  0.00    +0.000 A 
ATOM     10  C   UNL     1       0.171   9.281  17.762  0.00  0.00    +0.000 A 
ATOM     11  C   UNL     1       1.197   9.370  18.708  0.00  0.00    +0.000 A 
ATOM     12  C   UNL     1       1.013  10.233  19.794  0.00  0.00    +0.000 A 
ATOM     13  C   UNL     1      -0.140  11.010  19.927  0.00  0.00    +0.000 A 
ATOM     14  C   UNL     1      -1.167  10.916  18.989  0.00  0.00    +0.000 A 
ENDBRANCH   1  11
BRANCH   1  15
ATOM     15  C   UNL     1       2.430   7.250  19.239  0.00  0.00    +0.000 A 
ATOM     16  N   UNL     1       1.653   7.002  20.311  0.00  0.00    +0.000 NA
ATOM     17  C   UNL     1       1.704   5.774  20.826  0.00  0.00    +0.000 A 
ATOM     18  N   UNL     1       2.439   4.761  20.363  0.00  0.00    +0.000 NA
ATOM     19  C   UNL     1       3.215   5.015  19.306  0.00  0.00    +0.000 A 
ATOM     20  C   UNL     1       3.963   3.969  18.781  0.00  0.00    +0.000 A 
ATOM     21  C   UNL     1       4.800   4.140  17.677  0.00  0.00    +0.000 A 
ATOM     22  C   UNL     1       4.889   5.393  17.080  0.00  0.00    +0.000 A 
ATOM     23  C   UNL     1       4.149   6.465  17.581  0.00  0.00    +0.000 A 
ATOM     24  C   UNL     1       3.290   6.278  18.696  0.00  0.00    +0.000 A 
BRANCH  22  25
ATOM     25  S   UNL     1       6.008   5.641  15.722  0.00  0.00    +0.000 S 
ATOM     26  C   UNL     1       6.070   4.054  14.932  0.00  0.00    +0.000 C 
ATOM     27  O   UNL     1       5.373   6.576  14.814  0.00  0.00    +0.000 OA
ATOM     28  O   UNL     1       7.316   5.919  16.282  0.00  0.00    +0.000 OA
ENDBRANCH  22  25
ENDBRANCH   1  15
TORSDOF 3
ENDMDL
MODEL 7
REMARK VINA RESULT:      -8.1      1.139      2.129
REMARK  Name = 
REMARK  5 active torsions:
REMARK  status: ('A' for Active; 'I' for Inactive)
REMARK    1  A    between atoms: C_1  and  N_2
REMARK    2  A    between atoms: C_9  and  N_10
REMARK    3  A    between atoms: N_10  and  C_11
REMARK    4  A    between atoms: C_18  and  S_19
REMARK    5  A    between atoms: S_19  and  C_20
REMARK                            x       y       z     vdW  Elec       q    Type
REMARK                         _______ _______ _______ _____ _____    ______ ____
ROOT
ATOM      1  N   UNL     1       2.513   7.474  19.119  0.00  0.00    +0.000 N 
ATOM      2  H   UNL     1       3.485   7.745  19.022  0.00  0.00    +0.000 HD
ENDROOT
BRANCH   1  11
ATOM      3  C   UNL     1      -1.167  11.161  23.072  0.00  0.00    +0.000 C 
ATOM      4  N   UNL     1      -1.015  11.145  21.624  0.00  0.00    +0.000 N 
ATOM      5  C   UNL     1      -1.808  12.001  20.864  0.00  0.00    +0.000 C 
ATOM      6  O   UNL     1      -2.630  12.780  21.351  0.00  0.00    +0.000 OA
ATOM      7  C   UNL     1      -1.710  11.856  19.361  0.00  0.00    +0.000 C 
ATOM      8  C   UNL     1      -0.289  11.577  18.924  0.00  0.00    +0.000 C 
ATOM      9  C   UNL     1       0.240  10.386  19.668  0.00  0.00    +0.000 A 
ATOM     10  C   UNL     1       1.123   9.483  19.042  0.00  0.00    +0.000 A 
ATOM     11  C   UNL     1       1.703   8.436  19.763  0.00  0.00    +0.000 A 
ATOM     12  C   UNL     1       1.363   8.304  21.115  0.00  0.00    +0.000 A 
ATOM     13  C   UNL     1       0.496   9.200  21.744  0.00  0.00    +0.000 A 
ATOM     14  C   UNL     1      -0.090  10.240  21.025  0.00  0.00    +0.000 A 
ENDBRANCH   1  11
BRANCH   1  15
ATOM     15  C   UNL     1       2.407   6.072  19.303  0.00  0.00    +0.000 A 
ATOM     16  N   UNL     1       1.498   5.623  20.191  0.00  0.00    +0.000 NA
ATOM     17  C   UNL     1       1.357   4.302  20.299  0.00  0.00    +0.000 A 
ATOM     18  N   UNL     1       2.020   3.384  19.593  0.00  0.00    +0.000 NA
ATOM     19  C   UNL     1       2.927   3.835  18.723  0.00  0.00    +0.000 A 
ATOM     20  C   UNL     1       3.606   2.902  17.949  0.00  0.00    +0.000 A 
ATOM     21  C   UNL     1       4.569   3.279  17.012  0.00  0.00    +0.000 A 
ATOM     22  C   UNL     1       4.860   4.629  16.843  0.00  0.00    +0.000 A 
ATOM     23  C   UNL     1       4.195   5.591  17.602  0.00  0.00    +0.000 A 
ATOM     24  C   UNL     1       3.206   5.199  18.543  0.00  0.00    +0.000 A 
BRANCH  22  25
ATOM     25  S   UNL     1       6.137   5.116  15.707  0.00  0.00    +0.000 S 
ATOM     26  C   UNL     1       5.979   3.958  14.373  0.00  0.00    +0.000 C 
ATOM     27  O   UNL     1       5.785   6.432  15.211  0.00  0.00    +0.000 OA
ATOM     28  O   UNL     1       7.411   4.883  16.361  0.00  0.00    +0.000 OA
ENDBRANCH  22  25
ENDBRANCH   1  15
TORSDOF 3
ENDMDL
MODEL 8
REMARK VINA RESULT:      -8.1      1.147      1.973
REMARK  Name = 
REMARK  5 active torsions:
REMARK  status: ('A' for Active; 'I' for Inactive)
REMARK    1  A    between atoms: C_1  and  N_2
REMARK    2  A    between atoms: C_9  and  N_10
REMARK    3  A    between atoms: N_10  and  C_11
REMARK    4  A    between atoms: C_18  and  S_19
REMARK    5  A    between atoms: S_19  and  C_20
REMARK                            x       y       z     vdW  Elec       q    Type
REMARK                         _______ _______ _______ _____ _____    ______ ____
ROOT
ATOM      1  N   UNL     1       2.296   7.644  19.095  0.00  0.00    +0.000 N 
ATOM      2  H   UNL     1       3.147   7.994  18.670  0.00  0.00    +0.000 HD
ENDROOT
BRANCH   1  11
ATOM      3  C   UNL     1      -1.269  11.515  22.977  0.00  0.00    +0.000 C 
ATOM      4  N   UNL     1      -1.154  11.435  21.528  0.00  0.00    +0.000 N 
ATOM      5  C   UNL     1      -1.964  12.261  20.752  0.00  0.00    +0.000 C 
ATOM      6  O   UNL     1      -2.771  13.064  21.226  0.00  0.00    +0.000 OA
ATOM      7  C   UNL     1      -1.905  12.050  19.255  0.00  0.00    +0.000 C 
ATOM      8  C   UNL     1      -0.497  11.747  18.794  0.00  0.00    +0.000 C 
ATOM      9  C   UNL     1       0.047  10.587  19.575  0.00  0.00    +0.000 A 
ATOM     10  C   UNL     1       0.910   9.654  18.967  0.00  0.00    +0.000 A 
ATOM     11  C   UNL     1       1.506   8.637  19.717  0.00  0.00    +0.000 A 
ATOM     12  C   UNL     1       1.201   8.565  21.082  0.00  0.00    +0.000 A 
ATOM     13  C   UNL     1       0.354   9.491  21.694  0.00  0.00    +0.000 A 
ATOM     14  C   UNL     1      -0.248  10.501  20.945  0.00  0.00    +0.000 A 
ENDBRANCH   1  11
BRANCH   1  15
ATOM     15  C   UNL     1       2.499   6.335  19.602  0.00  0.00    +0.000 A 
ATOM     16  N   UNL     1       1.609   5.864  20.496  0.00  0.00    +0.000 NA
ATOM     17  C   UNL     1       1.770   4.606  20.907  0.00  0.00    +0.000 A 
ATOM     18  N   UNL     1       2.721   3.765  20.497  0.00  0.00    +0.000 NA
ATOM     19  C   UNL     1       3.606   4.241  19.618  0.00  0.00    +0.000 A 
ATOM     20  C   UNL     1       4.585   3.375  19.147  0.00  0.00    +0.000 A 
ATOM     21  C   UNL     1       5.551   3.782  18.226  0.00  0.00    +0.000 A 
ATOM     22  C   UNL     1       5.536   5.093  17.761  0.00  0.00    +0.000 A 
ATOM     23  C   UNL     1       4.565   5.988  18.213  0.00  0.00    +0.000 A 
ATOM     24  C   UNL     1       3.578   5.560  19.139  0.00  0.00    +0.000 A 
BRANCH  22  25
ATOM     25  S   UNL     1       6.805   5.644  16.646  0.00  0.00    +0.000 S 
ATOM     26  C   UNL     1       7.481   7.074  17.449  0.00  0.00    +0.000 C 
ATOM     27  O   UNL     1       7.825   4.614  16.620  0.00  0.00    +0.000 OA
ATOM     28  O   UNL     1       6.152   6.077  15.425  0.00  0.00    +0.000 OA
ENDBRANCH  22  25
ENDBRANCH   1  15
TORSDOF 3
ENDMDL
