MODEL 1
REMARK VINA RESULT:      -7.3      0.000      0.000
REMARK  Name = 
REMARK  1 active torsions:
REMARK  status: ('A' for Active; 'I' for Inactive)
REMARK    1  A    between atoms: C_7  and  C_8
REMARK                            x       y       z     vdW  Elec       q    Type
REMARK                         _______ _______ _______ _____ _____    ______ ____
ROOT
ATOM      1  C   UNL     1      -1.967  10.815  18.265  0.00  0.00    +0.000 A 
ATOM      2  N   UNL     1      -1.978  10.035  17.193  0.00  0.00    +0.000 NA
ATOM      3  N   UNL     1      -3.260   9.984  16.698  0.00  0.00    +0.000 NA
ATOM      4  C   UNL     1      -4.008  10.750  17.458  0.00  0.00    +0.000 A 
ATOM      5  C   UNL     1      -5.376  11.054  17.435  0.00  0.00    +0.000 A 
ATOM      6  C   UNL     1      -5.870  11.890  18.357  0.00  0.00    +0.000 A 
ATOM      7  C   UNL     1      -4.944  12.495  19.377  0.00  0.00    +0.000 A 
ATOM      8  N   UNL     1      -5.459  13.346  20.335  0.00  0.00    +0.000 N 
ATOM      9  C   UNL     1      -6.815  13.331  20.846  0.00  0.00    +0.000 C 
ATOM     10  C   UNL     1      -6.672  13.704  22.320  0.00  0.00    +0.000 C 
ATOM     11  C   UNL     1      -5.303  14.404  22.448  0.00  0.00    +0.000 C 
ATOM     12  C   UNL     1      -4.352  13.699  23.463  0.00  0.00    +0.000 C 
ATOM     13  N   UNL     1      -4.214  14.549  24.656  0.00  0.00    +0.000 N 
ATOM     14  C   UNL     1      -4.710  15.805  24.261  0.00  0.00    +0.000 A 
ATOM     15  C   UNL     1      -4.665  16.957  25.029  0.00  0.00    +0.000 A 
ATOM     16  C   UNL     1      -5.347  18.090  24.580  0.00  0.00    +0.000 A 
ATOM     17  C   UNL     1      -6.077  18.051  23.384  0.00  0.00    +0.000 A 
ATOM     18  C   UNL     1      -6.109  16.888  22.610  0.00  0.00    +0.000 A 
ATOM     19  C   UNL     1      -5.412  15.773  23.058  0.00  0.00    +0.000 A 
ATOM     20  C   UNL     1      -4.694  14.375  21.034  0.00  0.00    +0.000 C 
ATOM     21  N   UNL     1      -3.660  12.233  19.393  0.00  0.00    +0.000 NA
ATOM     22  N   UNL     1      -3.239  11.338  18.442  0.00  0.00    +0.000 N 
ATOM     23  H   UNL     1      -3.278  14.609  25.049  0.00  0.00    +0.000 HD
ENDROOT
BRANCH   1  30
ATOM     24 CL   UNL     1       1.194   9.371  22.134  0.00  0.00    +0.000 Cl
ATOM     25  C   UNL     1       0.732  10.469  20.891  0.00  0.00    +0.000 A 
ATOM     26  C   UNL     1       1.480  11.620  20.672  0.00  0.00    +0.000 A 
ATOM     27  C   UNL     1       1.099  12.493  19.657  0.00  0.00    +0.000 A 
ATOM     28 CL   UNL     1       2.019  13.919  19.371  0.00  0.00    +0.000 Cl
ATOM     29  C   UNL     1      -0.024  12.224  18.873  0.00  0.00    +0.000 A 
ATOM     30  C   UNL     1      -0.797  11.076  19.105  0.00  0.00    +0.000 A 
ATOM     31  C   UNL     1      -0.395  10.192  20.115  0.00  0.00    +0.000 A 
ENDBRANCH   1  30
TORSDOF 1
ENDMDL
MODEL 2
REMARK VINA RESULT:      -7.3      0.492      1.715
REMARK  Name = 
REMARK  1 active torsions:
REMARK  status: ('A' for Active; 'I' for Inactive)
REMARK    1  A    between atoms: C_7  and  C_8
REMARK                            x       y       z     vdW  Elec       q    Type
REMARK                         _______ _______ _______ _____ _____    ______ ____
ROOT
ATOM      1  C   UNL     1      -2.351  11.105  18.264  0.00  0.00    +0.000 A 
ATOM      2  N   UNL     1      -2.447  10.307  17.209  0.00  0.00    +0.000 NA
ATOM      3  N   UNL     1      -3.773  10.182  16.871  0.00  0.00    +0.000 NA
ATOM      4  C   UNL     1      -4.467  10.921  17.706  0.00  0.00    +0.000 A 
ATOM      5  C   UNL     1      -5.842  11.153  17.842  0.00  0.00    +0.000 A 
ATOM      6  C   UNL     1      -6.267  11.976  18.808  0.00  0.00    +0.000 A 
ATOM      7  C   UNL     1      -5.261  12.645  19.705  0.00  0.00    +0.000 A 
ATOM      8  N   UNL     1      -5.705  13.484  20.708  0.00  0.00    +0.000 N 
ATOM      9  C   UNL     1      -6.989  13.407  21.377  0.00  0.00    +0.000 C 
ATOM     10  C   UNL     1      -6.693  13.811  22.820  0.00  0.00    +0.000 C 
ATOM     11  C   UNL     1      -5.358  14.583  22.778  0.00  0.00    +0.000 C 
ATOM     12  C   UNL     1      -4.258  13.945  23.680  0.00  0.00    +0.000 C 
ATOM     13  N   UNL     1      -4.025  14.820  24.839  0.00  0.00    +0.000 N 
ATOM     14  C   UNL     1      -4.631  16.042  24.493  0.00  0.00    +0.000 A 
ATOM     15  C   UNL     1      -4.557  17.207  25.239  0.00  0.00    +0.000 A 
ATOM     16  C   UNL     1      -5.347  18.296  24.862  0.00  0.00    +0.000 A 
ATOM     17  C   UNL     1      -6.210  18.200  23.762  0.00  0.00    +0.000 A 
ATOM     18  C   UNL     1      -6.270  17.024  23.009  0.00  0.00    +0.000 A 
ATOM     19  C   UNL     1      -5.467  15.954  23.382  0.00  0.00    +0.000 A 
ATOM     20  C   UNL     1      -4.919  14.562  21.302  0.00  0.00    +0.000 C 
ATOM     21  N   UNL     1      -3.972  12.451  19.571  0.00  0.00    +0.000 NA
ATOM     22  N   UNL     1      -3.619  11.563  18.586  0.00  0.00    +0.000 N 
ATOM     23  H   UNL     1      -3.054  14.936  25.118  0.00  0.00    +0.000 HD
ENDROOT
BRANCH   1  30
ATOM     24 CL   UNL     1       1.634  14.361  19.016  0.00  0.00    +0.000 Cl
ATOM     25  C   UNL     1       0.781  12.910  19.376  0.00  0.00    +0.000 A 
ATOM     26  C   UNL     1       1.273  12.040  20.342  0.00  0.00    +0.000 A 
ATOM     27  C   UNL     1       0.567  10.875  20.629  0.00  0.00    +0.000 A 
ATOM     28 CL   UNL     1       1.161   9.792  21.826  0.00  0.00    +0.000 Cl
ATOM     29  C   UNL     1      -0.617  10.577  19.951  0.00  0.00    +0.000 A 
ATOM     30  C   UNL     1      -1.106  11.439  18.957  0.00  0.00    +0.000 A 
ATOM     31  C   UNL     1      -0.400  12.619  18.689  0.00  0.00    +0.000 A 
ENDBRANCH   1  30
TORSDOF 1
ENDMDL
MODEL 3
REMARK VINA RESULT:      -7.3      3.552      7.716
REMARK  Name = 
REMARK  1 active torsions:
REMARK  status: ('A' for Active; 'I' for Inactive)
REMARK    1  A    between atoms: C_7  and  C_8
REMARK                            x       y       z     vdW  Elec       q    Type
REMARK                         _______ _______ _______ _____ _____    ______ ____
ROOT
ATOM      1  C   UNL     1      -6.765  13.761  21.958  0.00  0.00    +0.000 A 
ATOM      2  N   UNL     1      -7.766  13.723  22.827  0.00  0.00    +0.000 NA
ATOM      3  N   UNL     1      -7.303  13.191  24.007  0.00  0.00    +0.000 NA
ATOM      4  C   UNL     1      -6.025  12.934  23.852  0.00  0.00    +0.000 A 
ATOM      5  C   UNL     1      -5.064  12.375  24.706  0.00  0.00    +0.000 A 
ATOM      6  C   UNL     1      -3.809  12.234  24.264  0.00  0.00    +0.000 A 
ATOM      7  C   UNL     1      -3.457  12.696  22.876  0.00  0.00    +0.000 A 
ATOM      8  N   UNL     1      -2.164  12.538  22.419  0.00  0.00    +0.000 N 
ATOM      9  C   UNL     1      -1.227  11.520  22.853  0.00  0.00    +0.000 C 
ATOM     10  C   UNL     1      -0.434  11.169  21.596  0.00  0.00    +0.000 C 
ATOM     11  C   UNL     1      -0.617  12.363  20.634  0.00  0.00    +0.000 C 
ATOM     12  C   UNL     1      -1.241  11.951  19.266  0.00  0.00    +0.000 C 
ATOM     13  N   UNL     1      -0.210  12.054  18.221  0.00  0.00    +0.000 N 
ATOM     14  C   UNL     1       0.821  12.809  18.809  0.00  0.00    +0.000 A 
ATOM     15  C   UNL     1       1.952  13.261  18.149  0.00  0.00    +0.000 A 
ATOM     16  C   UNL     1       2.974  13.852  18.895  0.00  0.00    +0.000 A 
ATOM     17  C   UNL     1       2.859  13.968  20.288  0.00  0.00    +0.000 A 
ATOM     18  C   UNL     1       1.711  13.519  20.944  0.00  0.00    +0.000 A 
ATOM     19  C   UNL     1       0.694  12.948  20.189  0.00  0.00    +0.000 A 
ATOM     20  C   UNL     1      -1.543  13.345  21.373  0.00  0.00    +0.000 C 
ATOM     21  N   UNL     1      -4.344  13.240  22.078  0.00  0.00    +0.000 NA
ATOM     22  N   UNL     1      -5.616  13.312  22.589  0.00  0.00    +0.000 N 
ATOM     23  H   UNL     1      -0.518  12.443  17.334  0.00  0.00    +0.000 HD
ENDROOT
BRANCH   1  30
ATOM     24 CL   UNL     1      -6.524  12.722  16.867  0.00  0.00    +0.000 Cl
ATOM     25  C   UNL     1      -6.790  13.808  18.176  0.00  0.00    +0.000 A 
ATOM     26  C   UNL     1      -7.119  15.134  17.918  0.00  0.00    +0.000 A 
ATOM     27  C   UNL     1      -7.340  15.997  18.987  0.00  0.00    +0.000 A 
ATOM     28 CL   UNL     1      -7.753  17.640  18.682  0.00  0.00    +0.000 Cl
ATOM     29  C   UNL     1      -7.227  15.544  20.302  0.00  0.00    +0.000 A 
ATOM     30  C   UNL     1      -6.872  14.212  20.569  0.00  0.00    +0.000 A 
ATOM     31  C   UNL     1      -6.671  13.345  19.488  0.00  0.00    +0.000 A 
ENDBRANCH   1  30
TORSDOF 1
ENDMDL
MODEL 4
REMARK VINA RESULT:      -7.1      1.509      1.883
REMARK  Name = 
REMARK  1 active torsions:
REMARK  status: ('A' for Active; 'I' for Inactive)
REMARK    1  A    between atoms: C_7  and  C_8
REMARK                            x       y       z     vdW  Elec       q    Type
REMARK                         _______ _______ _______ _____ _____    ______ ____
ROOT
ATOM      1  C   UNL     1      -2.301  10.407  17.468  0.00  0.00    +0.000 A 
ATOM      2  N   UNL     1      -2.521   9.891  16.266  0.00  0.00    +0.000 NA
ATOM      3  N   UNL     1      -3.757  10.304  15.828  0.00  0.00    +0.000 NA
ATOM      4  C   UNL     1      -4.265  11.083  16.755  0.00  0.00    +0.000 A 
ATOM      5  C   UNL     1      -5.489  11.759  16.852  0.00  0.00    +0.000 A 
ATOM      6  C   UNL     1      -5.735  12.499  17.940  0.00  0.00    +0.000 A 
ATOM      7  C   UNL     1      -4.688  12.603  19.016  0.00  0.00    +0.000 A 
ATOM      8  N   UNL     1      -4.951  13.357  20.143  0.00  0.00    +0.000 N 
ATOM      9  C   UNL     1      -6.262  13.624  20.701  0.00  0.00    +0.000 C 
ATOM     10  C   UNL     1      -6.038  13.641  22.212  0.00  0.00    +0.000 C 
ATOM     11  C   UNL     1      -4.528  13.886  22.412  0.00  0.00    +0.000 C 
ATOM     12  C   UNL     1      -3.832  12.754  23.228  0.00  0.00    +0.000 C 
ATOM     13  N   UNL     1      -3.471  13.275  24.556  0.00  0.00    +0.000 N 
ATOM     14  C   UNL     1      -3.583  14.673  24.434  0.00  0.00    +0.000 A 
ATOM     15  C   UNL     1      -3.221  15.588  25.409  0.00  0.00    +0.000 A 
ATOM     16  C   UNL     1      -3.545  16.933  25.219  0.00  0.00    +0.000 A 
ATOM     17  C   UNL     1      -4.240  17.341  24.072  0.00  0.00    +0.000 A 
ATOM     18  C   UNL     1      -4.593  16.413  23.089  0.00  0.00    +0.000 A 
ATOM     19  C   UNL     1      -4.249  15.080  23.281  0.00  0.00    +0.000 A 
ATOM     20  C   UNL     1      -3.934  13.967  20.994  0.00  0.00    +0.000 C 
ATOM     21  N   UNL     1      -3.533  11.992  18.924  0.00  0.00    +0.000 NA
ATOM     22  N   UNL     1      -3.373  11.222  17.799  0.00  0.00    +0.000 N 
ATOM     23  H   UNL     1      -2.563  12.990  24.911  0.00  0.00    +0.000 HD
ENDROOT
BRANCH   1  30
ATOM     24 CL   UNL     1       2.597   8.709  17.882  0.00  0.00    +0.000 Cl
ATOM     25  C   UNL     1       1.172   9.390  18.566  0.00  0.00    +0.000 A 
ATOM     26  C   UNL     1       1.140   9.714  19.918  0.00  0.00    +0.000 A 
ATOM     27  C   UNL     1      -0.016  10.274  20.453  0.00  0.00    +0.000 A 
ATOM     28 CL   UNL     1      -0.067  10.684  22.124  0.00  0.00    +0.000 Cl
ATOM     29  C   UNL     1      -1.134  10.501  19.650  0.00  0.00    +0.000 A 
ATOM     30  C   UNL     1      -1.117  10.154  18.289  0.00  0.00    +0.000 A 
ATOM     31  C   UNL     1       0.058   9.610  17.753  0.00  0.00    +0.000 A 
ENDBRANCH   1  30
TORSDOF 1
ENDMDL
MODEL 5
REMARK VINA RESULT:      -7.1      1.565      1.749
REMARK  Name = 
REMARK  1 active torsions:
REMARK  status: ('A' for Active; 'I' for Inactive)
REMARK    1  A    between atoms: C_7  and  C_8
REMARK                            x       y       z     vdW  Elec       q    Type
REMARK                         _______ _______ _______ _____ _____    ______ ____
ROOT
ATOM      1  C   UNL     1      -2.324  10.415  17.605  0.00  0.00    +0.000 A 
ATOM      2  N   UNL     1      -2.553   9.897  16.406  0.00  0.00    +0.000 NA
ATOM      3  N   UNL     1      -3.781  10.332  15.966  0.00  0.00    +0.000 NA
ATOM      4  C   UNL     1      -4.274  11.126  16.888  0.00  0.00    +0.000 A 
ATOM      5  C   UNL     1      -5.484  11.827  16.982  0.00  0.00    +0.000 A 
ATOM      6  C   UNL     1      -5.716  12.577  18.065  0.00  0.00    +0.000 A 
ATOM      7  C   UNL     1      -4.668  12.664  19.142  0.00  0.00    +0.000 A 
ATOM      8  N   UNL     1      -4.917  13.429  20.265  0.00  0.00    +0.000 N 
ATOM      9  C   UNL     1      -6.222  13.725  20.821  0.00  0.00    +0.000 C 
ATOM     10  C   UNL     1      -5.999  13.744  22.332  0.00  0.00    +0.000 C 
ATOM     11  C   UNL     1      -4.484  13.960  22.532  0.00  0.00    +0.000 C 
ATOM     12  C   UNL     1      -3.810  12.818  23.353  0.00  0.00    +0.000 C 
ATOM     13  N   UNL     1      -3.440  13.339  24.679  0.00  0.00    +0.000 N 
ATOM     14  C   UNL     1      -3.525  14.738  24.551  0.00  0.00    +0.000 A 
ATOM     15  C   UNL     1      -3.145  15.651  25.521  0.00  0.00    +0.000 A 
ATOM     16  C   UNL     1      -3.442  17.001  25.325  0.00  0.00    +0.000 A 
ATOM     17  C   UNL     1      -4.128  17.417  24.175  0.00  0.00    +0.000 A 
ATOM     18  C   UNL     1      -4.499  16.491  23.197  0.00  0.00    +0.000 A 
ATOM     19  C   UNL     1      -4.182  15.153  23.395  0.00  0.00    +0.000 A 
ATOM     20  C   UNL     1      -3.888  14.023  21.114  0.00  0.00    +0.000 C 
ATOM     21  N   UNL     1      -3.525  12.030  19.054  0.00  0.00    +0.000 NA
ATOM     22  N   UNL     1      -3.380  11.252  17.932  0.00  0.00    +0.000 N 
ATOM     23  H   UNL     1      -2.538  13.037  25.036  0.00  0.00    +0.000 HD
ENDROOT
BRANCH   1  30
ATOM     24 CL   UNL     1      -0.030  10.323  22.272  0.00  0.00    +0.000 Cl
ATOM     25  C   UNL     1      -0.004  10.060  20.571  0.00  0.00    +0.000 A 
ATOM     26  C   UNL     1       1.149   9.576  19.964  0.00  0.00    +0.000 A 
ATOM     27  C   UNL     1       1.150   9.359  18.589  0.00  0.00    +0.000 A 
ATOM     28 CL   UNL     1       2.569   8.754  17.825  0.00  0.00    +0.000 Cl
ATOM     29  C   UNL     1       0.014   9.631  17.825  0.00  0.00    +0.000 A 
ATOM     30  C   UNL     1      -1.145  10.143  18.429  0.00  0.00    +0.000 A 
ATOM     31  C   UNL     1      -1.145  10.339  19.816  0.00  0.00    +0.000 A 
ENDBRANCH   1  30
TORSDOF 1
ENDMDL
MODEL 6
REMARK VINA RESULT:      -7.0      4.475      8.665
REMARK  Name = 
REMARK  1 active torsions:
REMARK  status: ('A' for Active; 'I' for Inactive)
REMARK    1  A    between atoms: C_7  and  C_8
REMARK                            x       y       z     vdW  Elec       q    Type
REMARK                         _______ _______ _______ _____ _____    ______ ____
ROOT
ATOM      1  C   UNL     1       1.429  16.263  21.827  0.00  0.00    +0.000 A 
ATOM      2  N   UNL     1       0.989  17.264  22.577  0.00  0.00    +0.000 NA
ATOM      3  N   UNL     1      -0.083  16.822  23.315  0.00  0.00    +0.000 NA
ATOM      4  C   UNL     1      -0.269  15.555  23.026  0.00  0.00    +0.000 A 
ATOM      5  C   UNL     1      -1.215  14.617  23.459  0.00  0.00    +0.000 A 
ATOM      6  C   UNL     1      -1.155  13.368  22.981  0.00  0.00    +0.000 A 
ATOM      7  C   UNL     1      -0.065  12.999  22.011  0.00  0.00    +0.000 A 
ATOM      8  N   UNL     1      -0.013  11.713  21.511  0.00  0.00    +0.000 N 
ATOM      9  C   UNL     1      -1.141  10.817  21.350  0.00  0.00    +0.000 C 
ATOM     10  C   UNL     1      -0.832  10.039  20.073  0.00  0.00    +0.000 C 
ATOM     11  C   UNL     1       0.689  10.175  19.852  0.00  0.00    +0.000 C 
ATOM     12  C   UNL     1       1.049  10.816  18.477  0.00  0.00    +0.000 C 
ATOM     13  N   UNL     1       1.632   9.783  17.607  0.00  0.00    +0.000 N 
ATOM     14  C   UNL     1       1.951   8.722  18.475  0.00  0.00    +0.000 A 
ATOM     15  C   UNL     1       2.636   7.574  18.112  0.00  0.00    +0.000 A 
ATOM     16  C   UNL     1       2.733   6.530  19.034  0.00  0.00    +0.000 A 
ATOM     17  C   UNL     1       2.130   6.639  20.295  0.00  0.00    +0.000 A 
ATOM     18  C   UNL     1       1.449   7.804  20.657  0.00  0.00    +0.000 A 
ATOM     19  C   UNL     1       1.375   8.843  19.738  0.00  0.00    +0.000 A 
ATOM     20  C   UNL     1       1.192  11.062  21.006  0.00  0.00    +0.000 C 
ATOM     21  N   UNL     1       0.837  13.864  21.617  0.00  0.00    +0.000 NA
ATOM     22  N   UNL     1       0.684  15.132  22.121  0.00  0.00    +0.000 N 
ATOM     23  H   UNL     1       2.428  10.075  17.046  0.00  0.00    +0.000 HD
ENDROOT
BRANCH   1  30
ATOM     24 CL   UNL     1       6.511  15.961  20.757  0.00  0.00    +0.000 Cl
ATOM     25  C   UNL     1       4.878  16.221  20.276  0.00  0.00    +0.000 A 
ATOM     26  C   UNL     1       4.588  16.517  18.948  0.00  0.00    +0.000 A 
ATOM     27  C   UNL     1       3.263  16.715  18.573  0.00  0.00    +0.000 A 
ATOM     28 CL   UNL     1       2.889  17.077  16.932  0.00  0.00    +0.000 Cl
ATOM     29  C   UNL     1       2.236  16.628  19.515  0.00  0.00    +0.000 A 
ATOM     30  C   UNL     1       2.525  16.353  20.861  0.00  0.00    +0.000 A 
ATOM     31  C   UNL     1       3.859  16.135  21.227  0.00  0.00    +0.000 A 
ENDBRANCH   1  30
TORSDOF 1
ENDMDL
MODEL 7
REMARK VINA RESULT:      -7.0      1.193      1.978
REMARK  Name = 
REMARK  1 active torsions:
REMARK  status: ('A' for Active; 'I' for Inactive)
REMARK    1  A    between atoms: C_7  and  C_8
REMARK                            x       y       z     vdW  Elec       q    Type
REMARK                         _______ _______ _______ _____ _____    ______ ____
ROOT
ATOM      1  C   UNL     1      -2.830  11.119  17.567  0.00  0.00    +0.000 A 
ATOM      2  N   UNL     1      -3.166  10.449  16.473  0.00  0.00    +0.000 NA
ATOM      3  N   UNL     1      -4.538  10.413  16.383  0.00  0.00    +0.000 NA
ATOM      4  C   UNL     1      -5.020  11.079  17.407  0.00  0.00    +0.000 A 
ATOM      5  C   UNL     1      -6.330  11.347  17.826  0.00  0.00    +0.000 A 
ATOM      6  C   UNL     1      -6.520  12.072  18.935  0.00  0.00    +0.000 A 
ATOM      7  C   UNL     1      -5.327  12.596  19.689  0.00  0.00    +0.000 A 
ATOM      8  N   UNL     1      -5.526  13.333  20.839  0.00  0.00    +0.000 N 
ATOM      9  C   UNL     1      -6.666  13.230  21.729  0.00  0.00    +0.000 C 
ATOM     10  C   UNL     1      -6.085  13.457  23.123  0.00  0.00    +0.000 C 
ATOM     11  C   UNL     1      -4.738  14.177  22.907  0.00  0.00    +0.000 C 
ATOM     12  C   UNL     1      -3.528  13.400  23.511  0.00  0.00    +0.000 C 
ATOM     13  N   UNL     1      -3.033  14.130  24.689  0.00  0.00    +0.000 N 
ATOM     14  C   UNL     1      -3.620  15.406  24.593  0.00  0.00    +0.000 A 
ATOM     15  C   UNL     1      -3.342  16.475  25.428  0.00  0.00    +0.000 A 
ATOM     16  C   UNL     1      -4.122  17.629  25.324  0.00  0.00    +0.000 A 
ATOM     17  C   UNL     1      -5.178  17.690  24.404  0.00  0.00    +0.000 A 
ATOM     18  C   UNL     1      -5.446  16.610  23.560  0.00  0.00    +0.000 A 
ATOM     19  C   UNL     1      -4.652  15.475  23.660  0.00  0.00    +0.000 A 
ATOM     20  C   UNL     1      -4.582  14.307  21.380  0.00  0.00    +0.000 C 
ATOM     21  N   UNL     1      -4.099  12.369  19.292  0.00  0.00    +0.000 NA
ATOM     22  N   UNL     1      -3.987  11.586  18.170  0.00  0.00    +0.000 N 
ATOM     23  H   UNL     1      -2.023  14.176  24.788  0.00  0.00    +0.000 HD
ENDROOT
BRANCH   1  30
ATOM     24 CL   UNL     1       0.947  14.340  19.120  0.00  0.00    +0.000 Cl
ATOM     25  C   UNL     1       0.352  12.759  18.786  0.00  0.00    +0.000 A 
ATOM     26  C   UNL     1       1.178  11.656  18.972  0.00  0.00    +0.000 A 
ATOM     27  C   UNL     1       0.679  10.384  18.708  0.00  0.00    +0.000 A 
ATOM     28 CL   UNL     1       1.689   9.010  18.939  0.00  0.00    +0.000 Cl
ATOM     29  C   UNL     1      -0.630  10.214  18.253  0.00  0.00    +0.000 A 
ATOM     30  C   UNL     1      -1.460  11.325  18.040  0.00  0.00    +0.000 A 
ATOM     31  C   UNL     1      -0.958  12.600  18.328  0.00  0.00    +0.000 A 
ENDBRANCH   1  30
TORSDOF 1
ENDMDL
MODEL 8
REMARK VINA RESULT:      -6.9      4.495      8.735
REMARK  Name = 
REMARK  1 active torsions:
REMARK  status: ('A' for Active; 'I' for Inactive)
REMARK    1  A    between atoms: C_7  and  C_8
REMARK                            x       y       z     vdW  Elec       q    Type
REMARK                         _______ _______ _______ _____ _____    ______ ____
ROOT
ATOM      1  C   UNL     1       1.392  16.279  21.889  0.00  0.00    +0.000 A 
ATOM      2  N   UNL     1       0.960  17.269  22.660  0.00  0.00    +0.000 NA
ATOM      3  N   UNL     1      -0.090  16.810  23.419  0.00  0.00    +0.000 NA
ATOM      4  C   UNL     1      -0.270  15.544  23.121  0.00  0.00    +0.000 A 
ATOM      5  C   UNL     1      -1.197  14.592  23.567  0.00  0.00    +0.000 A 
ATOM      6  C   UNL     1      -1.137  13.348  23.076  0.00  0.00    +0.000 A 
ATOM      7  C   UNL     1      -0.066  13.000  22.077  0.00  0.00    +0.000 A 
ATOM      8  N   UNL     1      -0.015  11.719  21.563  0.00  0.00    +0.000 N 
ATOM      9  C   UNL     1      -1.138  10.814  21.420  0.00  0.00    +0.000 C 
ATOM     10  C   UNL     1      -0.852  10.051  20.128  0.00  0.00    +0.000 C 
ATOM     11  C   UNL     1       0.662  10.204  19.873  0.00  0.00    +0.000 C 
ATOM     12  C   UNL     1       0.983  10.862  18.496  0.00  0.00    +0.000 C 
ATOM     13  N   UNL     1       1.555   9.843  17.602  0.00  0.00    +0.000 N 
ATOM     14  C   UNL     1       1.904   8.777  18.451  0.00  0.00    +0.000 A 
ATOM     15  C   UNL     1       2.591   7.639  18.061  0.00  0.00    +0.000 A 
ATOM     16  C   UNL     1       2.720   6.587  18.970  0.00  0.00    +0.000 A 
ATOM     17  C   UNL     1       2.147   6.678  20.246  0.00  0.00    +0.000 A 
ATOM     18  C   UNL     1       1.464   7.833  20.635  0.00  0.00    +0.000 A 
ATOM     19  C   UNL     1       1.358   8.880  19.729  0.00  0.00    +0.000 A 
ATOM     20  C   UNL     1       1.184  11.085  21.022  0.00  0.00    +0.000 C 
ATOM     21  N   UNL     1       0.818  13.877  21.670  0.00  0.00    +0.000 NA
ATOM     22  N   UNL     1       0.664  15.138  22.190  0.00  0.00    +0.000 N 
ATOM     23  H   UNL     1       2.334  10.148  17.025  0.00  0.00    +0.000 HD
ENDROOT
BRANCH   1  30
ATOM     24 CL   UNL     1       2.894  17.002  16.963  0.00  0.00    +0.000 Cl
ATOM     25  C   UNL     1       3.248  16.730  18.626  0.00  0.00    +0.000 A 
ATOM     26  C   UNL     1       4.570  16.619  19.042  0.00  0.00    +0.000 A 
ATOM     27  C   UNL     1       4.840  16.409  20.391  0.00  0.00    +0.000 A 
ATOM     28 CL   UNL     1       6.472  16.275  20.921  0.00  0.00    +0.000 Cl
ATOM     29  C   UNL     1       3.800  16.302  21.316  0.00  0.00    +0.000 A 
ATOM     30  C   UNL     1       2.463  16.390  20.898  0.00  0.00    +0.000 A 
ATOM     31  C   UNL     1       2.200  16.621  19.542  0.00  0.00    +0.000 A 
ENDBRANCH   1  30
TORSDOF 1
ENDMDL
MODEL 9
REMARK VINA RESULT:      -6.9      4.354      8.559
REMARK  Name = 
REMARK  1 active torsions:
REMARK  status: ('A' for Active; 'I' for Inactive)
REMARK    1  A    between atoms: C_7  and  C_8
REMARK                            x       y       z     vdW  Elec       q    Type
REMARK                         _______ _______ _______ _____ _____    ______ ____
ROOT
ATOM      1  C   UNL     1       0.501  16.886  21.226  0.00  0.00    +0.000 A 
ATOM      2  N   UNL     1       0.170  17.894  22.023  0.00  0.00    +0.000 NA
ATOM      3  N   UNL     1      -0.497  17.392  23.114  0.00  0.00    +0.000 NA
ATOM      4  C   UNL     1      -0.546  16.087  22.983  0.00  0.00    +0.000 A 
ATOM      5  C   UNL     1      -1.113  15.079  23.775  0.00  0.00    +0.000 A 
ATOM      6  C   UNL     1      -1.000  13.805  23.382  0.00  0.00    +0.000 A 
ATOM      7  C   UNL     1      -0.251  13.486  22.115  0.00  0.00    +0.000 A 
ATOM      8  N   UNL     1      -0.148  12.171  21.706  0.00  0.00    +0.000 N 
ATOM      9  C   UNL     1      -1.089  11.110  22.004  0.00  0.00    +0.000 C 
ATOM     10  C   UNL     1      -1.097  10.242  20.747  0.00  0.00    +0.000 C 
ATOM     11  C   UNL     1       0.214  10.568  20.001  0.00  0.00    +0.000 C 
ATOM     12  C   UNL     1      -0.026  11.090  18.551  0.00  0.00    +0.000 C 
ATOM     13  N   UNL     1       0.403  10.057  17.595  0.00  0.00    +0.000 N 
ATOM     14  C   UNL     1       1.173   9.160  18.358  0.00  0.00    +0.000 A 
ATOM     15  C   UNL     1       1.886   8.088  17.847  0.00  0.00    +0.000 A 
ATOM     16  C   UNL     1       2.467   7.182  18.737  0.00  0.00    +0.000 A 
ATOM     17  C   UNL     1       2.313   7.350  20.120  0.00  0.00    +0.000 A 
ATOM     18  C   UNL     1       1.601   8.439  20.628  0.00  0.00    +0.000 A 
ATOM     19  C   UNL     1       1.043   9.343  19.733  0.00  0.00    +0.000 A 
ATOM     20  C   UNL     1       0.912  11.645  20.850  0.00  0.00    +0.000 C 
ATOM     21  N   UNL     1       0.301  14.419  21.380  0.00  0.00    +0.000 NA
ATOM     22  N   UNL     1       0.106  15.702  21.829  0.00  0.00    +0.000 N 
ATOM     23  H   UNL     1       0.900  10.393  16.775  0.00  0.00    +0.000 HD
ENDROOT
BRANCH   1  30
ATOM     24 CL   UNL     1       0.454  18.500  16.282  0.00  0.00    +0.000 Cl
ATOM     25  C   UNL     1       1.238  17.752  17.620  0.00  0.00    +0.000 A 
ATOM     26  C   UNL     1       2.536  17.270  17.479  0.00  0.00    +0.000 A 
ATOM     27  C   UNL     1       3.160  16.677  18.572  0.00  0.00    +0.000 A 
ATOM     28 CL   UNL     1       4.767  16.082  18.415  0.00  0.00    +0.000 Cl
ATOM     29  C   UNL     1       2.493  16.557  19.793  0.00  0.00    +0.000 A 
ATOM     30  C   UNL     1       1.175  17.020  19.934  0.00  0.00    +0.000 A 
ATOM     31  C   UNL     1       0.561  17.634  18.835  0.00  0.00    +0.000 A 
ENDBRANCH   1  30
TORSDOF 1
ENDMDL
