MODEL 1
REMARK VINA RESULT:      -8.9      0.000      0.000
REMARK  Name = 
REMARK  6 active torsions:
REMARK  status: ('A' for Active; 'I' for Inactive)
REMARK    1  A    between atoms: C_1  and  C_2
REMARK    2  A    between atoms: C_6  and  C_7
REMARK    3  A    between atoms: C_11  and  C_12
REMARK    4  A    between atoms: C_12  and  N_13
REMARK    5  A    between atoms: C_14  and  C_16
REMARK    6  A    between atoms: C_16  and  C_17
REMARK                            x       y       z     vdW  Elec       q    Type
REMARK                         _______ _______ _______ _____ _____    ______ ____
ROOT
ATOM      1  C   UNL     1       7.000   6.325  17.119  0.00  0.00    +0.000 C 
ENDROOT
BRANCH   1   6
ATOM      2  C   UNL     1       3.310   6.657  18.065  0.00  0.00    +0.000 A 
ATOM      3  C   UNL     1       2.886   5.333  17.853  0.00  0.00    +0.000 A 
ATOM      4  C   UNL     1       3.771   4.344  17.410  0.00  0.00    +0.000 A 
ATOM      5  C   UNL     1       5.104   4.659  17.160  0.00  0.00    +0.000 A 
ATOM      6  C   UNL     1       5.564   5.962  17.369  0.00  0.00    +0.000 A 
ATOM      7  C   UNL     1       4.663   6.945  17.806  0.00  0.00    +0.000 A 
BRANCH   2  13
ATOM      8  C   UNL     1       0.751   8.753  21.854  0.00  0.00    +0.000 C 
ATOM      9  C   UNL     1       1.142   8.756  20.407  0.00  0.00    +0.000 A 
ATOM     10  C   UNL     1       0.668   9.736  19.533  0.00  0.00    +0.000 A 
ATOM     11  C   UNL     1       1.036   9.710  18.191  0.00  0.00    +0.000 A 
ATOM     12  C   UNL     1       1.877   8.702  17.711  0.00  0.00    +0.000 A 
ATOM     13  C   UNL     1       2.387   7.706  18.562  0.00  0.00    +0.000 A 
ATOM     14  C   UNL     1       2.003   7.760  19.916  0.00  0.00    +0.000 A 
ENDBRANCH   2  13
ENDBRANCH   1   6
BRANCH   1  15
ATOM     15  N   UNL     1       7.188   7.753  17.112  0.00  0.00    +0.000 N 
ATOM     16  C   UNL     1       8.073   8.331  17.986  0.00  0.00    +0.000 C 
ATOM     17  O   UNL     1       8.711   7.695  18.820  0.00  0.00    +0.000 OA
ATOM     18  H   UNL     1       6.643   8.322  16.478  0.00  0.00    +0.000 HD
BRANCH  16  19
ATOM     19  C   UNL     1       8.234   9.821  17.810  0.00  0.00    +0.000 C 
BRANCH  19  20
ATOM     20  C   UNL     1       9.396  10.417  18.604  0.00  0.00    +0.000 C 
ATOM     21  C   UNL     1       9.021  11.019  19.975  0.00  0.00    +0.000 C 
ATOM     22  C   UNL     1      10.282  11.539  20.712  0.00  0.00    +0.000 C 
ATOM     23  C   UNL     1      10.317  13.060  20.769  0.00  0.00    +0.000 C 
ATOM     24  C   UNL     1      10.742  13.450  19.353  0.00  0.00    +0.000 C 
ATOM     25  C   UNL     1      11.275  12.146  18.733  0.00  0.00    +0.000 C 
ATOM     26  C   UNL     1      10.246  11.444  17.814  0.00  0.00    +0.000 C 
ATOM     27  N   UNL     1      11.498  11.284  19.909  0.00  0.00    +0.000 NA
ATOM     28  H   UNL     1      12.313  11.623  20.421  0.00  0.00    +0.000 HD
ENDBRANCH  19  20
ENDBRANCH  16  19
ENDBRANCH   1  15
TORSDOF 5
ENDMDL
MODEL 2
REMARK VINA RESULT:      -8.7      4.478      8.702
REMARK  Name = 
REMARK  6 active torsions:
REMARK  status: ('A' for Active; 'I' for Inactive)
REMARK    1  A    between atoms: C_1  and  C_2
REMARK    2  A    between atoms: C_6  and  C_7
REMARK    3  A    between atoms: C_11  and  C_12
REMARK    4  A    between atoms: C_12  and  N_13
REMARK    5  A    between atoms: C_14  and  C_16
REMARK    6  A    between atoms: C_16  and  C_17
REMARK                            x       y       z     vdW  Elec       q    Type
REMARK                         _______ _______ _______ _____ _____    ______ ____
ROOT
ATOM      1  C   UNL     1       1.339   7.154  21.121  0.00  0.00    +0.000 C 
ENDROOT
BRANCH   1   6
ATOM      2  C   UNL     1       3.339   4.982  18.691  0.00  0.00    +0.000 A 
ATOM      3  C   UNL     1       2.646   3.766  18.828  0.00  0.00    +0.000 A 
ATOM      4  C   UNL     1       1.552   3.641  19.690  0.00  0.00    +0.000 A 
ATOM      5  C   UNL     1       1.127   4.731  20.444  0.00  0.00    +0.000 A 
ATOM      6  C   UNL     1       1.784   5.959  20.327  0.00  0.00    +0.000 A 
ATOM      7  C   UNL     1       2.886   6.067  19.464  0.00  0.00    +0.000 A 
BRANCH   2  13
ATOM      8  C   UNL     1       7.611   7.297  17.389  0.00  0.00    +0.000 C 
ATOM      9  C   UNL     1       6.582   6.242  17.113  0.00  0.00    +0.000 A 
ATOM     10  C   UNL     1       6.695   5.394  16.011  0.00  0.00    +0.000 A 
ATOM     11  C   UNL     1       5.721   4.430  15.770  0.00  0.00    +0.000 A 
ATOM     12  C   UNL     1       4.624   4.309  16.628  0.00  0.00    +0.000 A 
ATOM     13  C   UNL     1       4.482   5.134  17.758  0.00  0.00    +0.000 A 
ATOM     14  C   UNL     1       5.485   6.096  17.980  0.00  0.00    +0.000 A 
ENDBRANCH   2  13
ENDBRANCH   1   6
BRANCH   1  15
ATOM     15  N   UNL     1       1.439   8.366  20.349  0.00  0.00    +0.000 N 
ATOM     16  C   UNL     1       0.547   9.387  20.556  0.00  0.00    +0.000 C 
ATOM     17  O   UNL     1      -0.379   9.320  21.359  0.00  0.00    +0.000 OA
ATOM     18  H   UNL     1       2.155   8.443  19.637  0.00  0.00    +0.000 HD
BRANCH  16  19
ATOM     19  C   UNL     1       0.823  10.626  19.742  0.00  0.00    +0.000 C 
BRANCH  19  20
ATOM     20  C   UNL     1      -0.249  10.933  18.697  0.00  0.00    +0.000 C 
ATOM     21  C   UNL     1      -1.522  11.619  19.237  0.00  0.00    +0.000 C 
ATOM     22  C   UNL     1      -2.510  11.933  18.084  0.00  0.00    +0.000 C 
ATOM     23  C   UNL     1      -3.741  11.038  18.134  0.00  0.00    +0.000 C 
ATOM     24  C   UNL     1      -3.224   9.706  17.592  0.00  0.00    +0.000 C 
ATOM     25  C   UNL     1      -1.876  10.049  16.934  0.00  0.00    +0.000 C 
ATOM     26  C   UNL     1      -0.658   9.716  17.828  0.00  0.00    +0.000 C 
ATOM     27  N   UNL     1      -1.943  11.516  16.782  0.00  0.00    +0.000 NA
ATOM     28  H   UNL     1      -2.606  11.745  16.041  0.00  0.00    +0.000 HD
ENDBRANCH  19  20
ENDBRANCH  16  19
ENDBRANCH   1  15
TORSDOF 5
ENDMDL
MODEL 3
REMARK VINA RESULT:      -8.6      5.363      8.819
REMARK  Name = 
REMARK  6 active torsions:
REMARK  status: ('A' for Active; 'I' for Inactive)
REMARK    1  A    between atoms: C_1  and  C_2
REMARK    2  A    between atoms: C_6  and  C_7
REMARK    3  A    between atoms: C_11  and  C_12
REMARK    4  A    between atoms: C_12  and  N_13
REMARK    5  A    between atoms: C_14  and  C_16
REMARK    6  A    between atoms: C_16  and  C_17
REMARK                            x       y       z     vdW  Elec       q    Type
REMARK                         _______ _______ _______ _____ _____    ______ ____
ROOT
ATOM      1  C   UNL     1       1.479   7.062  21.032  0.00  0.00    +0.000 C 
ENDROOT
BRANCH   1   6
ATOM      2  C   UNL     1       3.482   4.628  18.868  0.00  0.00    +0.000 A 
ATOM      3  C   UNL     1       2.643   3.501  18.931  0.00  0.00    +0.000 A 
ATOM      4  C   UNL     1       1.450   3.519  19.661  0.00  0.00    +0.000 A 
ATOM      5  C   UNL     1       1.070   4.666  20.353  0.00  0.00    +0.000 A 
ATOM      6  C   UNL     1       1.872   5.808  20.305  0.00  0.00    +0.000 A 
ATOM      7  C   UNL     1       3.071   5.773  19.575  0.00  0.00    +0.000 A 
BRANCH   2  13
ATOM      8  C   UNL     1       5.820   4.151  14.440  0.00  0.00    +0.000 C 
ATOM      9  C   UNL     1       5.894   4.416  15.913  0.00  0.00    +0.000 A 
ATOM     10  C   UNL     1       7.113   4.683  16.538  0.00  0.00    +0.000 A 
ATOM     11  C   UNL     1       7.158   4.915  17.910  0.00  0.00    +0.000 A 
ATOM     12  C   UNL     1       5.984   4.878  18.667  0.00  0.00    +0.000 A 
ATOM     13  C   UNL     1       4.734   4.629  18.073  0.00  0.00    +0.000 A 
ATOM     14  C   UNL     1       4.719   4.403  16.683  0.00  0.00    +0.000 A 
ENDBRANCH   2  13
ENDBRANCH   1   6
BRANCH   1  15
ATOM     15  N   UNL     1       1.598   8.221  20.185  0.00  0.00    +0.000 N 
ATOM     16  C   UNL     1       0.726   9.270  20.332  0.00  0.00    +0.000 C 
ATOM     17  O   UNL     1      -0.196   9.271  21.141  0.00  0.00    +0.000 OA
ATOM     18  H   UNL     1       2.312   8.240  19.467  0.00  0.00    +0.000 HD
BRANCH  16  19
ATOM     19  C   UNL     1       1.021  10.450  19.441  0.00  0.00    +0.000 C 
BRANCH  19  20
ATOM     20  C   UNL     1      -0.122  10.813  18.493  0.00  0.00    +0.000 C 
ATOM     21  C   UNL     1      -1.297  11.579  19.137  0.00  0.00    +0.000 C 
ATOM     22  C   UNL     1      -2.366  11.942  18.074  0.00  0.00    +0.000 C 
ATOM     23  C   UNL     1      -3.638  11.123  18.248  0.00  0.00    +0.000 C 
ATOM     24  C   UNL     1      -3.253   9.758  17.680  0.00  0.00    +0.000 C 
ATOM     25  C   UNL     1      -1.953  10.014  16.897  0.00  0.00    +0.000 C 
ATOM     26  C   UNL     1      -0.679   9.616  17.682  0.00  0.00    +0.000 C 
ATOM     27  N   UNL     1      -1.946  11.481  16.733  0.00  0.00    +0.000 NA
ATOM     28  H   UNL     1      -2.659  11.743  16.051  0.00  0.00    +0.000 HD
ENDBRANCH  19  20
ENDBRANCH  16  19
ENDBRANCH   1  15
TORSDOF 5
ENDMDL
MODEL 4
REMARK VINA RESULT:      -8.6      2.458      3.351
REMARK  Name = 
REMARK  6 active torsions:
REMARK  status: ('A' for Active; 'I' for Inactive)
REMARK    1  A    between atoms: C_1  and  C_2
REMARK    2  A    between atoms: C_6  and  C_7
REMARK    3  A    between atoms: C_11  and  C_12
REMARK    4  A    between atoms: C_12  and  N_13
REMARK    5  A    between atoms: C_14  and  C_16
REMARK    6  A    between atoms: C_16  and  C_17
REMARK                            x       y       z     vdW  Elec       q    Type
REMARK                         _______ _______ _______ _____ _____    ______ ____
ROOT
ATOM      1  C   UNL     1       7.814   6.974  18.022  0.00  0.00    +0.000 C 
ENDROOT
BRANCH   1   6
ATOM      2  C   UNL     1       4.869   4.687  17.173  0.00  0.00    +0.000 A 
ATOM      3  C   UNL     1       5.203   4.345  15.851  0.00  0.00    +0.000 A 
ATOM      4  C   UNL     1       6.356   4.843  15.235  0.00  0.00    +0.000 A 
ATOM      5  C   UNL     1       7.203   5.703  15.928  0.00  0.00    +0.000 A 
ATOM      6  C   UNL     1       6.911   6.057  17.248  0.00  0.00    +0.000 A 
ATOM      7  C   UNL     1       5.745   5.556  17.849  0.00  0.00    +0.000 A 
BRANCH   2  13
ATOM      8  C   UNL     1       1.289   5.096  20.683  0.00  0.00    +0.000 C 
ATOM      9  C   UNL     1       1.895   4.333  19.543  0.00  0.00    +0.000 A 
ATOM     10  C   UNL     1       1.333   3.136  19.097  0.00  0.00    +0.000 A 
ATOM     11  C   UNL     1       1.920   2.439  18.045  0.00  0.00    +0.000 A 
ATOM     12  C   UNL     1       3.077   2.933  17.434  0.00  0.00    +0.000 A 
ATOM     13  C   UNL     1       3.665   4.142  17.844  0.00  0.00    +0.000 A 
ATOM     14  C   UNL     1       3.046   4.828  18.907  0.00  0.00    +0.000 A 
ENDBRANCH   2  13
ENDBRANCH   1   6
BRANCH   1  15
ATOM     15  N   UNL     1       7.727   8.329  17.540  0.00  0.00    +0.000 N 
ATOM     16  C   UNL     1       8.392   9.333  18.197  0.00  0.00    +0.000 C 
ATOM     17  O   UNL     1       9.051   9.153  19.216  0.00  0.00    +0.000 OA
ATOM     18  H   UNL     1       7.151   8.533  16.733  0.00  0.00    +0.000 HD
BRANCH  16  19
ATOM     19  C   UNL     1       8.284  10.684  17.534  0.00  0.00    +0.000 C 
BRANCH  19  20
ATOM     20  C   UNL     1       9.248  11.729  18.094  0.00  0.00    +0.000 C 
ATOM     21  C   UNL     1       8.804  13.198  17.925  0.00  0.00    +0.000 C 
ATOM     22  C   UNL     1       9.827  14.162  18.580  0.00  0.00    +0.000 C 
ATOM     23  C   UNL     1      10.613  14.946  17.537  0.00  0.00    +0.000 C 
ATOM     24  C   UNL     1      11.617  13.919  17.015  0.00  0.00    +0.000 C 
ATOM     25  C   UNL     1      11.579  12.777  18.045  0.00  0.00    +0.000 C 
ATOM     26  C   UNL     1      10.708  11.579  17.597  0.00  0.00    +0.000 C 
ATOM     27  N   UNL     1      10.928  13.402  19.213  0.00  0.00    +0.000 NA
ATOM     28  H   UNL     1      11.579  14.058  19.646  0.00  0.00    +0.000 HD
ENDBRANCH  19  20
ENDBRANCH  16  19
ENDBRANCH   1  15
TORSDOF 5
ENDMDL
MODEL 5
REMARK VINA RESULT:      -8.5      2.263      3.157
REMARK  Name = 
REMARK  6 active torsions:
REMARK  status: ('A' for Active; 'I' for Inactive)
REMARK    1  A    between atoms: C_1  and  C_2
REMARK    2  A    between atoms: C_6  and  C_7
REMARK    3  A    between atoms: C_11  and  C_12
REMARK    4  A    between atoms: C_12  and  N_13
REMARK    5  A    between atoms: C_14  and  C_16
REMARK    6  A    between atoms: C_16  and  C_17
REMARK                            x       y       z     vdW  Elec       q    Type
REMARK                         _______ _______ _______ _____ _____    ______ ____
ROOT
ATOM      1  C   UNL     1       7.902   7.150  18.142  0.00  0.00    +0.000 C 
ENDROOT
BRANCH   1   6
ATOM      2  C   UNL     1       4.614   5.235  17.767  0.00  0.00    +0.000 A 
ATOM      3  C   UNL     1       4.771   4.739  16.461  0.00  0.00    +0.000 A 
ATOM      4  C   UNL     1       5.915   5.016  15.706  0.00  0.00    +0.000 A 
ATOM      5  C   UNL     1       6.931   5.805  16.240  0.00  0.00    +0.000 A 
ATOM      6  C   UNL     1       6.816   6.307  17.539  0.00  0.00    +0.000 A 
ATOM      7  C   UNL     1       5.657   6.027  18.281  0.00  0.00    +0.000 A 
BRANCH   2  13
ATOM      8  C   UNL     1       0.780   2.172  18.870  0.00  0.00    +0.000 C 
ATOM      9  C   UNL     1       1.546   3.429  19.153  0.00  0.00    +0.000 A 
ATOM     10  C   UNL     1       1.164   4.292  20.180  0.00  0.00    +0.000 A 
ATOM     11  C   UNL     1       1.884   5.459  20.415  0.00  0.00    +0.000 A 
ATOM     12  C   UNL     1       2.991   5.774  19.621  0.00  0.00    +0.000 A 
ATOM     13  C   UNL     1       3.417   4.923  18.587  0.00  0.00    +0.000 A 
ATOM     14  C   UNL     1       2.673   3.747  18.375  0.00  0.00    +0.000 A 
ENDBRANCH   2  13
ENDBRANCH   1   6
BRANCH   1  15
ATOM     15  N   UNL     1       7.837   8.509  17.670  0.00  0.00    +0.000 N 
ATOM     16  C   UNL     1       8.528   9.497  18.325  0.00  0.00    +0.000 C 
ATOM     17  O   UNL     1       9.193   9.296  19.337  0.00  0.00    +0.000 OA
ATOM     18  H   UNL     1       7.256   8.730  16.870  0.00  0.00    +0.000 HD
BRANCH  16  19
ATOM     19  C   UNL     1       8.440  10.853  17.672  0.00  0.00    +0.000 C 
BRANCH  19  20
ATOM     20  C   UNL     1       9.385  11.894  18.273  0.00  0.00    +0.000 C 
ATOM     21  C   UNL     1       8.775  13.295  18.488  0.00  0.00    +0.000 C 
ATOM     22  C   UNL     1       9.802  14.247  19.153  0.00  0.00    +0.000 C 
ATOM     23  C   UNL     1      10.299  15.311  18.184  0.00  0.00    +0.000 C 
ATOM     24  C   UNL     1      11.284  14.544  17.302  0.00  0.00    +0.000 C 
ATOM     25  C   UNL     1      11.551  13.234  18.065  0.00  0.00    +0.000 C 
ATOM     26  C   UNL     1      10.734  12.036  17.525  0.00  0.00    +0.000 C 
ATOM     27  N   UNL     1      11.071  13.537  19.427  0.00  0.00    +0.000 NA
ATOM     28  H   UNL     1      11.724  14.180  19.875  0.00  0.00    +0.000 HD
ENDBRANCH  19  20
ENDBRANCH  16  19
ENDBRANCH   1  15
TORSDOF 5
ENDMDL
MODEL 6
REMARK VINA RESULT:      -8.4      5.142      9.021
REMARK  Name = 
REMARK  6 active torsions:
REMARK  status: ('A' for Active; 'I' for Inactive)
REMARK    1  A    between atoms: C_1  and  C_2
REMARK    2  A    between atoms: C_6  and  C_7
REMARK    3  A    between atoms: C_11  and  C_12
REMARK    4  A    between atoms: C_12  and  N_13
REMARK    5  A    between atoms: C_14  and  C_16
REMARK    6  A    between atoms: C_16  and  C_17
REMARK                            x       y       z     vdW  Elec       q    Type
REMARK                         _______ _______ _______ _____ _____    ______ ____
ROOT
ATOM      1  C   UNL     1       3.783   6.883  17.831  0.00  0.00    +0.000 C 
ENDROOT
BRANCH   1   6
ATOM      2  C   UNL     1       6.429   5.059  15.760  0.00  0.00    +0.000 A 
ATOM      3  C   UNL     1       7.280   4.619  16.789  0.00  0.00    +0.000 A 
ATOM      4  C   UNL     1       7.013   4.905  18.132  0.00  0.00    +0.000 A 
ATOM      5  C   UNL     1       5.886   5.647  18.478  0.00  0.00    +0.000 A 
ATOM      6  C   UNL     1       5.011   6.092  17.484  0.00  0.00    +0.000 A 
ATOM      7  C   UNL     1       5.298   5.804  16.140  0.00  0.00    +0.000 A 
BRANCH   2  13
ATOM      8  C   UNL     1       5.345   2.380  11.643  0.00  0.00    +0.000 C 
ATOM      9  C   UNL     1       6.161   3.448  12.307  0.00  0.00    +0.000 A 
ATOM     10  C   UNL     1       7.140   4.151  11.603  0.00  0.00    +0.000 A 
ATOM     11  C   UNL     1       7.894   5.129  12.244  0.00  0.00    +0.000 A 
ATOM     12  C   UNL     1       7.676   5.411  13.596  0.00  0.00    +0.000 A 
ATOM     13  C   UNL     1       6.689   4.736  14.336  0.00  0.00    +0.000 A 
ATOM     14  C   UNL     1       5.938   3.755  13.660  0.00  0.00    +0.000 A 
ENDBRANCH   2  13
ENDBRANCH   1   6
BRANCH   1  15
ATOM     15  N   UNL     1       2.963   6.189  18.791  0.00  0.00    +0.000 N 
ATOM     16  C   UNL     1       2.167   6.899  19.653  0.00  0.00    +0.000 C 
ATOM     17  O   UNL     1       2.129   8.125  19.682  0.00  0.00    +0.000 OA
ATOM     18  H   UNL     1       3.003   5.178  18.839  0.00  0.00    +0.000 HD
BRANCH  16  19
ATOM     19  C   UNL     1       1.299   6.043  20.542  0.00  0.00    +0.000 C 
BRANCH  19  20
ATOM     20  C   UNL     1       1.574   4.544  20.419  0.00  0.00    +0.000 C 
ATOM     21  C   UNL     1       3.022   4.110  20.729  0.00  0.00    +0.000 C 
ATOM     22  C   UNL     1       3.169   2.569  20.628  0.00  0.00    +0.000 C 
ATOM     23  C   UNL     1       3.983   2.156  19.409  0.00  0.00    +0.000 C 
ATOM     24  C   UNL     1       2.996   2.335  18.257  0.00  0.00    +0.000 C 
ATOM     25  C   UNL     1       1.621   2.461  18.936  0.00  0.00    +0.000 C 
ATOM     26  C   UNL     1       1.137   3.926  19.067  0.00  0.00    +0.000 C 
ATOM     27  N   UNL     1       1.871   1.942  20.295  0.00  0.00    +0.000 NA
ATOM     28  H   UNL     1       1.992   0.930  20.248  0.00  0.00    +0.000 HD
ENDBRANCH  19  20
ENDBRANCH  16  19
ENDBRANCH   1  15
TORSDOF 5
ENDMDL
MODEL 7
REMARK VINA RESULT:      -8.4      4.157      6.262
REMARK  Name = 
REMARK  6 active torsions:
REMARK  status: ('A' for Active; 'I' for Inactive)
REMARK    1  A    between atoms: C_1  and  C_2
REMARK    2  A    between atoms: C_6  and  C_7
REMARK    3  A    between atoms: C_11  and  C_12
REMARK    4  A    between atoms: C_12  and  N_13
REMARK    5  A    between atoms: C_14  and  C_16
REMARK    6  A    between atoms: C_16  and  C_17
REMARK                            x       y       z     vdW  Elec       q    Type
REMARK                         _______ _______ _______ _____ _____    ______ ____
ROOT
ATOM      1  C   UNL     1       2.431   6.199  19.957  0.00  0.00    +0.000 C 
ENDROOT
BRANCH   1   6
ATOM      2  C   UNL     1       0.832   9.671  20.068  0.00  0.00    +0.000 A 
ATOM      3  C   UNL     1       1.208  10.150  18.801  0.00  0.00    +0.000 A 
ATOM      4  C   UNL     1       1.967   9.372  17.920  0.00  0.00    +0.000 A 
ATOM      5  C   UNL     1       2.376   8.094  18.291  0.00  0.00    +0.000 A 
ATOM      6  C   UNL     1       2.013   7.579  19.538  0.00  0.00    +0.000 A 
ATOM      7  C   UNL     1       1.257   8.375  20.414  0.00  0.00    +0.000 A 
BRANCH   2  13
ATOM      8  C   UNL     1      -1.843  13.823  21.019  0.00  0.00    +0.000 C 
ATOM      9  C   UNL     1      -1.325  12.492  21.475  0.00  0.00    +0.000 A 
ATOM     10  C   UNL     1      -1.627  11.996  22.744  0.00  0.00    +0.000 A 
ATOM     11  C   UNL     1      -1.125  10.763  23.148  0.00  0.00    +0.000 A 
ATOM     12  C   UNL     1      -0.313  10.018  22.288  0.00  0.00    +0.000 A 
ATOM     13  C   UNL     1       0.002  10.476  20.997  0.00  0.00    +0.000 A 
ATOM     14  C   UNL     1      -0.524  11.724  20.612  0.00  0.00    +0.000 A 
ENDBRANCH   2  13
ENDBRANCH   1   6
BRANCH   1  15
ATOM     15  N   UNL     1       3.020   5.472  18.862  0.00  0.00    +0.000 N 
ATOM     16  C   UNL     1       3.306   4.138  19.001  0.00  0.00    +0.000 C 
ATOM     17  O   UNL     1       3.115   3.511  20.038  0.00  0.00    +0.000 OA
ATOM     18  H   UNL     1       3.245   5.962  18.005  0.00  0.00    +0.000 HD
BRANCH  16  19
ATOM     19  C   UNL     1       3.838   3.485  17.749  0.00  0.00    +0.000 C 
BRANCH  19  20
ATOM     20  C   UNL     1       5.193   4.029  17.295  0.00  0.00    +0.000 C 
ATOM     21  C   UNL     1       6.189   4.354  18.429  0.00  0.00    +0.000 C 
ATOM     22  C   UNL     1       7.543   4.841  17.850  0.00  0.00    +0.000 C 
ATOM     23  C   UNL     1       7.761   6.328  18.096  0.00  0.00    +0.000 C 
ATOM     24  C   UNL     1       6.855   6.988  17.058  0.00  0.00    +0.000 C 
ATOM     25  C   UNL     1       6.499   5.857  16.076  0.00  0.00    +0.000 C 
ATOM     26  C   UNL     1       5.103   5.242  16.335  0.00  0.00    +0.000 C 
ATOM     27  N   UNL     1       7.513   4.827  16.371  0.00  0.00    +0.000 NA
ATOM     28  H   UNL     1       8.418   5.138  16.017  0.00  0.00    +0.000 HD
ENDBRANCH  19  20
ENDBRANCH  16  19
ENDBRANCH   1  15
TORSDOF 5
ENDMDL
MODEL 8
REMARK VINA RESULT:      -8.4      4.979      7.656
REMARK  Name = 
REMARK  6 active torsions:
REMARK  status: ('A' for Active; 'I' for Inactive)
REMARK    1  A    between atoms: C_1  and  C_2
REMARK    2  A    between atoms: C_6  and  C_7
REMARK    3  A    between atoms: C_11  and  C_12
REMARK    4  A    between atoms: C_12  and  N_13
REMARK    5  A    between atoms: C_14  and  C_16
REMARK    6  A    between atoms: C_16  and  C_17
REMARK                            x       y       z     vdW  Elec       q    Type
REMARK                         _______ _______ _______ _____ _____    ______ ____
ROOT
ATOM      1  C   UNL     1       4.175   7.180  17.256  0.00  0.00    +0.000 C 
ENDROOT
BRANCH   1   6
ATOM      2  C   UNL     1       1.394   9.227  18.897  0.00  0.00    +0.000 A 
ATOM      3  C   UNL     1       1.183   8.461  20.057  0.00  0.00    +0.000 A 
ATOM      4  C   UNL     1       1.920   7.300  20.311  0.00  0.00    +0.000 A 
ATOM      5  C   UNL     1       2.885   6.872  19.404  0.00  0.00    +0.000 A 
ATOM      6  C   UNL     1       3.131   7.613  18.245  0.00  0.00    +0.000 A 
ATOM      7  C   UNL     1       2.377   8.772  18.000  0.00  0.00    +0.000 A 
BRANCH   2  13
ATOM      8  C   UNL     1      -2.895  11.523  17.617  0.00  0.00    +0.000 C 
ATOM      9  C   UNL     1      -1.455  11.618  18.026  0.00  0.00    +0.000 A 
ATOM     10  C   UNL     1      -0.828  12.855  18.179  0.00  0.00    +0.000 A 
ATOM     11  C   UNL     1       0.512  12.917  18.548  0.00  0.00    +0.000 A 
ATOM     12  C   UNL     1       1.237  11.741  18.762  0.00  0.00    +0.000 A 
ATOM     13  C   UNL     1       0.638  10.476  18.633  0.00  0.00    +0.000 A 
ATOM     14  C   UNL     1      -0.721  10.444  18.264  0.00  0.00    +0.000 A 
ENDBRANCH   2  13
ENDBRANCH   1   6
BRANCH   1  15
ATOM     15  N   UNL     1       4.013   5.796  16.891  0.00  0.00    +0.000 N 
ATOM     16  C   UNL     1       4.988   4.884  17.209  0.00  0.00    +0.000 C 
ATOM     17  O   UNL     1       6.035   5.186  17.773  0.00  0.00    +0.000 OA
ATOM     18  H   UNL     1       3.188   5.512  16.376  0.00  0.00    +0.000 HD
BRANCH  16  19
ATOM     19  C   UNL     1       4.647   3.461  16.844  0.00  0.00    +0.000 C 
BRANCH  19  20
ATOM     20  C   UNL     1       3.588   2.827  17.747  0.00  0.00    +0.000 C 
ATOM     21  C   UNL     1       2.178   3.447  17.648  0.00  0.00    +0.000 C 
ATOM     22  C   UNL     1       1.178   2.690  18.560  0.00  0.00    +0.000 C 
ATOM     23  C   UNL     1       0.766   3.525  19.765  0.00  0.00    +0.000 C 
ATOM     24  C   UNL     1       1.983   3.430  20.685  0.00  0.00    +0.000 C 
ATOM     25  C   UNL     1       2.811   2.264  20.116  0.00  0.00    +0.000 C 
ATOM     26  C   UNL     1       3.997   2.730  19.238  0.00  0.00    +0.000 C 
ATOM     27  N   UNL     1       1.848   1.563  19.246  0.00  0.00    +0.000 NA
ATOM     28  H   UNL     1       1.167   1.074  19.828  0.00  0.00    +0.000 HD
ENDBRANCH  19  20
ENDBRANCH  16  19
ENDBRANCH   1  15
TORSDOF 5
ENDMDL
MODEL 9
REMARK VINA RESULT:      -8.3      4.948      8.198
REMARK  Name = 
REMARK  6 active torsions:
REMARK  status: ('A' for Active; 'I' for Inactive)
REMARK    1  A    between atoms: C_1  and  C_2
REMARK    2  A    between atoms: C_6  and  C_7
REMARK    3  A    between atoms: C_11  and  C_12
REMARK    4  A    between atoms: C_12  and  N_13
REMARK    5  A    between atoms: C_14  and  C_16
REMARK    6  A    between atoms: C_16  and  C_17
REMARK                            x       y       z     vdW  Elec       q    Type
REMARK                         _______ _______ _______ _____ _____    ______ ____
ROOT
ATOM      1  C   UNL     1       3.707   5.814  18.511  0.00  0.00    +0.000 C 
ENDROOT
BRANCH   1   6
ATOM      2  C   UNL     1       6.526   4.920  16.088  0.00  0.00    +0.000 A 
ATOM      3  C   UNL     1       7.590   4.779  16.997  0.00  0.00    +0.000 A 
ATOM      4  C   UNL     1       7.408   4.970  18.370  0.00  0.00    +0.000 A 
ATOM      5  C   UNL     1       6.155   5.315  18.869  0.00  0.00    +0.000 A 
ATOM      6  C   UNL     1       5.071   5.454  17.998  0.00  0.00    +0.000 A 
ATOM      7  C   UNL     1       5.271   5.267  16.621  0.00  0.00    +0.000 A 
BRANCH   2  13
ATOM      8  C   UNL     1       5.111   2.610  11.850  0.00  0.00    +0.000 C 
ATOM      9  C   UNL     1       6.013   3.584  12.546  0.00  0.00    +0.000 A 
ATOM     10  C   UNL     1       6.994   4.288  11.846  0.00  0.00    +0.000 A 
ATOM     11  C   UNL     1       7.827   5.178  12.517  0.00  0.00    +0.000 A 
ATOM     12  C   UNL     1       7.688   5.369  13.895  0.00  0.00    +0.000 A 
ATOM     13  C   UNL     1       6.702   4.691  14.633  0.00  0.00    +0.000 A 
ATOM     14  C   UNL     1       5.870   3.801  13.927  0.00  0.00    +0.000 A 
ENDBRANCH   2  13
ENDBRANCH   1   6
BRANCH   1  15
ATOM     15  N   UNL     1       3.203   7.005  17.876  0.00  0.00    +0.000 N 
ATOM     16  C   UNL     1       2.397   7.867  18.577  0.00  0.00    +0.000 C 
ATOM     17  O   UNL     1       2.042   7.668  19.734  0.00  0.00    +0.000 OA
ATOM     18  H   UNL     1       3.426   7.182  16.905  0.00  0.00    +0.000 HD
BRANCH  16  19
ATOM     19  C   UNL     1       2.015   9.113  17.817  0.00  0.00    +0.000 C 
BRANCH  19  20
ATOM     20  C   UNL     1       1.231  10.129  18.648  0.00  0.00    +0.000 C 
ATOM     21  C   UNL     1      -0.298  10.119  18.433  0.00  0.00    +0.000 C 
ATOM     22  C   UNL     1      -0.991  11.146  19.365  0.00  0.00    +0.000 C 
ATOM     23  C   UNL     1      -1.531  12.341  18.590  0.00  0.00    +0.000 C 
ATOM     24  C   UNL     1      -0.274  13.160  18.297  0.00  0.00    +0.000 C 
ATOM     25  C   UNL     1       0.798  12.579  19.235  0.00  0.00    +0.000 C 
ATOM     26  C   UNL     1       1.751  11.583  18.531  0.00  0.00    +0.000 C 
ATOM     27  N   UNL     1       0.003  11.825  20.225  0.00  0.00    +0.000 NA
ATOM     28  H   UNL     1      -0.479  12.485  20.836  0.00  0.00    +0.000 HD
ENDBRANCH  19  20
ENDBRANCH  16  19
ENDBRANCH   1  15
TORSDOF 5
ENDMDL
