MODEL 1
REMARK VINA RESULT:      -9.0      0.000      0.000
REMARK  Name = 
REMARK  3 active torsions:
REMARK  status: ('A' for Active; 'I' for Inactive)
REMARK    1  A    between atoms: C_4  and  C_5
REMARK    2  A    between atoms: C_5  and  N_6
REMARK    3  A    between atoms: C_9  and  C_10
REMARK                            x       y       z     vdW  Elec       q    Type
REMARK                         _______ _______ _______ _____ _____    ______ ____
ROOT
ATOM      1  C   UNL     1       6.851   4.840  17.690  0.00  0.00    +0.000 C 
ENDROOT
BRANCH   1   5
ATOM      2  O   UNL     1       2.669   6.965  18.906  0.00  0.00    +0.000 OA
ATOM      3  C   UNL     1       3.396   5.977  19.005  0.00  0.00    +0.000 A 
ATOM      4  C   UNL     1       4.685   5.978  18.299  0.00  0.00    +0.000 A 
ATOM      5  C   UNL     1       5.501   4.920  18.395  0.00  0.00    +0.000 A 
ATOM      6  N   UNL     1       5.174   3.808  19.148  0.00  0.00    +0.000 NA
ATOM      7  C   UNL     1       4.033   3.798  19.771  0.00  0.00    +0.000 A 
ATOM      8  C   UNL     1       3.655   2.605  20.593  0.00  0.00    +0.000 A 
ATOM      9  C   UNL     1       2.482   2.578  21.240  0.00  0.00    +0.000 A 
ATOM     10  C   UNL     1       1.574   3.689  21.151  0.00  0.00    +0.000 A 
ATOM     11  C   UNL     1       1.905   4.761  20.422  0.00  0.00    +0.000 A 
ATOM     12  N   UNL     1       3.111   4.837  19.737  0.00  0.00    +0.000 N 
ENDBRANCH   1   5
BRANCH   1  13
ATOM     13  N   UNL     1       6.807   4.798  16.234  0.00  0.00    +0.000 N 
ATOM     14  N   UNL     1       7.590   5.591  15.483  0.00  0.00    +0.000 NA
ATOM     15  N   UNL     1       7.318   5.251  14.232  0.00  0.00    +0.000 NA
ATOM     16  C   UNL     1       6.367   4.256  14.279  0.00  0.00    +0.000 A 
ATOM     17  N   UNL     1       6.017   3.944  15.542  0.00  0.00    +0.000 NA
BRANCH  16  18
ATOM     18  C   UNL     1       5.853   3.609  13.074  0.00  0.00    +0.000 A 
ATOM     19  C   UNL     1       4.604   3.961  12.535  0.00  0.00    +0.000 A 
ATOM     20  C   UNL     1       4.100   3.309  11.402  0.00  0.00    +0.000 A 
ATOM     21  C   UNL     1       4.840   2.299  10.794  0.00  0.00    +0.000 A 
ATOM     22  C   UNL     1       6.082   1.957  11.316  0.00  0.00    +0.000 A 
ATOM     23  F   UNL     1       6.795   0.986  10.731  0.00  0.00    +0.000 F 
ATOM     24  C   UNL     1       6.594   2.600  12.440  0.00  0.00    +0.000 A 
ENDBRANCH  16  18
ENDBRANCH   1  13
TORSDOF 3
ENDMDL
MODEL 2
REMARK VINA RESULT:      -8.9      1.519      1.952
REMARK  Name = 
REMARK  3 active torsions:
REMARK  status: ('A' for Active; 'I' for Inactive)
REMARK    1  A    between atoms: C_4  and  C_5
REMARK    2  A    between atoms: C_5  and  N_6
REMARK    3  A    between atoms: C_9  and  C_10
REMARK                            x       y       z     vdW  Elec       q    Type
REMARK                         _______ _______ _______ _____ _____    ______ ____
ROOT
ATOM      1  C   UNL     1       5.608   6.222  17.545  0.00  0.00    +0.000 C 
ENDROOT
BRANCH   1   5
ATOM      2  O   UNL     1       5.200   2.121  20.094  0.00  0.00    +0.000 OA
ATOM      3  C   UNL     1       4.661   3.156  19.704  0.00  0.00    +0.000 A 
ATOM      4  C   UNL     1       5.435   4.079  18.863  0.00  0.00    +0.000 A 
ATOM      5  C   UNL     1       4.872   5.210  18.416  0.00  0.00    +0.000 A 
ATOM      6  N   UNL     1       3.566   5.547  18.719  0.00  0.00    +0.000 NA
ATOM      7  C   UNL     1       2.877   4.737  19.467  0.00  0.00    +0.000 A 
ATOM      8  C   UNL     1       1.460   5.080  19.809  0.00  0.00    +0.000 A 
ATOM      9  C   UNL     1       0.736   4.257  20.580  0.00  0.00    +0.000 A 
ATOM     10  C   UNL     1       1.310   3.041  21.089  0.00  0.00    +0.000 A 
ATOM     11  C   UNL     1       2.574   2.725  20.785  0.00  0.00    +0.000 A 
ATOM     12  N   UNL     1       3.362   3.544  19.987  0.00  0.00    +0.000 N 
ENDBRANCH   1   5
BRANCH   1  13
ATOM     13  N   UNL     1       6.111   5.720  16.272  0.00  0.00    +0.000 N 
ATOM     14  N   UNL     1       7.385   5.917  15.892  0.00  0.00    +0.000 NA
ATOM     15  N   UNL     1       7.493   5.293  14.729  0.00  0.00    +0.000 NA
ATOM     16  C   UNL     1       6.262   4.740  14.449  0.00  0.00    +0.000 A 
ATOM     17  N   UNL     1       5.356   4.995  15.412  0.00  0.00    +0.000 NA
BRANCH  16  18
ATOM     18  C   UNL     1       6.020   3.939  13.251  0.00  0.00    +0.000 A 
ATOM     19  C   UNL     1       4.720   3.754  12.749  0.00  0.00    +0.000 A 
ATOM     20  C   UNL     1       4.490   2.953  11.623  0.00  0.00    +0.000 A 
ATOM     21  C   UNL     1       5.559   2.330  10.984  0.00  0.00    +0.000 A 
ATOM     22  C   UNL     1       6.847   2.521  11.468  0.00  0.00    +0.000 A 
ATOM     23  F   UNL     1       7.876   1.923  10.853  0.00  0.00    +0.000 F 
ATOM     24  C   UNL     1       7.087   3.318  12.586  0.00  0.00    +0.000 A 
ENDBRANCH  16  18
ENDBRANCH   1  13
TORSDOF 3
ENDMDL
MODEL 3
REMARK VINA RESULT:      -8.7      1.698      2.296
REMARK  Name = 
REMARK  3 active torsions:
REMARK  status: ('A' for Active; 'I' for Inactive)
REMARK    1  A    between atoms: C_4  and  C_5
REMARK    2  A    between atoms: C_5  and  N_6
REMARK    3  A    between atoms: C_9  and  C_10
REMARK                            x       y       z     vdW  Elec       q    Type
REMARK                         _______ _______ _______ _____ _____    ______ ____
ROOT
ATOM      1  C   UNL     1       5.506   6.147  17.431  0.00  0.00    +0.000 C 
ENDROOT
BRANCH   1   5
ATOM      2  O   UNL     1       5.209   2.096  20.074  0.00  0.00    +0.000 OA
ATOM      3  C   UNL     1       4.639   3.102  19.652  0.00  0.00    +0.000 A 
ATOM      4  C   UNL     1       5.391   4.032  18.799  0.00  0.00    +0.000 A 
ATOM      5  C   UNL     1       4.795   5.131  18.318  0.00  0.00    +0.000 A 
ATOM      6  N   UNL     1       3.474   5.428  18.595  0.00  0.00    +0.000 NA
ATOM      7  C   UNL     1       2.803   4.612  19.354  0.00  0.00    +0.000 A 
ATOM      8  C   UNL     1       1.370   4.912  19.668  0.00  0.00    +0.000 A 
ATOM      9  C   UNL     1       0.666   4.083  20.450  0.00  0.00    +0.000 A 
ATOM     10  C   UNL     1       1.275   2.900  20.996  0.00  0.00    +0.000 A 
ATOM     11  C   UNL     1       2.553   2.622  20.716  0.00  0.00    +0.000 A 
ATOM     12  N   UNL     1       3.323   3.449  19.908  0.00  0.00    +0.000 N 
ENDBRANCH   1   5
BRANCH   1  13
ATOM     13  N   UNL     1       6.055   5.631  16.183  0.00  0.00    +0.000 N 
ATOM     14  N   UNL     1       7.335   5.844  15.836  0.00  0.00    +0.000 NA
ATOM     15  N   UNL     1       7.488   5.200  14.688  0.00  0.00    +0.000 NA
ATOM     16  C   UNL     1       6.276   4.619  14.384  0.00  0.00    +0.000 A 
ATOM     17  N   UNL     1       5.339   4.876  15.317  0.00  0.00    +0.000 NA
BRANCH  16  18
ATOM     18  C   UNL     1       6.082   3.792  13.196  0.00  0.00    +0.000 A 
ATOM     19  C   UNL     1       7.166   3.153  12.568  0.00  0.00    +0.000 A 
ATOM     20  C   UNL     1       6.978   2.393  11.407  0.00  0.00    +0.000 A 
ATOM     21  C   UNL     1       5.703   2.260  10.861  0.00  0.00    +0.000 A 
ATOM     22  C   UNL     1       4.627   2.879  11.486  0.00  0.00    +0.000 A 
ATOM     23  F   UNL     1       3.402   2.751  10.962  0.00  0.00    +0.000 F 
ATOM     24  C   UNL     1       4.803   3.635  12.643  0.00  0.00    +0.000 A 
ENDBRANCH  16  18
ENDBRANCH   1  13
TORSDOF 3
ENDMDL
MODEL 4
REMARK VINA RESULT:      -8.7      0.933      1.340
REMARK  Name = 
REMARK  3 active torsions:
REMARK  status: ('A' for Active; 'I' for Inactive)
REMARK    1  A    between atoms: C_4  and  C_5
REMARK    2  A    between atoms: C_5  and  N_6
REMARK    3  A    between atoms: C_9  and  C_10
REMARK                            x       y       z     vdW  Elec       q    Type
REMARK                         _______ _______ _______ _____ _____    ______ ____
ROOT
ATOM      1  C   UNL     1       6.685   4.992  17.783  0.00  0.00    +0.000 C 
ENDROOT
BRANCH   1   5
ATOM      2  O   UNL     1       2.339   6.971  18.607  0.00  0.00    +0.000 OA
ATOM      3  C   UNL     1       3.093   6.015  18.787  0.00  0.00    +0.000 A 
ATOM      4  C   UNL     1       4.434   6.054  18.188  0.00  0.00    +0.000 A 
ATOM      5  C   UNL     1       5.280   5.032  18.375  0.00  0.00    +0.000 A 
ATOM      6  N   UNL     1       4.936   3.923  19.125  0.00  0.00    +0.000 NA
ATOM      7  C   UNL     1       3.748   3.880  19.653  0.00  0.00    +0.000 A 
ATOM      8  C   UNL     1       3.351   2.690  20.471  0.00  0.00    +0.000 A 
ATOM      9  C   UNL     1       2.132   2.629  21.021  0.00  0.00    +0.000 A 
ATOM     10  C   UNL     1       1.191   3.700  20.833  0.00  0.00    +0.000 A 
ATOM     11  C   UNL     1       1.539   4.769  20.108  0.00  0.00    +0.000 A 
ATOM     12  N   UNL     1       2.793   4.880  19.520  0.00  0.00    +0.000 N 
ENDBRANCH   1   5
BRANCH   1  13
ATOM     13  N   UNL     1       6.762   4.915  16.329  0.00  0.00    +0.000 N 
ATOM     14  N   UNL     1       7.562   5.731  15.623  0.00  0.00    +0.000 NA
ATOM     15  N   UNL     1       7.410   5.349  14.364  0.00  0.00    +0.000 NA
ATOM     16  C   UNL     1       6.510   4.306  14.361  0.00  0.00    +0.000 A 
ATOM     17  N   UNL     1       6.075   4.004  15.600  0.00  0.00    +0.000 NA
BRANCH  16  18
ATOM     18  C   UNL     1       6.129   3.605  13.137  0.00  0.00    +0.000 A 
ATOM     19  C   UNL     1       7.074   2.888  12.384  0.00  0.00    +0.000 A 
ATOM     20  C   UNL     1       6.709   2.250  11.191  0.00  0.00    +0.000 A 
ATOM     21  C   UNL     1       5.394   2.321  10.739  0.00  0.00    +0.000 A 
ATOM     22  C   UNL     1       4.453   3.018  11.487  0.00  0.00    +0.000 A 
ATOM     23  F   UNL     1       3.188   3.086  11.053  0.00  0.00    +0.000 F 
ATOM     24  C   UNL     1       4.805   3.653  12.676  0.00  0.00    +0.000 A 
ENDBRANCH  16  18
ENDBRANCH   1  13
TORSDOF 3
ENDMDL
MODEL 5
REMARK VINA RESULT:      -8.6      5.061      7.050
REMARK  Name = 
REMARK  3 active torsions:
REMARK  status: ('A' for Active; 'I' for Inactive)
REMARK    1  A    between atoms: C_4  and  C_5
REMARK    2  A    between atoms: C_5  and  N_6
REMARK    3  A    between atoms: C_9  and  C_10
REMARK                            x       y       z     vdW  Elec       q    Type
REMARK                         _______ _______ _______ _____ _____    ______ ____
ROOT
ATOM      1  C   UNL     1       6.235   6.012  16.518  0.00  0.00    +0.000 C 
ENDROOT
BRANCH   1   5
ATOM      2  O   UNL     1       3.582   2.096  17.570  0.00  0.00    +0.000 OA
ATOM      3  C   UNL     1       3.799   3.288  17.784  0.00  0.00    +0.000 A 
ATOM      4  C   UNL     1       4.878   3.951  17.040  0.00  0.00    +0.000 A 
ATOM      5  C   UNL     1       5.131   5.251  17.245  0.00  0.00    +0.000 A 
ATOM      6  N   UNL     1       4.402   6.007  18.143  0.00  0.00    +0.000 NA
ATOM      7  C   UNL     1       3.449   5.424  18.809  0.00  0.00    +0.000 A 
ATOM      8  C   UNL     1       2.643   6.222  19.788  0.00  0.00    +0.000 A 
ATOM      9  C   UNL     1       1.659   5.636  20.483  0.00  0.00    +0.000 A 
ATOM     10  C   UNL     1       1.366   4.241  20.301  0.00  0.00    +0.000 A 
ATOM     11  C   UNL     1       2.077   3.522  19.425  0.00  0.00    +0.000 A 
ATOM     12  N   UNL     1       3.105   4.085  18.679  0.00  0.00    +0.000 N 
ENDBRANCH   1   5
BRANCH   1  13
ATOM     13  N   UNL     1       7.069   6.871  17.350  0.00  0.00    +0.000 N 
ATOM     14  N   UNL     1       7.823   6.372  18.344  0.00  0.00    +0.000 NA
ATOM     15  N   UNL     1       8.468   7.417  18.840  0.00  0.00    +0.000 NA
ATOM     16  C   UNL     1       8.069   8.520  18.118  0.00  0.00    +0.000 A 
ATOM     17  N   UNL     1       7.175   8.208  17.159  0.00  0.00    +0.000 NA
BRANCH  16  18
ATOM     18  C   UNL     1       8.610   9.854  18.366  0.00  0.00    +0.000 A 
ATOM     19  C   UNL     1       8.274  10.942  17.541  0.00  0.00    +0.000 A 
ATOM     20  C   UNL     1       8.827  12.210  17.763  0.00  0.00    +0.000 A 
ATOM     21  C   UNL     1       9.720  12.406  18.813  0.00  0.00    +0.000 A 
ATOM     22  C   UNL     1      10.043  11.337  19.640  0.00  0.00    +0.000 A 
ATOM     23  F   UNL     1      10.901  11.525  20.651  0.00  0.00    +0.000 F 
ATOM     24  C   UNL     1       9.498  10.072  19.430  0.00  0.00    +0.000 A 
ENDBRANCH  16  18
ENDBRANCH   1  13
TORSDOF 3
ENDMDL
MODEL 6
REMARK VINA RESULT:      -8.5      5.186      7.104
REMARK  Name = 
REMARK  3 active torsions:
REMARK  status: ('A' for Active; 'I' for Inactive)
REMARK    1  A    between atoms: C_4  and  C_5
REMARK    2  A    between atoms: C_5  and  N_6
REMARK    3  A    between atoms: C_9  and  C_10
REMARK                            x       y       z     vdW  Elec       q    Type
REMARK                         _______ _______ _______ _____ _____    ______ ____
ROOT
ATOM      1  C   UNL     1       6.583   6.081  16.617  0.00  0.00    +0.000 C 
ENDROOT
BRANCH   1   5
ATOM      2  O   UNL     1       2.132   6.911  18.342  0.00  0.00    +0.000 OA
ATOM      3  C   UNL     1       2.966   6.080  17.986  0.00  0.00    +0.000 A 
ATOM      4  C   UNL     1       4.273   6.554  17.512  0.00  0.00    +0.000 A 
ATOM      5  C   UNL     1       5.205   5.671  17.126  0.00  0.00    +0.000 A 
ATOM      6  N   UNL     1       4.982   4.308  17.160  0.00  0.00    +0.000 NA
ATOM      7  C   UNL     1       3.824   3.882  17.573  0.00  0.00    +0.000 A 
ATOM      8  C   UNL     1       3.558   2.409  17.619  0.00  0.00    +0.000 A 
ATOM      9  C   UNL     1       2.370   1.954  18.041  0.00  0.00    +0.000 A 
ATOM     10  C   UNL     1       1.341   2.870  18.451  0.00  0.00    +0.000 A 
ATOM     11  C   UNL     1       1.572   4.187  18.418  0.00  0.00    +0.000 A 
ATOM     12  N   UNL     1       2.788   4.707  17.991  0.00  0.00    +0.000 N 
ENDBRANCH   1   5
BRANCH   1  13
ATOM     13  N   UNL     1       7.340   6.979  17.480  0.00  0.00    +0.000 N 
ATOM     14  N   UNL     1       7.994   6.528  18.564  0.00  0.00    +0.000 NA
ATOM     15  N   UNL     1       8.595   7.596  19.067  0.00  0.00    +0.000 NA
ATOM     16  C   UNL     1       8.272   8.663  18.257  0.00  0.00    +0.000 A 
ATOM     17  N   UNL     1       7.470   8.305  17.236  0.00  0.00    +0.000 NA
BRANCH  16  18
ATOM     18  C   UNL     1       8.794  10.007  18.491  0.00  0.00    +0.000 A 
ATOM     19  C   UNL     1       8.472  11.073  17.633  0.00  0.00    +0.000 A 
ATOM     20  C   UNL     1       9.007  12.351  17.840  0.00  0.00    +0.000 A 
ATOM     21  C   UNL     1       9.869  12.579  18.910  0.00  0.00    +0.000 A 
ATOM     22  C   UNL     1      10.179  11.531  19.769  0.00  0.00    +0.000 A 
ATOM     23  F   UNL     1      11.007  11.749  20.799  0.00  0.00    +0.000 F 
ATOM     24  C   UNL     1       9.650  10.257  19.573  0.00  0.00    +0.000 A 
ENDBRANCH  16  18
ENDBRANCH   1  13
TORSDOF 3
ENDMDL
MODEL 7
REMARK VINA RESULT:      -8.5      4.741      6.809
REMARK  Name = 
REMARK  3 active torsions:
REMARK  status: ('A' for Active; 'I' for Inactive)
REMARK    1  A    between atoms: C_4  and  C_5
REMARK    2  A    between atoms: C_5  and  N_6
REMARK    3  A    between atoms: C_9  and  C_10
REMARK                            x       y       z     vdW  Elec       q    Type
REMARK                         _______ _______ _______ _____ _____    ______ ____
ROOT
ATOM      1  C   UNL     1       6.089   5.681  16.531  0.00  0.00    +0.000 C 
ENDROOT
BRANCH   1   5
ATOM      2  O   UNL     1       3.278   1.894  17.646  0.00  0.00    +0.000 OA
ATOM      3  C   UNL     1       3.553   3.076  17.850  0.00  0.00    +0.000 A 
ATOM      4  C   UNL     1       4.648   3.687  17.085  0.00  0.00    +0.000 A 
ATOM      5  C   UNL     1       4.963   4.975  17.280  0.00  0.00    +0.000 A 
ATOM      6  N   UNL     1       4.284   5.767  18.186  0.00  0.00    +0.000 NA
ATOM      7  C   UNL     1       3.317   5.230  18.870  0.00  0.00    +0.000 A 
ATOM      8  C   UNL     1       2.565   6.068  19.859  0.00  0.00    +0.000 A 
ATOM      9  C   UNL     1       1.567   5.531  20.573  0.00  0.00    +0.000 A 
ATOM     10  C   UNL     1       1.208   4.149  20.402  0.00  0.00    +0.000 A 
ATOM     11  C   UNL     1       1.871   3.395  19.518  0.00  0.00    +0.000 A 
ATOM     12  N   UNL     1       2.910   3.907  18.752  0.00  0.00    +0.000 N 
ENDBRANCH   1   5
BRANCH   1  13
ATOM     13  N   UNL     1       6.933   6.559  17.333  0.00  0.00    +0.000 N 
ATOM     14  N   UNL     1       7.703   6.080  18.325  0.00  0.00    +0.000 NA
ATOM     15  N   UNL     1       8.353   7.137  18.790  0.00  0.00    +0.000 NA
ATOM     16  C   UNL     1       7.940   8.225  18.053  0.00  0.00    +0.000 A 
ATOM     17  N   UNL     1       7.032   7.891  17.115  0.00  0.00    +0.000 NA
BRANCH  16  18
ATOM     18  C   UNL     1       8.481   9.565  18.268  0.00  0.00    +0.000 A 
ATOM     19  C   UNL     1       9.444   9.812  19.261  0.00  0.00    +0.000 A 
ATOM     20  C   UNL     1       9.930  11.107  19.486  0.00  0.00    +0.000 A 
ATOM     21  C   UNL     1       9.458  12.169  18.720  0.00  0.00    +0.000 A 
ATOM     22  C   UNL     1       8.516  11.928  17.728  0.00  0.00    +0.000 A 
ATOM     23  F   UNL     1       8.063  12.949  16.990  0.00  0.00    +0.000 F 
ATOM     24  C   UNL     1       8.028  10.644  17.493  0.00  0.00    +0.000 A 
ENDBRANCH  16  18
ENDBRANCH   1  13
TORSDOF 3
ENDMDL
MODEL 8
REMARK VINA RESULT:      -8.3      5.794      8.769
REMARK  Name = 
REMARK  3 active torsions:
REMARK  status: ('A' for Active; 'I' for Inactive)
REMARK    1  A    between atoms: C_4  and  C_5
REMARK    2  A    between atoms: C_5  and  N_6
REMARK    3  A    between atoms: C_9  and  C_10
REMARK                            x       y       z     vdW  Elec       q    Type
REMARK                         _______ _______ _______ _____ _____    ______ ____
ROOT
ATOM      1  C   UNL     1       3.093   7.576  17.534  0.00  0.00    +0.000 C 
ENDROOT
BRANCH   1   5
ATOM      2  O   UNL     1       5.752   3.942  19.325  0.00  0.00    +0.000 OA
ATOM      3  C   UNL     1       4.645   4.473  19.243  0.00  0.00    +0.000 A 
ATOM      4  C   UNL     1       4.511   5.701  18.449  0.00  0.00    +0.000 A 
ATOM      5  C   UNL     1       3.316   6.297  18.334  0.00  0.00    +0.000 A 
ATOM      6  N   UNL     1       2.183   5.790  18.943  0.00  0.00    +0.000 NA
ATOM      7  C   UNL     1       2.296   4.705  19.651  0.00  0.00    +0.000 A 
ATOM      8  C   UNL     1       1.083   4.135  20.321  0.00  0.00    +0.000 A 
ATOM      9  C   UNL     1       1.183   3.020  21.056  0.00  0.00    +0.000 A 
ATOM     10  C   UNL     1       2.450   2.360  21.213  0.00  0.00    +0.000 A 
ATOM     11  C   UNL     1       3.538   2.859  20.615  0.00  0.00    +0.000 A 
ATOM     12  N   UNL     1       3.485   4.011  19.840  0.00  0.00    +0.000 N 
ENDBRANCH   1   5
BRANCH   1  13
ATOM     13  N   UNL     1       2.286   8.601  18.185  0.00  0.00    +0.000 N 
ATOM     14  N   UNL     1       1.913   9.719  17.539  0.00  0.00    +0.000 NA
ATOM     15  N   UNL     1       1.166  10.381  18.410  0.00  0.00    +0.000 NA
ATOM     16  C   UNL     1       1.121   9.628  19.562  0.00  0.00    +0.000 A 
ATOM     17  N   UNL     1       1.827   8.486  19.454  0.00  0.00    +0.000 NA
BRANCH  16  18
ATOM     18  C   UNL     1       0.349  10.037  20.733  0.00  0.00    +0.000 A 
ATOM     19  C   UNL     1      -0.572  11.098  20.665  0.00  0.00    +0.000 A 
ATOM     20  C   UNL     1      -1.280  11.509  21.802  0.00  0.00    +0.000 A 
ATOM     21  C   UNL     1      -1.077  10.864  23.019  0.00  0.00    +0.000 A 
ATOM     22  C   UNL     1      -0.178   9.806  23.087  0.00  0.00    +0.000 A 
ATOM     23  F   UNL     1       0.016   9.184  24.258  0.00  0.00    +0.000 F 
ATOM     24  C   UNL     1       0.529   9.387  21.963  0.00  0.00    +0.000 A 
ENDBRANCH  16  18
ENDBRANCH   1  13
TORSDOF 3
ENDMDL
MODEL 9
REMARK VINA RESULT:      -8.3      4.961      6.943
REMARK  Name = 
REMARK  3 active torsions:
REMARK  status: ('A' for Active; 'I' for Inactive)
REMARK    1  A    between atoms: C_4  and  C_5
REMARK    2  A    between atoms: C_5  and  N_6
REMARK    3  A    between atoms: C_9  and  C_10
REMARK                            x       y       z     vdW  Elec       q    Type
REMARK                         _______ _______ _______ _____ _____    ______ ____
ROOT
ATOM      1  C   UNL     1       6.602   5.906  16.691  0.00  0.00    +0.000 C 
ENDROOT
BRANCH   1   5
ATOM      2  O   UNL     1       2.145   6.846  18.343  0.00  0.00    +0.000 OA
ATOM      3  C   UNL     1       2.970   5.994  18.018  0.00  0.00    +0.000 A 
ATOM      4  C   UNL     1       4.290   6.436  17.548  0.00  0.00    +0.000 A 
ATOM      5  C   UNL     1       5.212   5.530  17.195  0.00  0.00    +0.000 A 
ATOM      6  N   UNL     1       4.968   4.171  17.260  0.00  0.00    +0.000 NA
ATOM      7  C   UNL     1       3.800   3.774  17.671  0.00  0.00    +0.000 A 
ATOM      8  C   UNL     1       3.510   2.306  17.751  0.00  0.00    +0.000 A 
ATOM      9  C   UNL     1       2.312   1.880  18.171  0.00  0.00    +0.000 A 
ATOM     10  C   UNL     1       1.292   2.821  18.545  0.00  0.00    +0.000 A 
ATOM     11  C   UNL     1       1.543   4.134  18.481  0.00  0.00    +0.000 A 
ATOM     12  N   UNL     1       2.771   4.624  18.056  0.00  0.00    +0.000 N 
ENDBRANCH   1   5
BRANCH   1  13
ATOM     13  N   UNL     1       7.340   6.858  17.512  0.00  0.00    +0.000 N 
ATOM     14  N   UNL     1       7.995   6.473  18.620  0.00  0.00    +0.000 NA
ATOM     15  N   UNL     1       8.577   7.574  19.071  0.00  0.00    +0.000 NA
ATOM     16  C   UNL     1       8.244   8.593  18.206  0.00  0.00    +0.000 A 
ATOM     17  N   UNL     1       7.453   8.171  17.200  0.00  0.00    +0.000 NA
BRANCH  16  18
ATOM     18  C   UNL     1       8.745   9.955  18.373  0.00  0.00    +0.000 A 
ATOM     19  C   UNL     1       9.745  10.254  19.315  0.00  0.00    +0.000 A 
ATOM     20  C   UNL     1      10.193  11.569  19.497  0.00  0.00    +0.000 A 
ATOM     21  C   UNL     1       9.648  12.600  18.736  0.00  0.00    +0.000 A 
ATOM     22  C   UNL     1       8.669  12.308  17.794  0.00  0.00    +0.000 A 
ATOM     23  F   UNL     1       8.145  13.299  17.062  0.00  0.00    +0.000 F 
ATOM     24  C   UNL     1       8.218  11.003  17.604  0.00  0.00    +0.000 A 
ENDBRANCH  16  18
ENDBRANCH   1  13
TORSDOF 3
ENDMDL
