MODEL 1
REMARK VINA RESULT:     -10.3      0.000      0.000
REMARK  Name = 
REMARK  3 active torsions:
REMARK  status: ('A' for Active; 'I' for Inactive)
REMARK    1  A    between atoms: C_2  and  C_3
REMARK    2  A    between atoms: C_19  and  C_20
REMARK    3  A    between atoms: C_20  and  C_21
REMARK                            x       y       z     vdW  Elec       q    Type
REMARK                         _______ _______ _______ _____ _____    ______ ____
ROOT
ATOM      1  O   UNL     1       4.754   2.046  19.684  0.00  0.00    +0.000 OA
ATOM      2  C   UNL     1       4.344   3.169  19.386  0.00  0.00    +0.000 C 
ATOM      3  N   UNL     1       3.232   3.721  20.024  0.00  0.00    +0.000 N 
ATOM      4  C   UNL     1       2.595   2.969  21.097  0.00  0.00    +0.000 C 
ATOM      5  C   UNL     1       1.119   3.246  20.900  0.00  0.00    +0.000 C 
ATOM      6  C   UNL     1       1.112   4.713  20.499  0.00  0.00    +0.000 C 
ATOM      7  C   UNL     1       2.402   4.889  19.675  0.00  0.00    +0.000 C 
ENDROOT
BRANCH   2   8
ATOM      8  C   UNL     1       5.144   3.915  18.369  0.00  0.00    +0.000 A 
ATOM      9  C   UNL     1       6.013   4.975  18.647  0.00  0.00    +0.000 A 
ATOM     10  C   UNL     1       6.869   5.493  17.674  0.00  0.00    +0.000 A 
ATOM     11  C   UNL     1       6.763   5.040  16.368  0.00  0.00    +0.000 A 
ATOM     12  N   UNL     1       7.592   5.577  15.389  0.00  0.00    +0.000 N 
ATOM     13  C   UNL     1       7.504   5.234  14.060  0.00  0.00    +0.000 A 
ATOM     14  O   UNL     1       8.225   5.748  13.219  0.00  0.00    +0.000 OA
ATOM     15  C   UNL     1       6.445   4.169  13.686  0.00  0.00    +0.000 A 
ATOM     16  O   UNL     1       6.291   3.801  12.528  0.00  0.00    +0.000 OA
ATOM     17  N   UNL     1       5.686   3.654  14.713  0.00  0.00    +0.000 N 
ATOM     18  C   UNL     1       5.820   4.065  16.041  0.00  0.00    +0.000 A 
ATOM     19  C   UNL     1       5.019   3.498  17.033  0.00  0.00    +0.000 A 
ATOM     20  H   UNL     1       8.283   6.280  15.618  0.00  0.00    +0.000 HD
ATOM     21  H   UNL     1       4.998   2.963  14.454  0.00  0.00    +0.000 HD
ENDBRANCH   2   8
BRANCH   7  22
ATOM     22  C   UNL     1       3.068   6.248  19.966  0.00  0.00    +0.000 C 
BRANCH  22  23
ATOM     23  C   UNL     1       2.286   7.440  19.456  0.00  0.00    +0.000 A 
ATOM     24  C   UNL     1       2.327   7.841  18.111  0.00  0.00    +0.000 A 
ATOM     25  C   UNL     1       1.610   8.961  17.675  0.00  0.00    +0.000 A 
ATOM     26  C   UNL     1       0.845   9.696  18.581  0.00  0.00    +0.000 A 
ATOM     27  C   UNL     1       0.807   9.300  19.912  0.00  0.00    +0.000 A 
ATOM     28  F   UNL     1       0.076  10.003  20.788  0.00  0.00    +0.000 F 
ATOM     29  C   UNL     1       1.517   8.191  20.357  0.00  0.00    +0.000 A 
ENDBRANCH  22  23
ENDBRANCH   7  22
TORSDOF 3
ENDMDL
MODEL 2
REMARK VINA RESULT:      -9.7      0.751      1.210
REMARK  Name = 
REMARK  3 active torsions:
REMARK  status: ('A' for Active; 'I' for Inactive)
REMARK    1  A    between atoms: C_2  and  C_3
REMARK    2  A    between atoms: C_19  and  C_20
REMARK    3  A    between atoms: C_20  and  C_21
REMARK                            x       y       z     vdW  Elec       q    Type
REMARK                         _______ _______ _______ _____ _____    ______ ____
ROOT
ATOM      1  O   UNL     1       4.712   2.019  19.660  0.00  0.00    +0.000 OA
ATOM      2  C   UNL     1       4.317   3.150  19.370  0.00  0.00    +0.000 C 
ATOM      3  N   UNL     1       3.218   3.715  20.017  0.00  0.00    +0.000 N 
ATOM      4  C   UNL     1       2.575   2.967  21.090  0.00  0.00    +0.000 C 
ATOM      5  C   UNL     1       1.102   3.268  20.903  0.00  0.00    +0.000 C 
ATOM      6  C   UNL     1       1.116   4.737  20.510  0.00  0.00    +0.000 C 
ATOM      7  C   UNL     1       2.404   4.897  19.679  0.00  0.00    +0.000 C 
ENDROOT
BRANCH   2   8
ATOM      8  C   UNL     1       5.123   3.889  18.353  0.00  0.00    +0.000 A 
ATOM      9  C   UNL     1       5.978   4.961  18.626  0.00  0.00    +0.000 A 
ATOM     10  C   UNL     1       6.841   5.474  17.657  0.00  0.00    +0.000 A 
ATOM     11  C   UNL     1       6.757   5.000  16.356  0.00  0.00    +0.000 A 
ATOM     12  N   UNL     1       7.593   5.532  15.379  0.00  0.00    +0.000 N 
ATOM     13  C   UNL     1       7.525   5.168  14.055  0.00  0.00    +0.000 A 
ATOM     14  O   UNL     1       8.252   5.677  13.216  0.00  0.00    +0.000 OA
ATOM     15  C   UNL     1       6.481   4.087  13.683  0.00  0.00    +0.000 A 
ATOM     16  O   UNL     1       6.346   3.701  12.529  0.00  0.00    +0.000 OA
ATOM     17  N   UNL     1       5.715   3.580  14.708  0.00  0.00    +0.000 N 
ATOM     18  C   UNL     1       5.827   4.011  16.032  0.00  0.00    +0.000 A 
ATOM     19  C   UNL     1       5.019   3.451  17.021  0.00  0.00    +0.000 A 
ATOM     20  H   UNL     1       8.274   6.245  15.607  0.00  0.00    +0.000 HD
ATOM     21  H   UNL     1       5.036   2.878  14.450  0.00  0.00    +0.000 HD
ENDBRANCH   2   8
BRANCH   7  22
ATOM     22  C   UNL     1       3.092   6.245  19.973  0.00  0.00    +0.000 C 
BRANCH  22  23
ATOM     23  C   UNL     1       2.162   7.438  19.913  0.00  0.00    +0.000 A 
ATOM     24  C   UNL     1       1.398   7.847  21.016  0.00  0.00    +0.000 A 
ATOM     25  C   UNL     1       0.530   8.941  20.921  0.00  0.00    +0.000 A 
ATOM     26  C   UNL     1       0.416   9.639  19.719  0.00  0.00    +0.000 A 
ATOM     27  C   UNL     1       1.171   9.233  18.627  0.00  0.00    +0.000 A 
ATOM     28  F   UNL     1       1.064   9.898  17.468  0.00  0.00    +0.000 F 
ATOM     29  C   UNL     1       2.033   8.146  18.708  0.00  0.00    +0.000 A 
ENDBRANCH  22  23
ENDBRANCH   7  22
TORSDOF 3
ENDMDL
MODEL 3
REMARK VINA RESULT:      -9.0      3.853      7.086
REMARK  Name = 
REMARK  3 active torsions:
REMARK  status: ('A' for Active; 'I' for Inactive)
REMARK    1  A    between atoms: C_2  and  C_3
REMARK    2  A    between atoms: C_19  and  C_20
REMARK    3  A    between atoms: C_20  and  C_21
REMARK                            x       y       z     vdW  Elec       q    Type
REMARK                         _______ _______ _______ _____ _____    ______ ____
ROOT
ATOM      1  O   UNL     1       1.155   4.424  17.460  0.00  0.00    +0.000 OA
ATOM      2  C   UNL     1       2.067   4.851  18.171  0.00  0.00    +0.000 C 
ATOM      3  N   UNL     1       3.143   4.036  18.524  0.00  0.00    +0.000 N 
ATOM      4  C   UNL     1       3.204   2.682  17.987  0.00  0.00    +0.000 C 
ATOM      5  C   UNL     1       3.759   1.867  19.137  0.00  0.00    +0.000 C 
ATOM      6  C   UNL     1       4.795   2.806  19.734  0.00  0.00    +0.000 C 
ATOM      7  C   UNL     1       4.187   4.210  19.551  0.00  0.00    +0.000 C 
ENDROOT
BRANCH   2   8
ATOM      8  C   UNL     1       1.983   6.290  18.560  0.00  0.00    +0.000 A 
ATOM      9  C   UNL     1       2.098   7.371  17.680  0.00  0.00    +0.000 A 
ATOM     10  C   UNL     1       1.817   8.676  18.084  0.00  0.00    +0.000 A 
ATOM     11  C   UNL     1       1.546   8.928  19.421  0.00  0.00    +0.000 A 
ATOM     12  N   UNL     1       1.297  10.233  19.834  0.00  0.00    +0.000 N 
ATOM     13  C   UNL     1       1.090  10.577  21.149  0.00  0.00    +0.000 A 
ATOM     14  O   UNL     1       0.906  11.737  21.483  0.00  0.00    +0.000 OA
ATOM     15  C   UNL     1       1.105   9.423  22.180  0.00  0.00    +0.000 A 
ATOM     16  O   UNL     1       0.932   9.631  23.374  0.00  0.00    +0.000 OA
ATOM     17  N   UNL     1       1.320   8.153  21.694  0.00  0.00    +0.000 N 
ATOM     18  C   UNL     1       1.542   7.880  20.342  0.00  0.00    +0.000 A 
ATOM     19  C   UNL     1       1.750   6.567  19.918  0.00  0.00    +0.000 A 
ATOM     20  H   UNL     1       1.293  10.998  19.172  0.00  0.00    +0.000 HD
ATOM     21  H   UNL     1       1.331   7.410  22.378  0.00  0.00    +0.000 HD
ENDBRANCH   2   8
BRANCH   7  22
ATOM     22  C   UNL     1       5.272   5.242  19.184  0.00  0.00    +0.000 C 
BRANCH  22  23
ATOM     23  C   UNL     1       5.643   5.252  17.716  0.00  0.00    +0.000 A 
ATOM     24  C   UNL     1       6.577   4.356  17.175  0.00  0.00    +0.000 A 
ATOM     25  C   UNL     1       6.916   4.406  15.818  0.00  0.00    +0.000 A 
ATOM     26  C   UNL     1       6.324   5.356  14.986  0.00  0.00    +0.000 A 
ATOM     27  C   UNL     1       5.400   6.244  15.522  0.00  0.00    +0.000 A 
ATOM     28  F   UNL     1       4.830   7.160  14.728  0.00  0.00    +0.000 F 
ATOM     29  C   UNL     1       5.059   6.206  16.868  0.00  0.00    +0.000 A 
ENDBRANCH  22  23
ENDBRANCH   7  22
TORSDOF 3
ENDMDL
MODEL 4
REMARK VINA RESULT:      -8.6      4.115      7.167
REMARK  Name = 
REMARK  3 active torsions:
REMARK  status: ('A' for Active; 'I' for Inactive)
REMARK    1  A    between atoms: C_2  and  C_3
REMARK    2  A    between atoms: C_19  and  C_20
REMARK    3  A    between atoms: C_20  and  C_21
REMARK                            x       y       z     vdW  Elec       q    Type
REMARK                         _______ _______ _______ _____ _____    ______ ____
ROOT
ATOM      1  O   UNL     1       1.098   4.384  17.477  0.00  0.00    +0.000 OA
ATOM      2  C   UNL     1       2.022   4.810  18.172  0.00  0.00    +0.000 C 
ATOM      3  N   UNL     1       3.098   3.991  18.516  0.00  0.00    +0.000 N 
ATOM      4  C   UNL     1       3.143   2.633  17.988  0.00  0.00    +0.000 C 
ATOM      5  C   UNL     1       3.708   1.822  19.136  0.00  0.00    +0.000 C 
ATOM      6  C   UNL     1       4.758   2.758  19.712  0.00  0.00    +0.000 C 
ATOM      7  C   UNL     1       4.157   4.165  19.528  0.00  0.00    +0.000 C 
ENDROOT
BRANCH   2   8
ATOM      8  C   UNL     1       1.952   6.253  18.552  0.00  0.00    +0.000 A 
ATOM      9  C   UNL     1       2.059   7.326  17.663  0.00  0.00    +0.000 A 
ATOM     10  C   UNL     1       1.792   8.636  18.063  0.00  0.00    +0.000 A 
ATOM     11  C   UNL     1       1.544   8.899  19.402  0.00  0.00    +0.000 A 
ATOM     12  N   UNL     1       1.309  10.208  19.810  0.00  0.00    +0.000 N 
ATOM     13  C   UNL     1       1.125  10.561  21.125  0.00  0.00    +0.000 A 
ATOM     14  O   UNL     1       0.952  11.725  21.455  0.00  0.00    +0.000 OA
ATOM     15  C   UNL     1       1.150   9.415  22.164  0.00  0.00    +0.000 A 
ATOM     16  O   UNL     1       0.997   9.632  23.360  0.00  0.00    +0.000 OA
ATOM     17  N   UNL     1       1.350   8.140  21.684  0.00  0.00    +0.000 N 
ATOM     18  C   UNL     1       1.548   7.857  20.330  0.00  0.00    +0.000 A 
ATOM     19  C   UNL     1       1.743   6.540  19.912  0.00  0.00    +0.000 A 
ATOM     20  H   UNL     1       1.298  10.968  19.142  0.00  0.00    +0.000 HD
ATOM     21  H   UNL     1       1.368   7.403  22.373  0.00  0.00    +0.000 HD
ENDBRANCH   2   8
BRANCH   7  22
ATOM     22  C   UNL     1       5.242   5.188  19.139  0.00  0.00    +0.000 C 
BRANCH  22  23
ATOM     23  C   UNL     1       5.433   5.348  17.646  0.00  0.00    +0.000 A 
ATOM     24  C   UNL     1       5.091   6.530  16.970  0.00  0.00    +0.000 A 
ATOM     25  C   UNL     1       5.259   6.637  15.585  0.00  0.00    +0.000 A 
ATOM     26  C   UNL     1       5.769   5.562  14.858  0.00  0.00    +0.000 A 
ATOM     27  C   UNL     1       6.105   4.392  15.527  0.00  0.00    +0.000 A 
ATOM     28  F   UNL     1       6.594   3.354  14.834  0.00  0.00    +0.000 F 
ATOM     29  C   UNL     1       5.940   4.272  16.901  0.00  0.00    +0.000 A 
ENDBRANCH  22  23
ENDBRANCH   7  22
TORSDOF 3
ENDMDL
MODEL 5
REMARK VINA RESULT:      -8.1      2.423      3.196
REMARK  Name = 
REMARK  3 active torsions:
REMARK  status: ('A' for Active; 'I' for Inactive)
REMARK    1  A    between atoms: C_2  and  C_3
REMARK    2  A    between atoms: C_19  and  C_20
REMARK    3  A    between atoms: C_20  and  C_21
REMARK                            x       y       z     vdW  Elec       q    Type
REMARK                         _______ _______ _______ _____ _____    ______ ____
ROOT
ATOM      1  O   UNL     1       4.089   1.649  17.917  0.00  0.00    +0.000 OA
ATOM      2  C   UNL     1       3.690   2.775  18.220  0.00  0.00    +0.000 C 
ATOM      3  N   UNL     1       2.587   2.945  19.058  0.00  0.00    +0.000 N 
ATOM      4  C   UNL     1       1.946   1.764  19.623  0.00  0.00    +0.000 C 
ATOM      5  C   UNL     1       0.473   2.114  19.603  0.00  0.00    +0.000 C 
ATOM      6  C   UNL     1       0.481   3.586  19.984  0.00  0.00    +0.000 C 
ATOM      7  C   UNL     1       1.769   4.138  19.344  0.00  0.00    +0.000 C 
ENDROOT
BRANCH   2   8
ATOM      8  C   UNL     1       4.494   3.922  17.701  0.00  0.00    +0.000 A 
ATOM      9  C   UNL     1       4.288   4.560  16.474  0.00  0.00    +0.000 A 
ATOM     10  C   UNL     1       4.952   5.742  16.144  0.00  0.00    +0.000 A 
ATOM     11  C   UNL     1       5.937   6.226  16.993  0.00  0.00    +0.000 A 
ATOM     12  N   UNL     1       6.623   7.386  16.652  0.00  0.00    +0.000 N 
ATOM     13  C   UNL     1       7.659   7.892  17.402  0.00  0.00    +0.000 A 
ATOM     14  O   UNL     1       8.264   8.896  17.058  0.00  0.00    +0.000 OA
ATOM     15  C   UNL     1       8.020   7.125  18.697  0.00  0.00    +0.000 A 
ATOM     16  O   UNL     1       8.929   7.498  19.428  0.00  0.00    +0.000 OA
ATOM     17  N   UNL     1       7.273   6.006  18.990  0.00  0.00    +0.000 N 
ATOM     18  C   UNL     1       6.243   5.540  18.169  0.00  0.00    +0.000 A 
ATOM     19  C   UNL     1       5.524   4.400  18.529  0.00  0.00    +0.000 A 
ATOM     20  H   UNL     1       6.403   7.893  15.805  0.00  0.00    +0.000 HD
ATOM     21  H   UNL     1       7.522   5.514  19.835  0.00  0.00    +0.000 HD
ENDBRANCH   2   8
BRANCH   7  22
ATOM     22  C   UNL     1       2.451   5.169  20.265  0.00  0.00    +0.000 C 
BRANCH  22  23
ATOM     23  C   UNL     1       2.125   6.608  19.929  0.00  0.00    +0.000 A 
ATOM     24  C   UNL     1       1.494   7.465  20.844  0.00  0.00    +0.000 A 
ATOM     25  C   UNL     1       1.185   8.785  20.494  0.00  0.00    +0.000 A 
ATOM     26  C   UNL     1       1.502   9.262  19.222  0.00  0.00    +0.000 A 
ATOM     27  C   UNL     1       2.124   8.412  18.316  0.00  0.00    +0.000 A 
ATOM     28  F   UNL     1       2.429   8.864  17.092  0.00  0.00    +0.000 F 
ATOM     29  C   UNL     1       2.432   7.100  18.651  0.00  0.00    +0.000 A 
ENDBRANCH  22  23
ENDBRANCH   7  22
TORSDOF 3
ENDMDL
MODEL 6
REMARK VINA RESULT:      -8.1      1.382      1.939
REMARK  Name = 
REMARK  3 active torsions:
REMARK  status: ('A' for Active; 'I' for Inactive)
REMARK    1  A    between atoms: C_2  and  C_3
REMARK    2  A    between atoms: C_19  and  C_20
REMARK    3  A    between atoms: C_20  and  C_21
REMARK                            x       y       z     vdW  Elec       q    Type
REMARK                         _______ _______ _______ _____ _____    ______ ____
ROOT
ATOM      1  O   UNL     1       5.314   3.298  20.107  0.00  0.00    +0.000 OA
ATOM      2  C   UNL     1       4.631   3.517  19.104  0.00  0.00    +0.000 C 
ATOM      3  N   UNL     1       3.270   3.208  19.081  0.00  0.00    +0.000 N 
ATOM      4  C   UNL     1       2.651   2.675  20.289  0.00  0.00    +0.000 C 
ATOM      5  C   UNL     1       1.667   1.651  19.762  0.00  0.00    +0.000 C 
ATOM      6  C   UNL     1       1.122   2.331  18.516  0.00  0.00    +0.000 C 
ATOM      7  C   UNL     1       2.322   3.118  17.956  0.00  0.00    +0.000 C 
ENDROOT
BRANCH   2   8
ATOM      8  C   UNL     1       5.326   4.189  17.966  0.00  0.00    +0.000 A 
ATOM      9  C   UNL     1       6.055   5.379  18.056  0.00  0.00    +0.000 A 
ATOM     10  C   UNL     1       6.834   5.841  16.995  0.00  0.00    +0.000 A 
ATOM     11  C   UNL     1       6.782   5.179  15.777  0.00  0.00    +0.000 A 
ATOM     12  N   UNL     1       7.532   5.656  14.707  0.00  0.00    +0.000 N 
ATOM     13  C   UNL     1       7.482   5.101  13.451  0.00  0.00    +0.000 A 
ATOM     14  O   UNL     1       8.129   5.563  12.523  0.00  0.00    +0.000 OA
ATOM     15  C   UNL     1       6.566   3.867  13.271  0.00  0.00    +0.000 A 
ATOM     16  O   UNL     1       6.455   3.306  12.188  0.00  0.00    +0.000 OA
ATOM     17  N   UNL     1       5.883   3.428  14.382  0.00  0.00    +0.000 N 
ATOM     18  C   UNL     1       5.968   4.055  15.628  0.00  0.00    +0.000 A 
ATOM     19  C   UNL     1       5.250   3.555  16.714  0.00  0.00    +0.000 A 
ATOM     20  H   UNL     1       8.128   6.467  14.809  0.00  0.00    +0.000 HD
ATOM     21  H   UNL     1       5.286   2.625  14.249  0.00  0.00    +0.000 HD
ENDBRANCH   2   8
BRANCH   7  22
ATOM     22  C   UNL     1       1.879   4.482  17.390  0.00  0.00    +0.000 C 
BRANCH  22  23
ATOM     23  C   UNL     1       1.916   5.610  18.399  0.00  0.00    +0.000 A 
ATOM     24  C   UNL     1       1.585   5.417  19.749  0.00  0.00    +0.000 A 
ATOM     25  C   UNL     1       1.607   6.486  20.652  0.00  0.00    +0.000 A 
ATOM     26  C   UNL     1       1.959   7.763  20.214  0.00  0.00    +0.000 A 
ATOM     27  C   UNL     1       2.285   7.953  18.877  0.00  0.00    +0.000 A 
ATOM     28  F   UNL     1       2.622   9.178  18.450  0.00  0.00    +0.000 F 
ATOM     29  C   UNL     1       2.263   6.900  17.971  0.00  0.00    +0.000 A 
ENDBRANCH  22  23
ENDBRANCH   7  22
TORSDOF 3
ENDMDL
MODEL 7
REMARK VINA RESULT:      -8.1      2.261      2.945
REMARK  Name = 
REMARK  3 active torsions:
REMARK  status: ('A' for Active; 'I' for Inactive)
REMARK    1  A    between atoms: C_2  and  C_3
REMARK    2  A    between atoms: C_19  and  C_20
REMARK    3  A    between atoms: C_20  and  C_21
REMARK                            x       y       z     vdW  Elec       q    Type
REMARK                         _______ _______ _______ _____ _____    ______ ____
ROOT
ATOM      1  O   UNL     1       4.104   1.621  17.795  0.00  0.00    +0.000 OA
ATOM      2  C   UNL     1       3.698   2.743  18.102  0.00  0.00    +0.000 C 
ATOM      3  N   UNL     1       2.582   2.904  18.924  0.00  0.00    +0.000 N 
ATOM      4  C   UNL     1       1.936   1.716  19.469  0.00  0.00    +0.000 C 
ATOM      5  C   UNL     1       0.462   2.063  19.430  0.00  0.00    +0.000 C 
ATOM      6  C   UNL     1       0.460   3.532  19.823  0.00  0.00    +0.000 C 
ATOM      7  C   UNL     1       1.757   4.092  19.208  0.00  0.00    +0.000 C 
ENDROOT
BRANCH   2   8
ATOM      8  C   UNL     1       4.507   3.896  17.605  0.00  0.00    +0.000 A 
ATOM      9  C   UNL     1       4.316   4.546  16.381  0.00  0.00    +0.000 A 
ATOM     10  C   UNL     1       4.982   5.733  16.072  0.00  0.00    +0.000 A 
ATOM     11  C   UNL     1       5.956   6.209  16.939  0.00  0.00    +0.000 A 
ATOM     12  N   UNL     1       6.645   7.374  16.618  0.00  0.00    +0.000 N 
ATOM     13  C   UNL     1       7.670   7.873  17.386  0.00  0.00    +0.000 A 
ATOM     14  O   UNL     1       8.278   8.882  17.061  0.00  0.00    +0.000 OA
ATOM     15  C   UNL     1       8.016   7.093  18.678  0.00  0.00    +0.000 A 
ATOM     16  O   UNL     1       8.914   7.460  19.425  0.00  0.00    +0.000 OA
ATOM     17  N   UNL     1       7.266   5.971  18.950  0.00  0.00    +0.000 N 
ATOM     18  C   UNL     1       6.248   5.511  18.112  0.00  0.00    +0.000 A 
ATOM     19  C   UNL     1       5.526   4.367  18.450  0.00  0.00    +0.000 A 
ATOM     20  H   UNL     1       6.435   7.888  15.773  0.00  0.00    +0.000 HD
ATOM     21  H   UNL     1       7.505   5.471  19.793  0.00  0.00    +0.000 HD
ENDBRANCH   2   8
BRANCH   7  22
ATOM     22  C   UNL     1       2.422   5.117  20.148  0.00  0.00    +0.000 C 
BRANCH  22  23
ATOM     23  C   UNL     1       2.119   6.559  19.803  0.00  0.00    +0.000 A 
ATOM     24  C   UNL     1       2.469   7.122  18.566  0.00  0.00    +0.000 A 
ATOM     25  C   UNL     1       2.195   8.466  18.287  0.00  0.00    +0.000 A 
ATOM     26  C   UNL     1       1.568   9.263  19.244  0.00  0.00    +0.000 A 
ATOM     27  C   UNL     1       1.223   8.706  20.468  0.00  0.00    +0.000 A 
ATOM     28  F   UNL     1       0.622   9.468  21.392  0.00  0.00    +0.000 F 
ATOM     29  C   UNL     1       1.494   7.375  20.758  0.00  0.00    +0.000 A 
ENDBRANCH  22  23
ENDBRANCH   7  22
TORSDOF 3
ENDMDL
MODEL 8
REMARK VINA RESULT:      -7.9      4.468      7.384
REMARK  Name = 
REMARK  3 active torsions:
REMARK  status: ('A' for Active; 'I' for Inactive)
REMARK    1  A    between atoms: C_2  and  C_3
REMARK    2  A    between atoms: C_19  and  C_20
REMARK    3  A    between atoms: C_20  and  C_21
REMARK                            x       y       z     vdW  Elec       q    Type
REMARK                         _______ _______ _______ _____ _____    ______ ____
ROOT
ATOM      1  O   UNL     1       1.211   5.000  21.062  0.00  0.00    +0.000 OA
ATOM      2  C   UNL     1       2.018   5.268  20.170  0.00  0.00    +0.000 C 
ATOM      3  N   UNL     1       2.861   4.287  19.646  0.00  0.00    +0.000 N 
ATOM      4  C   UNL     1       2.731   2.918  20.130  0.00  0.00    +0.000 C 
ATOM      5  C   UNL     1       4.160   2.420  20.180  0.00  0.00    +0.000 C 
ATOM      6  C   UNL     1       4.766   3.036  18.929  0.00  0.00    +0.000 C 
ATOM      7  C   UNL     1       4.062   4.401  18.798  0.00  0.00    +0.000 C 
ENDROOT
BRANCH   2   8
ATOM      8  C   UNL     1       1.983   6.666  19.646  0.00  0.00    +0.000 A 
ATOM      9  C   UNL     1       2.290   7.043  18.335  0.00  0.00    +0.000 A 
ATOM     10  C   UNL     1       2.049   8.337  17.871  0.00  0.00    +0.000 A 
ATOM     11  C   UNL     1       1.621   9.308  18.764  0.00  0.00    +0.000 A 
ATOM     12  N   UNL     1       1.411  10.607  18.312  0.00  0.00    +0.000 N 
ATOM     13  C   UNL     1       1.055  11.642  19.145  0.00  0.00    +0.000 A 
ATOM     14  O   UNL     1       0.909  12.779  18.722  0.00  0.00    +0.000 OA
ATOM     15  C   UNL     1       0.852  11.294  20.639  0.00  0.00    +0.000 A 
ATOM     16  O   UNL     1       0.537  12.149  21.457  0.00  0.00    +0.000 OA
ATOM     17  N   UNL     1       1.041   9.981  21.007  0.00  0.00    +0.000 N 
ATOM     18  C   UNL     1       1.421   8.983  20.106  0.00  0.00    +0.000 A 
ATOM     19  C   UNL     1       1.592   7.671  20.547  0.00  0.00    +0.000 A 
ATOM     20  H   UNL     1       1.547  10.849  17.340  0.00  0.00    +0.000 HD
ATOM     21  H   UNL     1       0.909   9.770  21.985  0.00  0.00    +0.000 HD
ENDBRANCH   2   8
BRANCH   7  22
ATOM     22  C   UNL     1       3.767   4.736  17.323  0.00  0.00    +0.000 C 
BRANCH  22  23
ATOM     23  C   UNL     1       5.000   4.811  16.448  0.00  0.00    +0.000 A 
ATOM     24  C   UNL     1       6.085   5.647  16.754  0.00  0.00    +0.000 A 
ATOM     25  C   UNL     1       7.201   5.710  15.912  0.00  0.00    +0.000 A 
ATOM     26  C   UNL     1       7.245   4.938  14.752  0.00  0.00    +0.000 A 
ATOM     27  C   UNL     1       6.170   4.111  14.449  0.00  0.00    +0.000 A 
ATOM     28  F   UNL     1       6.206   3.368  13.334  0.00  0.00    +0.000 F 
ATOM     29  C   UNL     1       5.056   4.044  15.275  0.00  0.00    +0.000 A 
ENDBRANCH  22  23
ENDBRANCH   7  22
TORSDOF 3
ENDMDL
MODEL 9
REMARK VINA RESULT:      -7.9      3.837      6.978
REMARK  Name = 
REMARK  3 active torsions:
REMARK  status: ('A' for Active; 'I' for Inactive)
REMARK    1  A    between atoms: C_2  and  C_3
REMARK    2  A    between atoms: C_19  and  C_20
REMARK    3  A    between atoms: C_20  and  C_21
REMARK                            x       y       z     vdW  Elec       q    Type
REMARK                         _______ _______ _______ _____ _____    ______ ____
ROOT
ATOM      1  O   UNL     1       5.611   7.598  16.275  0.00  0.00    +0.000 OA
ATOM      2  C   UNL     1       4.990   6.657  16.775  0.00  0.00    +0.000 C 
ATOM      3  N   UNL     1       5.349   5.336  16.505  0.00  0.00    +0.000 N 
ATOM      4  C   UNL     1       6.513   5.083  15.665  0.00  0.00    +0.000 C 
ATOM      5  C   UNL     1       6.104   3.878  14.843  0.00  0.00    +0.000 C 
ATOM      6  C   UNL     1       5.336   3.038  15.852  0.00  0.00    +0.000 C 
ATOM      7  C   UNL     1       4.627   4.073  16.747  0.00  0.00    +0.000 C 
ENDROOT
BRANCH   2   8
ATOM      8  C   UNL     1       3.899   7.019  17.728  0.00  0.00    +0.000 A 
ATOM      9  C   UNL     1       3.628   6.359  18.931  0.00  0.00    +0.000 A 
ATOM     10  C   UNL     1       2.719   6.872  19.858  0.00  0.00    +0.000 A 
ATOM     11  C   UNL     1       1.968   7.989  19.524  0.00  0.00    +0.000 A 
ATOM     12  N   UNL     1       1.038   8.484  20.432  0.00  0.00    +0.000 N 
ATOM     13  C   UNL     1       0.206   9.542  20.151  0.00  0.00    +0.000 A 
ATOM     14  O   UNL     1      -0.622   9.933  20.959  0.00  0.00    +0.000 OA
ATOM     15  C   UNL     1       0.372  10.209  18.765  0.00  0.00    +0.000 A 
ATOM     16  O   UNL     1      -0.325  11.156  18.424  0.00  0.00    +0.000 OA
ATOM     17  N   UNL     1       1.338   9.690  17.933  0.00  0.00    +0.000 N 
ATOM     18  C   UNL     1       2.137   8.597  18.279  0.00  0.00    +0.000 A 
ATOM     19  C   UNL     1       3.100   8.124  17.387  0.00  0.00    +0.000 A 
ATOM     20  H   UNL     1       0.914   8.053  21.339  0.00  0.00    +0.000 HD
ATOM     21  H   UNL     1       1.432  10.131  17.030  0.00  0.00    +0.000 HD
ENDBRANCH   2   8
BRANCH   7  22
ATOM     22  C   UNL     1       4.617   3.621  18.221  0.00  0.00    +0.000 C 
BRANCH  22  23
ATOM     23  C   UNL     1       3.242   3.273  18.750  0.00  0.00    +0.000 A 
ATOM     24  C   UNL     1       2.107   3.253  17.927  0.00  0.00    +0.000 A 
ATOM     25  C   UNL     1       0.845   2.950  18.452  0.00  0.00    +0.000 A 
ATOM     26  C   UNL     1       0.705   2.664  19.810  0.00  0.00    +0.000 A 
ATOM     27  C   UNL     1       1.829   2.686  20.626  0.00  0.00    +0.000 A 
ATOM     28  F   UNL     1       1.701   2.415  21.931  0.00  0.00    +0.000 F 
ATOM     29  C   UNL     1       3.086   2.990  20.116  0.00  0.00    +0.000 A 
ENDBRANCH  22  23
ENDBRANCH   7  22
TORSDOF 3
ENDMDL
