MODEL 1
REMARK VINA RESULT:      -8.7      0.000      0.000
REMARK  Name = 
REMARK  7 active torsions:
REMARK  status: ('A' for Active; 'I' for Inactive)
REMARK    1  A    between atoms: C_1  and  C_2
REMARK    2  A    between atoms: C_5  and  C_6
REMARK    3  A    between atoms: C_6  and  N_7
REMARK    4  A    between atoms: C_6  and  C_21
REMARK    5  A    between atoms: C_8  and  C_10
REMARK    6  A    between atoms: C_10  and  O_11
REMARK    7  A    between atoms: O_11  and  C_12
REMARK                            x       y       z     vdW  Elec       q    Type
REMARK                         _______ _______ _______ _____ _____    ______ ____
ROOT
ATOM      1  N   UNL     1       2.534   7.431  18.434  0.00  0.00    +0.000 N 
ATOM      2  C   UNL     1       1.931   8.317  19.295  0.00  0.00    +0.000 C 
ATOM      3  O   UNL     1       1.974   8.191  20.517  0.00  0.00    +0.000 OA
ATOM      4  H   UNL     1       2.450   7.527  17.428  0.00  0.00    +0.000 HD
ENDROOT
BRANCH   1   5
ATOM      5  C   UNL     1       3.353   6.316  18.900  0.00  0.00    +0.000 C 
BRANCH   5  10
ATOM      6  C   UNL     1       7.389   4.722  14.958  0.00  0.00    +0.000 C 
ATOM      7  C   UNL     1       6.357   5.118  15.972  0.00  0.00    +0.000 A 
ATOM      8  C   UNL     1       6.314   4.523  17.236  0.00  0.00    +0.000 A 
ATOM      9  C   UNL     1       5.349   4.914  18.173  0.00  0.00    +0.000 A 
ATOM     10  C   UNL     1       4.404   5.907  17.866  0.00  0.00    +0.000 A 
ATOM     11  C   UNL     1       4.435   6.471  16.580  0.00  0.00    +0.000 A 
ATOM     12  C   UNL     1       5.404   6.089  15.650  0.00  0.00    +0.000 A 
ENDBRANCH   5  10
BRANCH   5  13
ATOM     13  C   UNL     1       2.465   5.131  19.293  0.00  0.00    +0.000 A 
ATOM     14  C   UNL     1       1.837   4.376  18.300  0.00  0.00    +0.000 A 
ATOM     15  C   UNL     1       0.972   3.351  18.672  0.00  0.00    +0.000 A 
ATOM     16  C   UNL     1       0.758   3.100  20.020  0.00  0.00    +0.000 A 
ATOM     17  C   UNL     1       1.434   3.877  20.948  0.00  0.00    +0.000 A 
ATOM     18  N   UNL     1       2.283   4.878  20.622  0.00  0.00    +0.000 NA
ENDBRANCH   5  13
ENDBRANCH   1   5
BRANCH   2  19
ATOM     19  C   UNL     1       1.212   9.485  18.622  0.00  0.00    +0.000 C 
BRANCH  19  20
ATOM     20  O   UNL     1       0.193   9.966  19.486  0.00  0.00    +0.000 OA
BRANCH  20  21
ATOM     21  C   UNL     1      -0.964  10.419  18.906  0.00  0.00    +0.000 A 
ATOM     22  C   UNL     1      -1.865  11.338  19.466  0.00  0.00    +0.000 A 
ATOM     23  C   UNL     1      -3.002  11.746  18.754  0.00  0.00    +0.000 A 
ATOM     24  C   UNL     1      -3.225  11.226  17.490  0.00  0.00    +0.000 A 
ATOM     25  C   UNL     1      -2.345  10.304  16.935  0.00  0.00    +0.000 A 
ATOM     26  C   UNL     1      -1.217   9.892  17.635  0.00  0.00    +0.000 A 
ATOM     27  C   UNL     1      -2.775   9.868  15.578  0.00  0.00    +0.000 C 
ATOM     28  C   UNL     1      -4.057  10.677  15.329  0.00  0.00    +0.000 C 
ATOM     29  C   UNL     1      -4.356  11.537  16.567  0.00  0.00    +0.000 C 
ENDBRANCH  20  21
ENDBRANCH  19  20
ENDBRANCH   2  19
TORSDOF 6
ENDMDL
MODEL 2
REMARK VINA RESULT:      -8.6      0.763      1.203
REMARK  Name = 
REMARK  7 active torsions:
REMARK  status: ('A' for Active; 'I' for Inactive)
REMARK    1  A    between atoms: C_1  and  C_2
REMARK    2  A    between atoms: C_5  and  C_6
REMARK    3  A    between atoms: C_6  and  N_7
REMARK    4  A    between atoms: C_6  and  C_21
REMARK    5  A    between atoms: C_8  and  C_10
REMARK    6  A    between atoms: C_10  and  O_11
REMARK    7  A    between atoms: O_11  and  C_12
REMARK                            x       y       z     vdW  Elec       q    Type
REMARK                         _______ _______ _______ _____ _____    ______ ____
ROOT
ATOM      1  N   UNL     1       2.529   7.245  18.016  0.00  0.00    +0.000 N 
ATOM      2  C   UNL     1       1.974   8.145  18.895  0.00  0.00    +0.000 C 
ATOM      3  O   UNL     1       2.096   8.046  20.114  0.00  0.00    +0.000 OA
ATOM      4  H   UNL     1       2.381   7.318  17.016  0.00  0.00    +0.000 HD
ENDROOT
BRANCH   1   5
ATOM      5  C   UNL     1       3.386   6.147  18.452  0.00  0.00    +0.000 C 
BRANCH   5  10
ATOM      6  C   UNL     1       6.739   4.142  14.081  0.00  0.00    +0.000 C 
ATOM      7  C   UNL     1       5.886   4.667  15.198  0.00  0.00    +0.000 A 
ATOM      8  C   UNL     1       5.510   6.012  15.254  0.00  0.00    +0.000 A 
ATOM      9  C   UNL     1       4.705   6.481  16.300  0.00  0.00    +0.000 A 
ATOM     10  C   UNL     1       4.260   5.615  17.314  0.00  0.00    +0.000 A 
ATOM     11  C   UNL     1       4.674   4.274  17.265  0.00  0.00    +0.000 A 
ATOM     12  C   UNL     1       5.468   3.805  16.216  0.00  0.00    +0.000 A 
ENDBRANCH   5  10
BRANCH   5  13
ATOM     13  C   UNL     1       2.544   5.030  19.078  0.00  0.00    +0.000 A 
ATOM     14  C   UNL     1       1.619   4.337  18.293  0.00  0.00    +0.000 A 
ATOM     15  C   UNL     1       0.806   3.379  18.890  0.00  0.00    +0.000 A 
ATOM     16  C   UNL     1       0.936   3.131  20.249  0.00  0.00    +0.000 A 
ATOM     17  C   UNL     1       1.891   3.842  20.959  0.00  0.00    +0.000 A 
ATOM     18  N   UNL     1       2.699   4.778  20.410  0.00  0.00    +0.000 NA
ENDBRANCH   5  13
ENDBRANCH   1   5
BRANCH   2  19
ATOM     19  C   UNL     1       1.204   9.293  18.245  0.00  0.00    +0.000 C 
BRANCH  19  20
ATOM     20  O   UNL     1       0.731  10.170  19.256  0.00  0.00    +0.000 OA
BRANCH  20  21
ATOM     21  C   UNL     1      -0.538  10.668  19.117  0.00  0.00    +0.000 A 
ATOM     22  C   UNL     1      -1.179  11.557  19.994  0.00  0.00    +0.000 A 
ATOM     23  C   UNL     1      -2.475  12.018  19.722  0.00  0.00    +0.000 A 
ATOM     24  C   UNL     1      -3.115  11.581  18.574  0.00  0.00    +0.000 A 
ATOM     25  C   UNL     1      -2.493  10.688  17.708  0.00  0.00    +0.000 A 
ATOM     26  C   UNL     1      -1.210  10.225  17.972  0.00  0.00    +0.000 A 
ATOM     27  C   UNL     1      -3.357  10.343  16.546  0.00  0.00    +0.000 C 
ATOM     28  C   UNL     1      -4.627  11.175  16.781  0.00  0.00    +0.000 C 
ATOM     29  C   UNL     1      -4.478  11.959  18.095  0.00  0.00    +0.000 C 
ENDBRANCH  20  21
ENDBRANCH  19  20
ENDBRANCH   2  19
TORSDOF 6
ENDMDL
MODEL 3
REMARK VINA RESULT:      -8.5      3.398      6.034
REMARK  Name = 
REMARK  7 active torsions:
REMARK  status: ('A' for Active; 'I' for Inactive)
REMARK    1  A    between atoms: C_1  and  C_2
REMARK    2  A    between atoms: C_5  and  C_6
REMARK    3  A    between atoms: C_6  and  N_7
REMARK    4  A    between atoms: C_6  and  C_21
REMARK    5  A    between atoms: C_8  and  C_10
REMARK    6  A    between atoms: C_10  and  O_11
REMARK    7  A    between atoms: O_11  and  C_12
REMARK                            x       y       z     vdW  Elec       q    Type
REMARK                         _______ _______ _______ _____ _____    ______ ____
ROOT
ATOM      1  N   UNL     1       4.951   4.425  16.956  0.00  0.00    +0.000 N 
ATOM      2  C   UNL     1       4.512   3.969  18.176  0.00  0.00    +0.000 C 
ATOM      3  O   UNL     1       5.275   3.554  19.046  0.00  0.00    +0.000 OA
ATOM      4  H   UNL     1       4.304   4.722  16.235  0.00  0.00    +0.000 HD
ENDROOT
BRANCH   1   5
ATOM      5  C   UNL     1       6.368   4.539  16.624  0.00  0.00    +0.000 C 
BRANCH   5  10
ATOM      6  C   UNL     1       8.764   9.371  18.924  0.00  0.00    +0.000 C 
ATOM      7  C   UNL     1       8.141   8.141  18.331  0.00  0.00    +0.000 A 
ATOM      8  C   UNL     1       7.301   8.218  17.216  0.00  0.00    +0.000 A 
ATOM      9  C   UNL     1       6.736   7.058  16.671  0.00  0.00    +0.000 A 
ATOM     10  C   UNL     1       6.998   5.796  17.230  0.00  0.00    +0.000 A 
ATOM     11  C   UNL     1       7.815   5.736  18.370  0.00  0.00    +0.000 A 
ATOM     12  C   UNL     1       8.386   6.892  18.907  0.00  0.00    +0.000 A 
ENDBRANCH   5  10
BRANCH   5  13
ATOM     13  C   UNL     1       6.564   4.493  15.105  0.00  0.00    +0.000 A 
ATOM     14  C   UNL     1       5.714   3.710  14.320  0.00  0.00    +0.000 A 
ATOM     15  C   UNL     1       5.951   3.614  12.952  0.00  0.00    +0.000 A 
ATOM     16  C   UNL     1       7.022   4.303  12.400  0.00  0.00    +0.000 A 
ATOM     17  C   UNL     1       7.808   5.077  13.238  0.00  0.00    +0.000 A 
ATOM     18  N   UNL     1       7.605   5.195  14.570  0.00  0.00    +0.000 NA
ENDBRANCH   5  13
ENDBRANCH   1   5
BRANCH   2  19
ATOM     19  C   UNL     1       2.999   4.030  18.383  0.00  0.00    +0.000 C 
BRANCH  19  20
ATOM     20  O   UNL     1       2.716   4.797  19.544  0.00  0.00    +0.000 OA
BRANCH  20  21
ATOM     21  C   UNL     1       2.381   6.114  19.365  0.00  0.00    +0.000 A 
ATOM     22  C   UNL     1       2.461   6.831  18.161  0.00  0.00    +0.000 A 
ATOM     23  C   UNL     1       2.056   8.173  18.102  0.00  0.00    +0.000 A 
ATOM     24  C   UNL     1       1.579   8.781  19.251  0.00  0.00    +0.000 A 
ATOM     25  C   UNL     1       1.512   8.081  20.451  0.00  0.00    +0.000 A 
ATOM     26  C   UNL     1       1.913   6.752  20.519  0.00  0.00    +0.000 A 
ATOM     27  C   UNL     1       0.980   8.922  21.559  0.00  0.00    +0.000 C 
ATOM     28  C   UNL     1       0.686  10.268  20.881  0.00  0.00    +0.000 C 
ATOM     29  C   UNL     1       1.088  10.183  19.400  0.00  0.00    +0.000 C 
ENDBRANCH  20  21
ENDBRANCH  19  20
ENDBRANCH   2  19
TORSDOF 6
ENDMDL
MODEL 4
REMARK VINA RESULT:      -8.5      5.666      8.417
REMARK  Name = 
REMARK  7 active torsions:
REMARK  status: ('A' for Active; 'I' for Inactive)
REMARK    1  A    between atoms: C_1  and  C_2
REMARK    2  A    between atoms: C_5  and  C_6
REMARK    3  A    between atoms: C_6  and  N_7
REMARK    4  A    between atoms: C_6  and  C_21
REMARK    5  A    between atoms: C_8  and  C_10
REMARK    6  A    between atoms: C_10  and  O_11
REMARK    7  A    between atoms: O_11  and  C_12
REMARK                            x       y       z     vdW  Elec       q    Type
REMARK                         _______ _______ _______ _____ _____    ______ ____
ROOT
ATOM      1  N   UNL     1       6.746   7.139  17.259  0.00  0.00    +0.000 N 
ATOM      2  C   UNL     1       7.771   7.492  18.104  0.00  0.00    +0.000 C 
ATOM      3  O   UNL     1       8.230   6.727  18.949  0.00  0.00    +0.000 OA
ATOM      4  H   UNL     1       6.350   7.798  16.598  0.00  0.00    +0.000 HD
ENDROOT
BRANCH   1   5
ATOM      5  C   UNL     1       6.177   5.795  17.233  0.00  0.00    +0.000 C 
BRANCH   5  10
ATOM      6  C   UNL     1       6.471   3.413  11.884  0.00  0.00    +0.000 C 
ATOM      7  C   UNL     1       6.408   4.023  13.253  0.00  0.00    +0.000 A 
ATOM      8  C   UNL     1       7.465   4.785  13.758  0.00  0.00    +0.000 A 
ATOM      9  C   UNL     1       7.384   5.355  15.035  0.00  0.00    +0.000 A 
ATOM     10  C   UNL     1       6.245   5.171  15.837  0.00  0.00    +0.000 A 
ATOM     11  C   UNL     1       5.206   4.373  15.333  0.00  0.00    +0.000 A 
ATOM     12  C   UNL     1       5.283   3.814  14.055  0.00  0.00    +0.000 A 
ENDBRANCH   5  10
BRANCH   5  13
ATOM     13  C   UNL     1       4.741   5.814  17.766  0.00  0.00    +0.000 A 
ATOM     14  C   UNL     1       3.940   6.940  17.562  0.00  0.00    +0.000 A 
ATOM     15  C   UNL     1       2.665   6.977  18.118  0.00  0.00    +0.000 A 
ATOM     16  C   UNL     1       2.217   5.891  18.857  0.00  0.00    +0.000 A 
ATOM     17  C   UNL     1       3.059   4.800  18.999  0.00  0.00    +0.000 A 
ATOM     18  N   UNL     1       4.302   4.730  18.470  0.00  0.00    +0.000 NA
ENDBRANCH   5  13
ENDBRANCH   1   5
BRANCH   2  19
ATOM     19  C   UNL     1       8.313   8.907  17.906  0.00  0.00    +0.000 C 
BRANCH  19  20
ATOM     20  O   UNL     1       9.052   9.289  19.056  0.00  0.00    +0.000 OA
BRANCH  20  21
ATOM     21  C   UNL     1       9.469  10.593  19.135  0.00  0.00    +0.000 A 
ATOM     22  C   UNL     1       9.426  11.407  20.276  0.00  0.00    +0.000 A 
ATOM     23  C   UNL     1       9.914  12.722  20.234  0.00  0.00    +0.000 A 
ATOM     24  C   UNL     1      10.437  13.205  19.046  0.00  0.00    +0.000 A 
ATOM     25  C   UNL     1      10.469  12.408  17.907  0.00  0.00    +0.000 A 
ATOM     26  C   UNL     1       9.985  11.106  17.939  0.00  0.00    +0.000 A 
ATOM     27  C   UNL     1      11.061  13.123  16.742  0.00  0.00    +0.000 C 
ATOM     28  C   UNL     1      11.435  14.498  17.315  0.00  0.00    +0.000 C 
ATOM     29  C   UNL     1      11.018  14.557  18.793  0.00  0.00    +0.000 C 
ENDBRANCH  20  21
ENDBRANCH  19  20
ENDBRANCH   2  19
TORSDOF 6
ENDMDL
MODEL 5
REMARK VINA RESULT:      -8.4      0.927      1.809
REMARK  Name = 
REMARK  7 active torsions:
REMARK  status: ('A' for Active; 'I' for Inactive)
REMARK    1  A    between atoms: C_1  and  C_2
REMARK    2  A    between atoms: C_5  and  C_6
REMARK    3  A    between atoms: C_6  and  N_7
REMARK    4  A    between atoms: C_6  and  C_21
REMARK    5  A    between atoms: C_8  and  C_10
REMARK    6  A    between atoms: C_10  and  O_11
REMARK    7  A    between atoms: O_11  and  C_12
REMARK                            x       y       z     vdW  Elec       q    Type
REMARK                         _______ _______ _______ _____ _____    ______ ____
ROOT
ATOM      1  N   UNL     1       2.329   7.468  18.010  0.00  0.00    +0.000 N 
ATOM      2  C   UNL     1       1.808   8.435  18.836  0.00  0.00    +0.000 C 
ATOM      3  O   UNL     1       1.945   8.411  20.057  0.00  0.00    +0.000 OA
ATOM      4  H   UNL     1       2.168   7.481  17.009  0.00  0.00    +0.000 HD
ENDROOT
BRANCH   1   5
ATOM      5  C   UNL     1       3.166   6.379  18.504  0.00  0.00    +0.000 C 
BRANCH   5  10
ATOM      6  C   UNL     1       6.901   4.426  14.429  0.00  0.00    +0.000 C 
ATOM      7  C   UNL     1       5.941   4.914  15.474  0.00  0.00    +0.000 A 
ATOM      8  C   UNL     1       5.483   4.071  16.490  0.00  0.00    +0.000 A 
ATOM      9  C   UNL     1       4.595   4.547  17.463  0.00  0.00    +0.000 A 
ATOM     10  C   UNL     1       4.142   5.878  17.438  0.00  0.00    +0.000 A 
ATOM     11  C   UNL     1       4.581   6.704  16.390  0.00  0.00    +0.000 A 
ATOM     12  C   UNL     1       5.476   6.231  15.428  0.00  0.00    +0.000 A 
ENDBRANCH   5  10
BRANCH   5  13
ATOM     13  C   UNL     1       2.295   5.240  19.044  0.00  0.00    +0.000 A 
ATOM     14  C   UNL     1       2.257   4.988  20.417  0.00  0.00    +0.000 A 
ATOM     15  C   UNL     1       1.523   3.902  20.887  0.00  0.00    +0.000 A 
ATOM     16  C   UNL     1       0.844   3.100  19.981  0.00  0.00    +0.000 A 
ATOM     17  C   UNL     1       0.911   3.426  18.636  0.00  0.00    +0.000 A 
ATOM     18  N   UNL     1       1.611   4.474  18.145  0.00  0.00    +0.000 NA
ENDBRANCH   5  13
ENDBRANCH   1   5
BRANCH   2  19
ATOM     19  C   UNL     1       1.055   9.558  18.123  0.00  0.00    +0.000 C 
BRANCH  19  20
ATOM     20  O   UNL     1       0.026  10.043  18.973  0.00  0.00    +0.000 OA
BRANCH  20  21
ATOM     21  C   UNL     1      -1.183  10.336  18.396  0.00  0.00    +0.000 A 
ATOM     22  C   UNL     1      -1.643   9.866  17.157  0.00  0.00    +0.000 A 
ATOM     23  C   UNL     1      -2.919  10.216  16.691  0.00  0.00    +0.000 A 
ATOM     24  C   UNL     1      -3.716  11.037  17.470  0.00  0.00    +0.000 A 
ATOM     25  C   UNL     1      -3.260  11.520  18.692  0.00  0.00    +0.000 A 
ATOM     26  C   UNL     1      -1.997  11.179  19.161  0.00  0.00    +0.000 A 
ATOM     27  C   UNL     1      -4.268  12.388  19.361  0.00  0.00    +0.000 C 
ATOM     28  C   UNL     1      -5.460  12.368  18.393  0.00  0.00    +0.000 C 
ATOM     29  C   UNL     1      -5.099  11.513  17.168  0.00  0.00    +0.000 C 
ENDBRANCH  20  21
ENDBRANCH  19  20
ENDBRANCH   2  19
TORSDOF 6
ENDMDL
MODEL 6
REMARK VINA RESULT:      -8.4      0.778      1.477
REMARK  Name = 
REMARK  7 active torsions:
REMARK  status: ('A' for Active; 'I' for Inactive)
REMARK    1  A    between atoms: C_1  and  C_2
REMARK    2  A    between atoms: C_5  and  C_6
REMARK    3  A    between atoms: C_6  and  N_7
REMARK    4  A    between atoms: C_6  and  C_21
REMARK    5  A    between atoms: C_8  and  C_10
REMARK    6  A    between atoms: C_10  and  O_11
REMARK    7  A    between atoms: O_11  and  C_12
REMARK                            x       y       z     vdW  Elec       q    Type
REMARK                         _______ _______ _______ _____ _____    ______ ____
ROOT
ATOM      1  N   UNL     1       2.369   7.461  18.369  0.00  0.00    +0.000 N 
ATOM      2  C   UNL     1       1.781   8.381  19.204  0.00  0.00    +0.000 C 
ATOM      3  O   UNL     1       1.836   8.298  20.429  0.00  0.00    +0.000 OA
ATOM      4  H   UNL     1       2.276   7.522  17.362  0.00  0.00    +0.000 HD
ENDROOT
BRANCH   1   5
ATOM      5  C   UNL     1       3.186   6.358  18.866  0.00  0.00    +0.000 C 
BRANCH   5  10
ATOM      6  C   UNL     1       7.305   4.803  14.994  0.00  0.00    +0.000 C 
ATOM      7  C   UNL     1       6.251   5.213  15.980  0.00  0.00    +0.000 A 
ATOM      8  C   UNL     1       5.343   6.235  15.689  0.00  0.00    +0.000 A 
ATOM      9  C   UNL     1       4.359   6.596  16.618  0.00  0.00    +0.000 A 
ATOM     10  C   UNL     1       4.263   5.945  17.860  0.00  0.00    +0.000 A 
ATOM     11  C   UNL     1       5.204   4.945  18.154  0.00  0.00    +0.000 A 
ATOM     12  C   UNL     1       6.178   4.578  17.223  0.00  0.00    +0.000 A 
ENDBRANCH   5  10
BRANCH   5  13
ATOM     13  C   UNL     1       2.299   5.170  19.252  0.00  0.00    +0.000 A 
ATOM     14  C   UNL     1       2.133   4.839  20.599  0.00  0.00    +0.000 A 
ATOM     15  C   UNL     1       1.388   3.712  20.934  0.00  0.00    +0.000 A 
ATOM     16  C   UNL     1       0.824   2.948  19.922  0.00  0.00    +0.000 A 
ATOM     17  C   UNL     1       1.014   3.351  18.610  0.00  0.00    +0.000 A 
ATOM     18  N   UNL     1       1.729   4.441  18.250  0.00  0.00    +0.000 NA
ENDBRANCH   5  13
ENDBRANCH   1   5
BRANCH   2  19
ATOM     19  C   UNL     1       1.062   9.530  18.498  0.00  0.00    +0.000 C 
BRANCH  19  20
ATOM     20  O   UNL     1       0.551  10.429  19.470  0.00  0.00    +0.000 OA
BRANCH  20  21
ATOM     21  C   UNL     1      -0.728  10.891  19.292  0.00  0.00    +0.000 A 
ATOM     22  C   UNL     1      -1.413  11.774  20.139  0.00  0.00    +0.000 A 
ATOM     23  C   UNL     1      -2.714  12.197  19.827  0.00  0.00    +0.000 A 
ATOM     24  C   UNL     1      -3.313  11.726  18.671  0.00  0.00    +0.000 A 
ATOM     25  C   UNL     1      -2.646  10.838  17.835  0.00  0.00    +0.000 A 
ATOM     26  C   UNL     1      -1.358  10.412  18.137  0.00  0.00    +0.000 A 
ATOM     27  C   UNL     1      -3.471  10.452  16.656  0.00  0.00    +0.000 C 
ATOM     28  C   UNL     1      -4.767  11.254  16.846  0.00  0.00    +0.000 C 
ATOM     29  C   UNL     1      -4.673  12.060  18.151  0.00  0.00    +0.000 C 
ENDBRANCH  20  21
ENDBRANCH  19  20
ENDBRANCH   2  19
TORSDOF 6
ENDMDL
MODEL 7
REMARK VINA RESULT:      -8.4      5.851      8.604
REMARK  Name = 
REMARK  7 active torsions:
REMARK  status: ('A' for Active; 'I' for Inactive)
REMARK    1  A    between atoms: C_1  and  C_2
REMARK    2  A    between atoms: C_5  and  C_6
REMARK    3  A    between atoms: C_6  and  N_7
REMARK    4  A    between atoms: C_6  and  C_21
REMARK    5  A    between atoms: C_8  and  C_10
REMARK    6  A    between atoms: C_10  and  O_11
REMARK    7  A    between atoms: O_11  and  C_12
REMARK                            x       y       z     vdW  Elec       q    Type
REMARK                         _______ _______ _______ _____ _____    ______ ____
ROOT
ATOM      1  N   UNL     1       6.867   7.165  17.222  0.00  0.00    +0.000 N 
ATOM      2  C   UNL     1       7.846   7.603  18.081  0.00  0.00    +0.000 C 
ATOM      3  O   UNL     1       8.277   6.916  19.005  0.00  0.00    +0.000 OA
ATOM      4  H   UNL     1       6.493   7.762  16.493  0.00  0.00    +0.000 HD
ENDROOT
BRANCH   1   5
ATOM      5  C   UNL     1       6.320   5.813  17.278  0.00  0.00    +0.000 C 
BRANCH   5  10
ATOM      6  C   UNL     1       6.154   3.269  11.998  0.00  0.00    +0.000 C 
ATOM      7  C   UNL     1       6.184   3.920  13.350  0.00  0.00    +0.000 A 
ATOM      8  C   UNL     1       5.141   3.743  14.264  0.00  0.00    +0.000 A 
ATOM      9  C   UNL     1       5.192   4.351  15.525  0.00  0.00    +0.000 A 
ATOM     10  C   UNL     1       6.285   5.151  15.898  0.00  0.00    +0.000 A 
ATOM     11  C   UNL     1       7.308   5.350  14.957  0.00  0.00    +0.000 A 
ATOM     12  C   UNL     1       7.262   4.735  13.704  0.00  0.00    +0.000 A 
ENDBRANCH   5  10
BRANCH   5  13
ATOM     13  C   UNL     1       4.931   5.827  17.926  0.00  0.00    +0.000 A 
ATOM     14  C   UNL     1       4.001   6.800  17.551  0.00  0.00    +0.000 A 
ATOM     15  C   UNL     1       2.772   6.850  18.202  0.00  0.00    +0.000 A 
ATOM     16  C   UNL     1       2.498   5.930  19.203  0.00  0.00    +0.000 A 
ATOM     17  C   UNL     1       3.460   4.980  19.505  0.00  0.00    +0.000 A 
ATOM     18  N   UNL     1       4.663   4.900  18.891  0.00  0.00    +0.000 NA
ENDBRANCH   5  13
ENDBRANCH   1   5
BRANCH   2  19
ATOM     19  C   UNL     1       8.377   9.007  17.795  0.00  0.00    +0.000 C 
BRANCH  19  20
ATOM     20  O   UNL     1       8.797   9.605  19.012  0.00  0.00    +0.000 OA
BRANCH  20  21
ATOM     21  C   UNL     1       9.507  10.775  18.929  0.00  0.00    +0.000 A 
ATOM     22  C   UNL     1      10.249  11.215  17.822  0.00  0.00    +0.000 A 
ATOM     23  C   UNL     1      10.908  12.452  17.852  0.00  0.00    +0.000 A 
ATOM     24  C   UNL     1      10.818  13.233  18.992  0.00  0.00    +0.000 A 
ATOM     25  C   UNL     1      10.097  12.797  20.098  0.00  0.00    +0.000 A 
ATOM     26  C   UNL     1       9.443  11.571  20.078  0.00  0.00    +0.000 A 
ATOM     27  C   UNL     1      10.137  13.781  21.215  0.00  0.00    +0.000 C 
ATOM     28  C   UNL     1      10.973  14.938  20.646  0.00  0.00    +0.000 C 
ATOM     29  C   UNL     1      11.426  14.577  19.223  0.00  0.00    +0.000 C 
ENDBRANCH  20  21
ENDBRANCH  19  20
ENDBRANCH   2  19
TORSDOF 6
ENDMDL
MODEL 8
REMARK VINA RESULT:      -8.4      5.678      8.395
REMARK  Name = 
REMARK  7 active torsions:
REMARK  status: ('A' for Active; 'I' for Inactive)
REMARK    1  A    between atoms: C_1  and  C_2
REMARK    2  A    between atoms: C_5  and  C_6
REMARK    3  A    between atoms: C_6  and  N_7
REMARK    4  A    between atoms: C_6  and  C_21
REMARK    5  A    between atoms: C_8  and  C_10
REMARK    6  A    between atoms: C_10  and  O_11
REMARK    7  A    between atoms: O_11  and  C_12
REMARK                            x       y       z     vdW  Elec       q    Type
REMARK                         _______ _______ _______ _____ _____    ______ ____
ROOT
ATOM      1  N   UNL     1       6.827   6.930  17.177  0.00  0.00    +0.000 N 
ATOM      2  C   UNL     1       7.758   7.396  18.074  0.00  0.00    +0.000 C 
ATOM      3  O   UNL     1       8.207   6.707  18.987  0.00  0.00    +0.000 OA
ATOM      4  H   UNL     1       6.436   7.527  16.458  0.00  0.00    +0.000 HD
ENDROOT
BRANCH   1   5
ATOM      5  C   UNL     1       6.359   5.547  17.178  0.00  0.00    +0.000 C 
BRANCH   5  10
ATOM      6  C   UNL     1       6.299   3.270  11.776  0.00  0.00    +0.000 C 
ATOM      7  C   UNL     1       6.327   3.855  13.158  0.00  0.00    +0.000 A 
ATOM      8  C   UNL     1       7.321   4.758  13.544  0.00  0.00    +0.000 A 
ATOM      9  C   UNL     1       7.325   5.301  14.836  0.00  0.00    +0.000 A 
ATOM     10  C   UNL     1       6.335   4.949  15.770  0.00  0.00    +0.000 A 
ATOM     11  C   UNL     1       5.363   4.014  15.380  0.00  0.00    +0.000 A 
ATOM     12  C   UNL     1       5.354   3.481  14.089  0.00  0.00    +0.000 A 
ENDBRANCH   5  10
BRANCH   5  13
ATOM     13  C   UNL     1       4.985   5.450  17.849  0.00  0.00    +0.000 A 
ATOM     14  C   UNL     1       3.995   6.386  17.540  0.00  0.00    +0.000 A 
ATOM     15  C   UNL     1       2.778   6.335  18.213  0.00  0.00    +0.000 A 
ATOM     16  C   UNL     1       2.575   5.351  19.171  0.00  0.00    +0.000 A 
ATOM     17  C   UNL     1       3.595   4.443  19.408  0.00  0.00    +0.000 A 
ATOM     18  N   UNL     1       4.788   4.463  18.771  0.00  0.00    +0.000 NA
ENDBRANCH   5  13
ENDBRANCH   1   5
BRANCH   2  19
ATOM     19  C   UNL     1       8.212   8.838  17.844  0.00  0.00    +0.000 C 
BRANCH  19  20
ATOM     20  O   UNL     1       9.025   9.250  18.933  0.00  0.00    +0.000 OA
BRANCH  20  21
ATOM     21  C   UNL     1       9.450  10.554  18.944  0.00  0.00    +0.000 A 
ATOM     22  C   UNL     1       9.926  11.278  17.841  0.00  0.00    +0.000 A 
ATOM     23  C   UNL     1      10.303  12.622  17.978  0.00  0.00    +0.000 A 
ATOM     24  C   UNL     1      10.202  13.223  19.221  0.00  0.00    +0.000 A 
ATOM     25  C   UNL     1       9.745  12.507  20.323  0.00  0.00    +0.000 A 
ATOM     26  C   UNL     1       9.372  11.175  20.196  0.00  0.00    +0.000 A 
ATOM     27  C   UNL     1       9.723  13.338  21.559  0.00  0.00    +0.000 C 
ATOM     28  C   UNL     1      10.209  14.713  21.077  0.00  0.00    +0.000 C 
ATOM     29  C   UNL     1      10.533  14.635  19.577  0.00  0.00    +0.000 C 
ENDBRANCH  20  21
ENDBRANCH  19  20
ENDBRANCH   2  19
TORSDOF 6
ENDMDL
MODEL 9
REMARK VINA RESULT:      -8.3      0.718      1.795
REMARK  Name = 
REMARK  7 active torsions:
REMARK  status: ('A' for Active; 'I' for Inactive)
REMARK    1  A    between atoms: C_1  and  C_2
REMARK    2  A    between atoms: C_5  and  C_6
REMARK    3  A    between atoms: C_6  and  N_7
REMARK    4  A    between atoms: C_6  and  C_21
REMARK    5  A    between atoms: C_8  and  C_10
REMARK    6  A    between atoms: C_10  and  O_11
REMARK    7  A    between atoms: O_11  and  C_12
REMARK                            x       y       z     vdW  Elec       q    Type
REMARK                         _______ _______ _______ _____ _____    ______ ____
ROOT
ATOM      1  N   UNL     1       2.412   7.488  17.985  0.00  0.00    +0.000 N 
ATOM      2  C   UNL     1       1.819   8.437  18.784  0.00  0.00    +0.000 C 
ATOM      3  O   UNL     1       1.914   8.429  20.009  0.00  0.00    +0.000 OA
ATOM      4  H   UNL     1       2.286   7.486  16.980  0.00  0.00    +0.000 HD
ENDROOT
BRANCH   1   5
ATOM      5  C   UNL     1       3.280   6.443  18.519  0.00  0.00    +0.000 C 
BRANCH   5  10
ATOM      6  C   UNL     1       7.221   4.668  14.557  0.00  0.00    +0.000 C 
ATOM      7  C   UNL     1       6.214   5.135  15.567  0.00  0.00    +0.000 A 
ATOM      8  C   UNL     1       5.476   6.305  15.370  0.00  0.00    +0.000 A 
ATOM      9  C   UNL     1       4.533   6.719  16.320  0.00  0.00    +0.000 A 
ATOM     10  C   UNL     1       4.310   5.972  17.489  0.00  0.00    +0.000 A 
ATOM     11  C   UNL     1       5.083   4.818  17.692  0.00  0.00    +0.000 A 
ATOM     12  C   UNL     1       6.015   4.400  16.740  0.00  0.00    +0.000 A 
ENDBRANCH   5  10
BRANCH   5  13
ATOM     13  C   UNL     1       2.443   5.273  19.047  0.00  0.00    +0.000 A 
ATOM     14  C   UNL     1       1.774   4.439  18.148  0.00  0.00    +0.000 A 
ATOM     15  C   UNL     1       0.954   3.428  18.642  0.00  0.00    +0.000 A 
ATOM     16  C   UNL     1       0.826   3.270  20.015  0.00  0.00    +0.000 A 
ATOM     17  C   UNL     1       1.539   4.121  20.844  0.00  0.00    +0.000 A 
ATOM     18  N   UNL     1       2.345   5.112  20.398  0.00  0.00    +0.000 NA
ENDBRANCH   5  13
ENDBRANCH   1   5
BRANCH   2  19
ATOM     19  C   UNL     1       1.041   9.518  18.035  0.00  0.00    +0.000 C 
BRANCH  19  20
ATOM     20  O   UNL     1       0.066  10.078  18.902  0.00  0.00    +0.000 OA
BRANCH  20  21
ATOM     21  C   UNL     1      -1.166  10.356  18.370  0.00  0.00    +0.000 A 
ATOM     22  C   UNL     1      -1.672   9.867  17.155  0.00  0.00    +0.000 A 
ATOM     23  C   UNL     1      -2.967  10.204  16.735  0.00  0.00    +0.000 A 
ATOM     24  C   UNL     1      -3.739  11.030  17.535  0.00  0.00    +0.000 A 
ATOM     25  C   UNL     1      -3.239  11.530  18.732  0.00  0.00    +0.000 A 
ATOM     26  C   UNL     1      -1.956  11.203  19.155  0.00  0.00    +0.000 A 
ATOM     27  C   UNL     1      -4.226  12.401  19.430  0.00  0.00    +0.000 C 
ATOM     28  C   UNL     1      -5.455  12.361  18.510  0.00  0.00    +0.000 C 
ATOM     29  C   UNL     1      -5.136  11.493  17.282  0.00  0.00    +0.000 C 
ENDBRANCH  20  21
ENDBRANCH  19  20
ENDBRANCH   2  19
TORSDOF 6
ENDMDL
