MODEL 1
REMARK VINA RESULT:      -8.8      0.000      0.000
REMARK  Name = 
REMARK  10 active torsions:
REMARK  status: ('A' for Active; 'I' for Inactive)
REMARK    1  A    between atoms: C_1  and  C_2
REMARK    2  A    between atoms: C_5  and  C_6
REMARK    3  A    between atoms: C_10  and  C_11
REMARK    4  A    between atoms: N_13  and  C_14
REMARK    5  A    between atoms: C_14  and  C_15
REMARK    6  A    between atoms: C_15  and  N_16
REMARK    7  A    between atoms: C_15  and  C_23
REMARK    8  A    between atoms: N_16  and  C_17
REMARK    9  A    between atoms: C_23  and  C_24
REMARK   10  A    between atoms: C_23  and  C_25
REMARK                            x       y       z     vdW  Elec       q    Type
REMARK                         _______ _______ _______ _____ _____    ______ ____
ROOT
ATOM      1  C   UNL     1       3.198   6.082  18.744  0.00  0.00    +0.000 C 
ATOM      2  O   UNL     1       2.779   5.096  19.338  0.00  0.00    +0.000 OA
ATOM      3  N   UNL     1       4.377   6.070  18.013  0.00  0.00    +0.000 N 
ATOM      4  H   UNL     1       4.797   6.952  17.763  0.00  0.00    +0.000 HD
ENDROOT
BRANCH   1   9
ATOM      5  C   UNL     1       1.254   9.014  20.208  0.00  0.00    +0.000 A 
ATOM      6  C   UNL     1       1.081   9.815  19.068  0.00  0.00    +0.000 A 
ATOM      7  C   UNL     1       1.558   9.404  17.821  0.00  0.00    +0.000 A 
ATOM      8  C   UNL     1       2.228   8.188  17.697  0.00  0.00    +0.000 A 
ATOM      9  C   UNL     1       2.449   7.380  18.822  0.00  0.00    +0.000 A 
ATOM     10  C   UNL     1       1.942   7.794  20.071  0.00  0.00    +0.000 A 
BRANCH   5  15
ATOM     11  C   UNL     1      -1.748  11.355  23.173  0.00  0.00    +0.000 C 
ATOM     12  C   UNL     1      -0.601  10.513  22.793  0.00  0.00    +0.000 A 
ATOM     13  N   UNL     1       0.260   9.880  23.560  0.00  0.00    +0.000 NA
ATOM     14  N   UNL     1       1.114   9.214  22.706  0.00  0.00    +0.000 NA
ATOM     15  C   UNL     1       0.717   9.487  21.479  0.00  0.00    +0.000 A 
ATOM     16  O   UNL     1      -0.375  10.319  21.455  0.00  0.00    +0.000 OA
ENDBRANCH   5  15
ENDBRANCH   1   9
BRANCH   3  17
ATOM     17  C   UNL     1       5.243   4.894  17.994  0.00  0.00    +0.000 C 
BRANCH  17  18
ATOM     18  C   UNL     1       6.554   5.099  17.182  0.00  0.00    +0.000 C 
BRANCH  18  19
ATOM     19  C   UNL     1       7.633   5.907  17.960  0.00  0.00    +0.000 C 
ATOM     20  C   UNL     1       7.581   7.398  17.600  0.00  0.00    +0.000 C 
ATOM     21  C   UNL     1       7.562   5.736  19.478  0.00  0.00    +0.000 C 
ENDBRANCH  18  19
BRANCH  18  22
ATOM     22  N   UNL     1       6.268   5.776  15.905  0.00  0.00    +0.000 N 
ATOM     23  H   UNL     1       5.459   6.392  15.953  0.00  0.00    +0.000 HD
BRANCH  22  24
ATOM     24  C   UNL     1       6.386   5.134  14.672  0.00  0.00    +0.000 A 
ATOM     25  C   UNL     1       7.494   5.427  13.862  0.00  0.00    +0.000 A 
ATOM     26  C   UNL     1       7.684   4.804  12.624  0.00  0.00    +0.000 A 
ATOM     27  C   UNL     1       6.779   3.844  12.184  0.00  0.00    +0.000 A 
ATOM     28  C   UNL     1       5.708   3.491  12.999  0.00  0.00    +0.000 A 
ATOM     29  C   UNL     1       5.524   4.123  14.236  0.00  0.00    +0.000 A 
ENDBRANCH  22  24
ENDBRANCH  18  22
ENDBRANCH  17  18
ENDBRANCH   3  17
TORSDOF 7
ENDMDL
MODEL 2
REMARK VINA RESULT:      -8.7      1.921      3.669
REMARK  Name = 
REMARK  10 active torsions:
REMARK  status: ('A' for Active; 'I' for Inactive)
REMARK    1  A    between atoms: C_1  and  C_2
REMARK    2  A    between atoms: C_5  and  C_6
REMARK    3  A    between atoms: C_10  and  C_11
REMARK    4  A    between atoms: N_13  and  C_14
REMARK    5  A    between atoms: C_14  and  C_15
REMARK    6  A    between atoms: C_15  and  N_16
REMARK    7  A    between atoms: C_15  and  C_23
REMARK    8  A    between atoms: N_16  and  C_17
REMARK    9  A    between atoms: C_23  and  C_24
REMARK   10  A    between atoms: C_23  and  C_25
REMARK                            x       y       z     vdW  Elec       q    Type
REMARK                         _______ _______ _______ _____ _____    ______ ____
ROOT
ATOM      1  C   UNL     1       3.219   6.118  19.548  0.00  0.00    +0.000 C 
ATOM      2  O   UNL     1       2.896   5.310  20.409  0.00  0.00    +0.000 OA
ATOM      3  N   UNL     1       4.345   5.956  18.753  0.00  0.00    +0.000 N 
ATOM      4  H   UNL     1       4.698   6.754  18.249  0.00  0.00    +0.000 HD
ENDROOT
BRANCH   1   9
ATOM      5  C   UNL     1       1.040   9.143  20.336  0.00  0.00    +0.000 A 
ATOM      6  C   UNL     1       0.914   9.720  19.063  0.00  0.00    +0.000 A 
ATOM      7  C   UNL     1       1.499   9.125  17.943  0.00  0.00    +0.000 A 
ATOM      8  C   UNL     1       2.232   7.948  18.081  0.00  0.00    +0.000 A 
ATOM      9  C   UNL     1       2.407   7.364  19.344  0.00  0.00    +0.000 A 
ATOM     10  C   UNL     1       1.792   7.960  20.464  0.00  0.00    +0.000 A 
BRANCH   5  15
ATOM     11  C   UNL     1      -2.137  11.977  22.608  0.00  0.00    +0.000 C 
ATOM     12  C   UNL     1      -1.006  11.043  22.475  0.00  0.00    +0.000 A 
ATOM     13  N   UNL     1      -0.277  10.478  23.412  0.00  0.00    +0.000 NA
ATOM     14  N   UNL     1       0.629   9.670  22.756  0.00  0.00    +0.000 NA
ATOM     15  C   UNL     1       0.391   9.800  21.465  0.00  0.00    +0.000 A 
ATOM     16  O   UNL     1      -0.641  10.668  21.208  0.00  0.00    +0.000 OA
ENDBRANCH   5  15
ENDBRANCH   1   9
BRANCH   3  17
ATOM     17  C   UNL     1       5.271   4.847  18.972  0.00  0.00    +0.000 C 
BRANCH  17  18
ATOM     18  C   UNL     1       5.691   4.119  17.664  0.00  0.00    +0.000 C 
BRANCH  18  19
ATOM     19  C   UNL     1       5.666   5.048  16.414  0.00  0.00    +0.000 C 
ATOM     20  C   UNL     1       6.811   6.069  16.454  0.00  0.00    +0.000 C 
ATOM     21  C   UNL     1       5.686   4.297  15.081  0.00  0.00    +0.000 C 
ENDBRANCH  18  19
BRANCH  18  22
ATOM     22  N   UNL     1       4.822   2.955  17.420  0.00  0.00    +0.000 N 
ATOM     23  H   UNL     1       4.897   2.594  16.471  0.00  0.00    +0.000 HD
BRANCH  22  24
ATOM     24  C   UNL     1       3.529   2.863  17.933  0.00  0.00    +0.000 A 
ATOM     25  C   UNL     1       2.504   3.595  17.315  0.00  0.00    +0.000 A 
ATOM     26  C   UNL     1       1.181   3.532  17.767  0.00  0.00    +0.000 A 
ATOM     27  C   UNL     1       0.851   2.704  18.834  0.00  0.00    +0.000 A 
ATOM     28  C   UNL     1       1.839   1.921  19.421  0.00  0.00    +0.000 A 
ATOM     29  C   UNL     1       3.162   1.993  18.965  0.00  0.00    +0.000 A 
ENDBRANCH  22  24
ENDBRANCH  18  22
ENDBRANCH  17  18
ENDBRANCH   3  17
TORSDOF 7
ENDMDL
MODEL 3
REMARK VINA RESULT:      -8.4      1.867      3.553
REMARK  Name = 
REMARK  10 active torsions:
REMARK  status: ('A' for Active; 'I' for Inactive)
REMARK    1  A    between atoms: C_1  and  C_2
REMARK    2  A    between atoms: C_5  and  C_6
REMARK    3  A    between atoms: C_10  and  C_11
REMARK    4  A    between atoms: N_13  and  C_14
REMARK    5  A    between atoms: C_14  and  C_15
REMARK    6  A    between atoms: C_15  and  N_16
REMARK    7  A    between atoms: C_15  and  C_23
REMARK    8  A    between atoms: N_16  and  C_17
REMARK    9  A    between atoms: C_23  and  C_24
REMARK   10  A    between atoms: C_23  and  C_25
REMARK                            x       y       z     vdW  Elec       q    Type
REMARK                         _______ _______ _______ _____ _____    ______ ____
ROOT
ATOM      1  C   UNL     1       3.227   6.294  19.379  0.00  0.00    +0.000 C 
ATOM      2  O   UNL     1       2.987   5.458  20.241  0.00  0.00    +0.000 OA
ATOM      3  N   UNL     1       4.306   6.188  18.513  0.00  0.00    +0.000 N 
ATOM      4  H   UNL     1       4.599   7.008  18.005  0.00  0.00    +0.000 HD
ENDROOT
BRANCH   1   9
ATOM      5  C   UNL     1       0.972   9.203  20.366  0.00  0.00    +0.000 A 
ATOM      6  C   UNL     1       0.773   9.819  19.120  0.00  0.00    +0.000 A 
ATOM      7  C   UNL     1       1.333   9.288  17.957  0.00  0.00    +0.000 A 
ATOM      8  C   UNL     1       2.114   8.135  18.022  0.00  0.00    +0.000 A 
ATOM      9  C   UNL     1       2.362   7.514  19.255  0.00  0.00    +0.000 A 
ATOM     10  C   UNL     1       1.772   8.046  20.419  0.00  0.00    +0.000 A 
BRANCH   5  15
ATOM     11  C   UNL     1      -2.123  11.942  22.856  0.00  0.00    +0.000 C 
ATOM     12  C   UNL     1      -1.015  10.994  22.648  0.00  0.00    +0.000 A 
ATOM     13  N   UNL     1      -0.293  10.348  23.538  0.00  0.00    +0.000 NA
ATOM     14  N   UNL     1       0.589   9.568  22.819  0.00  0.00    +0.000 NA
ATOM     15  C   UNL     1       0.345   9.793  21.543  0.00  0.00    +0.000 A 
ATOM     16  O   UNL     1      -0.667  10.701  21.356  0.00  0.00    +0.000 OA
ENDBRANCH   5  15
ENDBRANCH   1   9
BRANCH   3  17
ATOM     17  C   UNL     1       5.281   5.109  18.649  0.00  0.00    +0.000 C 
BRANCH  17  18
ATOM     18  C   UNL     1       5.511   4.308  17.335  0.00  0.00    +0.000 C 
BRANCH  18  19
ATOM     19  C   UNL     1       6.380   5.076  16.297  0.00  0.00    +0.000 C 
ATOM     20  C   UNL     1       5.518   5.649  15.163  0.00  0.00    +0.000 C 
ATOM     21  C   UNL     1       7.240   6.185  16.906  0.00  0.00    +0.000 C 
ENDBRANCH  18  19
BRANCH  18  22
ATOM     22  N   UNL     1       4.222   3.949  16.718  0.00  0.00    +0.000 N 
ATOM     23  H   UNL     1       3.893   4.643  16.051  0.00  0.00    +0.000 HD
BRANCH  22  24
ATOM     24  C   UNL     1       3.185   3.356  17.438  0.00  0.00    +0.000 A 
ATOM     25  C   UNL     1       3.474   2.248  18.249  0.00  0.00    +0.000 A 
ATOM     26  C   UNL     1       2.484   1.619  19.013  0.00  0.00    +0.000 A 
ATOM     27  C   UNL     1       1.184   2.112  19.005  0.00  0.00    +0.000 A 
ATOM     28  C   UNL     1       0.888   3.248  18.259  0.00  0.00    +0.000 A 
ATOM     29  C   UNL     1       1.885   3.869  17.494  0.00  0.00    +0.000 A 
ENDBRANCH  22  24
ENDBRANCH  18  22
ENDBRANCH  17  18
ENDBRANCH   3  17
TORSDOF 7
ENDMDL
MODEL 4
REMARK VINA RESULT:      -8.4      1.906      3.283
REMARK  Name = 
REMARK  10 active torsions:
REMARK  status: ('A' for Active; 'I' for Inactive)
REMARK    1  A    between atoms: C_1  and  C_2
REMARK    2  A    between atoms: C_5  and  C_6
REMARK    3  A    between atoms: C_10  and  C_11
REMARK    4  A    between atoms: N_13  and  C_14
REMARK    5  A    between atoms: C_14  and  C_15
REMARK    6  A    between atoms: C_15  and  N_16
REMARK    7  A    between atoms: C_15  and  C_23
REMARK    8  A    between atoms: N_16  and  C_17
REMARK    9  A    between atoms: C_23  and  C_24
REMARK   10  A    between atoms: C_23  and  C_25
REMARK                            x       y       z     vdW  Elec       q    Type
REMARK                         _______ _______ _______ _____ _____    ______ ____
ROOT
ATOM      1  C   UNL     1       2.993   6.853  18.983  0.00  0.00    +0.000 C 
ATOM      2  O   UNL     1       3.818   6.728  18.087  0.00  0.00    +0.000 OA
ATOM      3  N   UNL     1       2.852   5.923  20.004  0.00  0.00    +0.000 N 
ATOM      4  H   UNL     1       2.010   5.941  20.559  0.00  0.00    +0.000 HD
ENDROOT
BRANCH   1   9
ATOM      5  C   UNL     1       0.664   9.574  20.282  0.00  0.00    +0.000 A 
ATOM      6  C   UNL     1       0.342  10.241  19.090  0.00  0.00    +0.000 A 
ATOM      7  C   UNL     1       0.844   9.802  17.862  0.00  0.00    +0.000 A 
ATOM      8  C   UNL     1       1.688   8.694  17.810  0.00  0.00    +0.000 A 
ATOM      9  C   UNL     1       2.058   8.026  18.986  0.00  0.00    +0.000 A 
ATOM     10  C   UNL     1       1.525   8.463  20.216  0.00  0.00    +0.000 A 
BRANCH   5  15
ATOM     11  C   UNL     1      -2.370  12.020  23.128  0.00  0.00    +0.000 C 
ATOM     12  C   UNL     1      -1.239  11.138  22.792  0.00  0.00    +0.000 A 
ATOM     13  N   UNL     1      -0.431  10.477  23.592  0.00  0.00    +0.000 NA
ATOM     14  N   UNL     1       0.433   9.781  22.773  0.00  0.00    +0.000 NA
ATOM     15  C   UNL     1       0.094  10.066  21.531  0.00  0.00    +0.000 A 
ATOM     16  O   UNL     1      -0.967  10.935  21.464  0.00  0.00    +0.000 OA
ENDBRANCH   5  15
ENDBRANCH   1   9
BRANCH   3  17
ATOM     17  C   UNL     1       3.622   4.682  20.009  0.00  0.00    +0.000 C 
BRANCH  17  18
ATOM     18  C   UNL     1       3.183   3.673  18.910  0.00  0.00    +0.000 C 
BRANCH  18  19
ATOM     19  C   UNL     1       2.292   2.521  19.462  0.00  0.00    +0.000 C 
ATOM     20  C   UNL     1       2.158   2.601  20.988  0.00  0.00    +0.000 C 
ATOM     21  C   UNL     1       0.905   2.447  18.822  0.00  0.00    +0.000 C 
ENDBRANCH  18  19
BRANCH  18  22
ATOM     22  N   UNL     1       4.361   3.096  18.239  0.00  0.00    +0.000 N 
ATOM     23  H   UNL     1       4.919   2.506  18.852  0.00  0.00    +0.000 HD
BRANCH  22  24
ATOM     24  C   UNL     1       5.135   3.817  17.331  0.00  0.00    +0.000 A 
ATOM     25  C   UNL     1       6.411   4.249  17.724  0.00  0.00    +0.000 A 
ATOM     26  C   UNL     1       7.247   4.959  16.855  0.00  0.00    +0.000 A 
ATOM     27  C   UNL     1       6.831   5.224  15.555  0.00  0.00    +0.000 A 
ATOM     28  C   UNL     1       5.597   4.750  15.123  0.00  0.00    +0.000 A 
ATOM     29  C   UNL     1       4.765   4.044  16.001  0.00  0.00    +0.000 A 
ENDBRANCH  22  24
ENDBRANCH  18  22
ENDBRANCH  17  18
ENDBRANCH   3  17
TORSDOF 7
ENDMDL
MODEL 5
REMARK VINA RESULT:      -8.1      1.290      2.232
REMARK  Name = 
REMARK  10 active torsions:
REMARK  status: ('A' for Active; 'I' for Inactive)
REMARK    1  A    between atoms: C_1  and  C_2
REMARK    2  A    between atoms: C_5  and  C_6
REMARK    3  A    between atoms: C_10  and  C_11
REMARK    4  A    between atoms: N_13  and  C_14
REMARK    5  A    between atoms: C_14  and  C_15
REMARK    6  A    between atoms: C_15  and  N_16
REMARK    7  A    between atoms: C_15  and  C_23
REMARK    8  A    between atoms: N_16  and  C_17
REMARK    9  A    between atoms: C_23  and  C_24
REMARK   10  A    between atoms: C_23  and  C_25
REMARK                            x       y       z     vdW  Elec       q    Type
REMARK                         _______ _______ _______ _____ _____    ______ ____
ROOT
ATOM      1  C   UNL     1       3.224   6.564  18.854  0.00  0.00    +0.000 C 
ATOM      2  O   UNL     1       3.309   5.815  19.819  0.00  0.00    +0.000 OA
ATOM      3  N   UNL     1       3.978   6.387  17.702  0.00  0.00    +0.000 N 
ATOM      4  H   UNL     1       4.056   7.156  17.055  0.00  0.00    +0.000 HD
ENDROOT
BRANCH   1   9
ATOM      5  C   UNL     1       0.916   9.254  20.252  0.00  0.00    +0.000 A 
ATOM      6  C   UNL     1       0.625   9.985  19.090  0.00  0.00    +0.000 A 
ATOM      7  C   UNL     1       1.140   9.600  17.850  0.00  0.00    +0.000 A 
ATOM      8  C   UNL     1       1.968   8.483  17.755  0.00  0.00    +0.000 A 
ATOM      9  C   UNL     1       2.307   7.750  18.902  0.00  0.00    +0.000 A 
ATOM     10  C   UNL     1       1.762   8.134  20.144  0.00  0.00    +0.000 A 
BRANCH   5  15
ATOM     11  C   UNL     1      -1.762  11.964  23.212  0.00  0.00    +0.000 C 
ATOM     12  C   UNL     1      -0.845  10.878  22.826  0.00  0.00    +0.000 A 
ATOM     13  N   UNL     1      -0.325   9.924  23.566  0.00  0.00    +0.000 NA
ATOM     14  N   UNL     1       0.438   9.153  22.715  0.00  0.00    +0.000 NA
ATOM     15  C   UNL     1       0.333   9.692  21.516  0.00  0.00    +0.000 A 
ATOM     16  O   UNL     1      -0.470  10.805  21.510  0.00  0.00    +0.000 OA
ENDBRANCH   5  15
ENDBRANCH   1   9
BRANCH   3  17
ATOM     17  C   UNL     1       4.996   5.343  17.617  0.00  0.00    +0.000 C 
BRANCH  17  18
ATOM     18  C   UNL     1       4.626   4.190  16.641  0.00  0.00    +0.000 C 
BRANCH  18  19
ATOM     19  C   UNL     1       3.768   3.076  17.311  0.00  0.00    +0.000 C 
ATOM     20  C   UNL     1       4.247   2.787  18.740  0.00  0.00    +0.000 C 
ATOM     21  C   UNL     1       2.266   3.367  17.316  0.00  0.00    +0.000 C 
ENDBRANCH  18  19
BRANCH  18  22
ATOM     22  N   UNL     1       5.843   3.587  16.071  0.00  0.00    +0.000 N 
ATOM     23  H   UNL     1       6.595   3.491  16.749  0.00  0.00    +0.000 HD
BRANCH  22  24
ATOM     24  C   UNL     1       6.304   3.896  14.791  0.00  0.00    +0.000 A 
ATOM     25  C   UNL     1       5.753   3.218  13.693  0.00  0.00    +0.000 A 
ATOM     26  C   UNL     1       6.155   3.494  12.381  0.00  0.00    +0.000 A 
ATOM     27  C   UNL     1       7.101   4.485  12.140  0.00  0.00    +0.000 A 
ATOM     28  C   UNL     1       7.614   5.214  13.208  0.00  0.00    +0.000 A 
ATOM     29  C   UNL     1       7.208   4.928  14.518  0.00  0.00    +0.000 A 
ENDBRANCH  22  24
ENDBRANCH  18  22
ENDBRANCH  17  18
ENDBRANCH   3  17
TORSDOF 7
ENDMDL
MODEL 6
REMARK VINA RESULT:      -8.1      3.335      8.982
REMARK  Name = 
REMARK  10 active torsions:
REMARK  status: ('A' for Active; 'I' for Inactive)
REMARK    1  A    between atoms: C_1  and  C_2
REMARK    2  A    between atoms: C_5  and  C_6
REMARK    3  A    between atoms: C_10  and  C_11
REMARK    4  A    between atoms: N_13  and  C_14
REMARK    5  A    between atoms: C_14  and  C_15
REMARK    6  A    between atoms: C_15  and  N_16
REMARK    7  A    between atoms: C_15  and  C_23
REMARK    8  A    between atoms: N_16  and  C_17
REMARK    9  A    between atoms: C_23  and  C_24
REMARK   10  A    between atoms: C_23  and  C_25
REMARK                            x       y       z     vdW  Elec       q    Type
REMARK                         _______ _______ _______ _____ _____    ______ ____
ROOT
ATOM      1  C   UNL     1       5.728   4.127  18.001  0.00  0.00    +0.000 C 
ATOM      2  O   UNL     1       6.196   4.647  19.006  0.00  0.00    +0.000 OA
ATOM      3  N   UNL     1       4.722   3.172  18.053  0.00  0.00    +0.000 N 
ATOM      4  H   UNL     1       4.555   2.604  17.236  0.00  0.00    +0.000 HD
ENDROOT
BRANCH   1   9
ATOM      5  C   UNL     1       6.224   4.113  14.223  0.00  0.00    +0.000 A 
ATOM      6  C   UNL     1       7.184   5.127  14.077  0.00  0.00    +0.000 A 
ATOM      7  C   UNL     1       7.700   5.795  15.190  0.00  0.00    +0.000 A 
ATOM      8  C   UNL     1       7.253   5.468  16.469  0.00  0.00    +0.000 A 
ATOM      9  C   UNL     1       6.268   4.485  16.648  0.00  0.00    +0.000 A 
ATOM     10  C   UNL     1       5.773   3.801  15.519  0.00  0.00    +0.000 A 
BRANCH   5  15
ATOM     11  C   UNL     1       3.280   3.220  10.506  0.00  0.00    +0.000 C 
ATOM     12  C   UNL     1       4.448   3.038  11.385  0.00  0.00    +0.000 A 
ATOM     13  N   UNL     1       5.451   2.196  11.274  0.00  0.00    +0.000 NA
ATOM     14  N   UNL     1       6.289   2.457  12.339  0.00  0.00    +0.000 NA
ATOM     15  C   UNL     1       5.737   3.437  13.026  0.00  0.00    +0.000 A 
ATOM     16  O   UNL     1       4.552   3.859  12.478  0.00  0.00    +0.000 OA
ENDBRANCH   5  15
ENDBRANCH   1   9
BRANCH   3  17
ATOM     17  C   UNL     1       4.231   2.660  19.329  0.00  0.00    +0.000 C 
BRANCH  17  18
ATOM     18  C   UNL     1       2.968   3.401  19.854  0.00  0.00    +0.000 C 
BRANCH  18  19
ATOM     19  C   UNL     1       1.804   2.435  20.223  0.00  0.00    +0.000 C 
ATOM     20  C   UNL     1       1.302   2.687  21.652  0.00  0.00    +0.000 C 
ATOM     21  C   UNL     1       0.628   2.477  19.245  0.00  0.00    +0.000 C 
ENDBRANCH  18  19
BRANCH  18  22
ATOM     22  N   UNL     1       2.492   4.376  18.857  0.00  0.00    +0.000 N 
ATOM     23  H   UNL     1       2.898   4.234  17.935  0.00  0.00    +0.000 HD
BRANCH  22  24
ATOM     24  C   UNL     1       2.295   5.723  19.159  0.00  0.00    +0.000 A 
ATOM     25  C   UNL     1       2.451   6.673  18.139  0.00  0.00    +0.000 A 
ATOM     26  C   UNL     1       2.248   8.039  18.370  0.00  0.00    +0.000 A 
ATOM     27  C   UNL     1       1.851   8.478  19.628  0.00  0.00    +0.000 A 
ATOM     28  C   UNL     1       1.628   7.548  20.637  0.00  0.00    +0.000 A 
ATOM     29  C   UNL     1       1.837   6.183  20.398  0.00  0.00    +0.000 A 
ENDBRANCH  22  24
ENDBRANCH  18  22
ENDBRANCH  17  18
ENDBRANCH   3  17
TORSDOF 7
ENDMDL
MODEL 7
REMARK VINA RESULT:      -8.1      1.899      3.030
REMARK  Name = 
REMARK  10 active torsions:
REMARK  status: ('A' for Active; 'I' for Inactive)
REMARK    1  A    between atoms: C_1  and  C_2
REMARK    2  A    between atoms: C_5  and  C_6
REMARK    3  A    between atoms: C_10  and  C_11
REMARK    4  A    between atoms: N_13  and  C_14
REMARK    5  A    between atoms: C_14  and  C_15
REMARK    6  A    between atoms: C_15  and  N_16
REMARK    7  A    between atoms: C_15  and  C_23
REMARK    8  A    between atoms: N_16  and  C_17
REMARK    9  A    between atoms: C_23  and  C_24
REMARK   10  A    between atoms: C_23  and  C_25
REMARK                            x       y       z     vdW  Elec       q    Type
REMARK                         _______ _______ _______ _____ _____    ______ ____
ROOT
ATOM      1  C   UNL     1       4.668   3.552  19.077  0.00  0.00    +0.000 C 
ATOM      2  O   UNL     1       5.303   2.653  19.613  0.00  0.00    +0.000 OA
ATOM      3  N   UNL     1       5.152   4.265  17.989  0.00  0.00    +0.000 N 
ATOM      4  H   UNL     1       4.712   5.141  17.752  0.00  0.00    +0.000 HD
ENDROOT
BRANCH   1   9
ATOM      5  C   UNL     1       1.810   5.747  20.316  0.00  0.00    +0.000 A 
ATOM      6  C   UNL     1       0.825   4.781  20.575  0.00  0.00    +0.000 A 
ATOM      7  C   UNL     1       1.083   3.421  20.385  0.00  0.00    +0.000 A 
ATOM      8  C   UNL     1       2.330   3.006  19.919  0.00  0.00    +0.000 A 
ATOM      9  C   UNL     1       3.325   3.948  19.616  0.00  0.00    +0.000 A 
ATOM     10  C   UNL     1       3.061   5.316  19.835  0.00  0.00    +0.000 A 
BRANCH   5  15
ATOM     11  C   UNL     1      -0.015   9.563  22.638  0.00  0.00    +0.000 C 
ATOM     12  C   UNL     1       0.690   8.837  21.568  0.00  0.00    +0.000 A 
ATOM     13  N   UNL     1       1.304   9.308  20.505  0.00  0.00    +0.000 NA
ATOM     14  N   UNL     1       1.823   8.213  19.846  0.00  0.00    +0.000 NA
ATOM     15  C   UNL     1       1.488   7.150  20.552  0.00  0.00    +0.000 A 
ATOM     16  O   UNL     1       0.757   7.471  21.667  0.00  0.00    +0.000 OA
ENDBRANCH   5  15
ENDBRANCH   1   9
BRANCH   3  17
ATOM     17  C   UNL     1       6.504   4.045  17.482  0.00  0.00    +0.000 C 
BRANCH  17  18
ATOM     18  C   UNL     1       7.182   5.333  16.936  0.00  0.00    +0.000 C 
BRANCH  18  19
ATOM     19  C   UNL     1       7.197   6.499  17.967  0.00  0.00    +0.000 C 
ATOM     20  C   UNL     1       7.950   6.104  19.245  0.00  0.00    +0.000 C 
ATOM     21  C   UNL     1       7.761   7.810  17.416  0.00  0.00    +0.000 C 
ENDBRANCH  18  19
BRANCH  18  22
ATOM     22  N   UNL     1       6.512   5.785  15.704  0.00  0.00    +0.000 N 
ATOM     23  H   UNL     1       5.582   6.163  15.871  0.00  0.00    +0.000 HD
BRANCH  22  24
ATOM     24  C   UNL     1       6.603   5.085  14.501  0.00  0.00    +0.000 A 
ATOM     25  C   UNL     1       5.567   4.203  14.153  0.00  0.00    +0.000 A 
ATOM     26  C   UNL     1       5.586   3.486  12.952  0.00  0.00    +0.000 A 
ATOM     27  C   UNL     1       6.633   3.663  12.054  0.00  0.00    +0.000 A 
ATOM     28  C   UNL     1       7.637   4.579  12.348  0.00  0.00    +0.000 A 
ATOM     29  C   UNL     1       7.613   5.290  13.555  0.00  0.00    +0.000 A 
ENDBRANCH  22  24
ENDBRANCH  18  22
ENDBRANCH  17  18
ENDBRANCH   3  17
TORSDOF 7
ENDMDL
MODEL 8
REMARK VINA RESULT:      -8.1      1.833      3.043
REMARK  Name = 
REMARK  10 active torsions:
REMARK  status: ('A' for Active; 'I' for Inactive)
REMARK    1  A    between atoms: C_1  and  C_2
REMARK    2  A    between atoms: C_5  and  C_6
REMARK    3  A    between atoms: C_10  and  C_11
REMARK    4  A    between atoms: N_13  and  C_14
REMARK    5  A    between atoms: C_14  and  C_15
REMARK    6  A    between atoms: C_15  and  N_16
REMARK    7  A    between atoms: C_15  and  C_23
REMARK    8  A    between atoms: N_16  and  C_17
REMARK    9  A    between atoms: C_23  and  C_24
REMARK   10  A    between atoms: C_23  and  C_25
REMARK                            x       y       z     vdW  Elec       q    Type
REMARK                         _______ _______ _______ _____ _____    ______ ____
ROOT
ATOM      1  C   UNL     1       3.007   6.658  19.102  0.00  0.00    +0.000 C 
ATOM      2  O   UNL     1       4.097   6.659  18.544  0.00  0.00    +0.000 OA
ATOM      3  N   UNL     1       2.509   5.547  19.769  0.00  0.00    +0.000 N 
ATOM      4  H   UNL     1       1.525   5.517  19.986  0.00  0.00    +0.000 HD
ENDROOT
BRANCH   1   9
ATOM      5  C   UNL     1       0.736   9.489  20.261  0.00  0.00    +0.000 A 
ATOM      6  C   UNL     1       0.533  10.178  19.055  0.00  0.00    +0.000 A 
ATOM      7  C   UNL     1       1.095   9.720  17.861  0.00  0.00    +0.000 A 
ATOM      8  C   UNL     1       1.883   8.570  17.857  0.00  0.00    +0.000 A 
ATOM      9  C   UNL     1       2.135   7.878  19.051  0.00  0.00    +0.000 A 
ATOM     10  C   UNL     1       1.542   8.335  20.245  0.00  0.00    +0.000 A 
BRANCH   5  15
ATOM     11  C   UNL     1      -1.611  12.644  23.058  0.00  0.00    +0.000 C 
ATOM     12  C   UNL     1      -0.929  11.386  22.710  0.00  0.00    +0.000 A 
ATOM     13  N   UNL     1      -0.751  10.305  23.438  0.00  0.00    +0.000 NA
ATOM     14  N   UNL     1      -0.081   9.408  22.633  0.00  0.00    +0.000 NA
ATOM     15  C   UNL     1       0.106  10.004  21.472  0.00  0.00    +0.000 A 
ATOM     16  O   UNL     1      -0.407  11.276  21.448  0.00  0.00    +0.000 OA
ENDBRANCH   5  15
ENDBRANCH   1   9
BRANCH   3  17
ATOM     17  C   UNL     1       3.224   4.273  19.754  0.00  0.00    +0.000 C 
BRANCH  17  18
ATOM     18  C   UNL     1       3.516   3.739  18.322  0.00  0.00    +0.000 C 
BRANCH  18  19
ATOM     19  C   UNL     1       2.821   2.377  18.027  0.00  0.00    +0.000 C 
ATOM     20  C   UNL     1       3.691   1.197  18.480  0.00  0.00    +0.000 C 
ATOM     21  C   UNL     1       1.420   2.252  18.628  0.00  0.00    +0.000 C 
ENDBRANCH  18  19
BRANCH  18  22
ATOM     22  N   UNL     1       4.967   3.599  18.111  0.00  0.00    +0.000 N 
ATOM     23  H   UNL     1       5.512   3.788  18.949  0.00  0.00    +0.000 HD
BRANCH  22  24
ATOM     24  C   UNL     1       5.600   4.030  16.945  0.00  0.00    +0.000 A 
ATOM     25  C   UNL     1       4.858   4.088  15.756  0.00  0.00    +0.000 A 
ATOM     26  C   UNL     1       5.426   4.531  14.556  0.00  0.00    +0.000 A 
ATOM     27  C   UNL     1       6.749   4.957  14.531  0.00  0.00    +0.000 A 
ATOM     28  C   UNL     1       7.486   4.968  15.711  0.00  0.00    +0.000 A 
ATOM     29  C   UNL     1       6.910   4.520  16.907  0.00  0.00    +0.000 A 
ENDBRANCH  22  24
ENDBRANCH  18  22
ENDBRANCH  17  18
ENDBRANCH   3  17
TORSDOF 7
ENDMDL
MODEL 9
REMARK VINA RESULT:      -8.1      3.631      4.972
REMARK  Name = 
REMARK  10 active torsions:
REMARK  status: ('A' for Active; 'I' for Inactive)
REMARK    1  A    between atoms: C_1  and  C_2
REMARK    2  A    between atoms: C_5  and  C_6
REMARK    3  A    between atoms: C_10  and  C_11
REMARK    4  A    between atoms: N_13  and  C_14
REMARK    5  A    between atoms: C_14  and  C_15
REMARK    6  A    between atoms: C_15  and  N_16
REMARK    7  A    between atoms: C_15  and  C_23
REMARK    8  A    between atoms: N_16  and  C_17
REMARK    9  A    between atoms: C_23  and  C_24
REMARK   10  A    between atoms: C_23  and  C_25
REMARK                            x       y       z     vdW  Elec       q    Type
REMARK                         _______ _______ _______ _____ _____    ______ ____
ROOT
ATOM      1  C   UNL     1       1.946   8.598  18.356  0.00  0.00    +0.000 C 
ATOM      2  O   UNL     1       2.558   8.863  17.329  0.00  0.00    +0.000 OA
ATOM      3  N   UNL     1       2.203   7.460  19.107  0.00  0.00    +0.000 N 
ATOM      4  H   UNL     1       1.517   7.165  19.785  0.00  0.00    +0.000 HD
ENDROOT
BRANCH   1   9
ATOM      5  C   UNL     1      -1.307  10.582  18.349  0.00  0.00    +0.000 A 
ATOM      6  C   UNL     1      -1.287  11.130  19.641  0.00  0.00    +0.000 A 
ATOM      7  C   UNL     1      -0.217  10.893  20.507  0.00  0.00    +0.000 A 
ATOM      8  C   UNL     1       0.847  10.090  20.098  0.00  0.00    +0.000 A 
ATOM      9  C   UNL     1       0.842   9.499  18.826  0.00  0.00    +0.000 A 
ATOM     10  C   UNL     1      -0.232   9.765  17.952  0.00  0.00    +0.000 A 
BRANCH   5  15
ATOM     11  C   UNL     1      -5.721  12.141  17.181  0.00  0.00    +0.000 C 
ATOM     12  C   UNL     1      -4.383  11.568  16.959  0.00  0.00    +0.000 A 
ATOM     13  N   UNL     1      -3.807  11.206  15.833  0.00  0.00    +0.000 NA
ATOM     14  N   UNL     1      -2.547  10.762  16.174  0.00  0.00    +0.000 NA
ATOM     15  C   UNL     1      -2.442  10.882  17.483  0.00  0.00    +0.000 A 
ATOM     16  O   UNL     1      -3.582  11.387  18.056  0.00  0.00    +0.000 OA
ENDBRANCH   5  15
ENDBRANCH   1   9
BRANCH   3  17
ATOM     17  C   UNL     1       3.162   6.456  18.655  0.00  0.00    +0.000 C 
BRANCH  17  18
ATOM     18  C   UNL     1       2.596   5.007  18.660  0.00  0.00    +0.000 C 
BRANCH  18  19
ATOM     19  C   UNL     1       1.649   4.727  19.864  0.00  0.00    +0.000 C 
ATOM     20  C   UNL     1       0.806   3.466  19.630  0.00  0.00    +0.000 C 
ATOM     21  C   UNL     1       2.368   4.628  21.210  0.00  0.00    +0.000 C 
ENDBRANCH  18  19
BRANCH  18  22
ATOM     22  N   UNL     1       3.694   4.025  18.668  0.00  0.00    +0.000 N 
ATOM     23  H   UNL     1       3.914   3.682  19.600  0.00  0.00    +0.000 HD
BRANCH  22  24
ATOM     24  C   UNL     1       4.822   4.153  17.858  0.00  0.00    +0.000 A 
ATOM     25  C   UNL     1       4.690   3.937  16.478  0.00  0.00    +0.000 A 
ATOM     26  C   UNL     1       5.777   4.070  15.606  0.00  0.00    +0.000 A 
ATOM     27  C   UNL     1       7.018   4.457  16.099  0.00  0.00    +0.000 A 
ATOM     28  C   UNL     1       7.157   4.739  17.454  0.00  0.00    +0.000 A 
ATOM     29  C   UNL     1       6.064   4.599  18.320  0.00  0.00    +0.000 A 
ENDBRANCH  22  24
ENDBRANCH  18  22
ENDBRANCH  17  18
ENDBRANCH   3  17
TORSDOF 7
ENDMDL
