MODEL 1
REMARK VINA RESULT:      -8.4      0.000      0.000
REMARK  Name = 
REMARK  6 active torsions:
REMARK  status: ('A' for Active; 'I' for Inactive)
REMARK    1  A    between atoms: C_1  and  C_2
REMARK    2  A    between atoms: C_8  and  C_9
REMARK    3  A    between atoms: N_11  and  C_12
REMARK    4  A    between atoms: N_16  and  C_17
REMARK    5  A    between atoms: C_17  and  C_18
REMARK    6  A    between atoms: C_27  and  C_28
REMARK                            x       y       z     vdW  Elec       q    Type
REMARK                         _______ _______ _______ _____ _____    ______ ____
ROOT
ATOM      1  C   UNL     1       2.867   6.271  19.051  0.00  0.00    +0.000 C 
ATOM      2  O   UNL     1       3.839   6.072  19.762  0.00  0.00    +0.000 OA
ATOM      3  N   UNL     1       2.310   5.227  18.222  0.00  0.00    +0.000 N 
ATOM      4  H   UNL     1       1.588   5.460  17.553  0.00  0.00    +0.000 HD
ENDROOT
BRANCH   1  12
ATOM      5  C   UNL     1      -0.170  11.630  22.007  0.00  0.00    +0.000 C 
ATOM      6  C   UNL     1      -0.749  12.375  20.807  0.00  0.00    +0.000 C 
ATOM      7  C   UNL     1      -0.847  11.520  19.531  0.00  0.00    +0.000 C 
ATOM      8  N   UNL     1       0.445  11.358  18.850  0.00  0.00    +0.000 N 
ATOM      9  C   UNL     1       1.077  10.128  18.898  0.00  0.00    +0.000 A 
ATOM     10  C   UNL     1       1.939   9.740  17.865  0.00  0.00    +0.000 A 
ATOM     11  C   UNL     1       2.539   8.475  17.869  0.00  0.00    +0.000 A 
ATOM     12  C   UNL     1       2.278   7.613  18.928  0.00  0.00    +0.000 A 
ATOM     13  C   UNL     1       1.396   8.049  19.905  0.00  0.00    +0.000 A 
ATOM     14  N   UNL     1       0.798   9.266  19.902  0.00  0.00    +0.000 NA
ATOM     15  C   UNL     1       1.238  12.585  18.711  0.00  0.00    +0.000 C 
ATOM     16  C   UNL     1       1.266  13.405  20.022  0.00  0.00    +0.000 C 
ATOM     17  C   UNL     1       1.860  14.789  19.779  0.00  0.00    +0.000 C 
ATOM     18  O   UNL     1      -0.049  13.608  20.563  0.00  0.00    +0.000 OA
ENDBRANCH   1  12
BRANCH   3  19
ATOM     19  C   UNL     1       2.785   3.912  18.235  0.00  0.00    +0.000 A 
ATOM     20  C   UNL     1       2.447   2.907  19.116  0.00  0.00    +0.000 A 
ATOM     21  C   UNL     1       3.193   1.787  18.718  0.00  0.00    +0.000 A 
ATOM     22  N   UNL     1       3.969   2.043  17.664  0.00  0.00    +0.000 NA
ATOM     23  N   UNL     1       3.701   3.338  17.372  0.00  0.00    +0.000 N 
BRANCH  23  24
ATOM     24  C   UNL     1       4.532   4.000  16.370  0.00  0.00    +0.000 C 
BRANCH  24  25
ATOM     25  C   UNL     1       5.551   4.934  16.975  0.00  0.00    +0.000 A 
ATOM     26  C   UNL     1       6.559   4.442  17.818  0.00  0.00    +0.000 A 
ATOM     27  C   UNL     1       7.514   5.304  18.360  0.00  0.00    +0.000 A 
ATOM     28  C   UNL     1       7.484   6.663  18.058  0.00  0.00    +0.000 A 
ATOM     29  C   UNL     1       6.512   7.160  17.195  0.00  0.00    +0.000 A 
ATOM     30  C   UNL     1       5.554   6.302  16.653  0.00  0.00    +0.000 A 
ENDBRANCH  24  25
ENDBRANCH  23  24
ENDBRANCH   3  19
TORSDOF 4
ENDMDL
MODEL 2
REMARK VINA RESULT:      -8.2      1.732      3.815
REMARK  Name = 
REMARK  6 active torsions:
REMARK  status: ('A' for Active; 'I' for Inactive)
REMARK    1  A    between atoms: C_1  and  C_2
REMARK    2  A    between atoms: C_8  and  C_9
REMARK    3  A    between atoms: N_11  and  C_12
REMARK    4  A    between atoms: N_16  and  C_17
REMARK    5  A    between atoms: C_17  and  C_18
REMARK    6  A    between atoms: C_27  and  C_28
REMARK                            x       y       z     vdW  Elec       q    Type
REMARK                         _______ _______ _______ _____ _____    ______ ____
ROOT
ATOM      1  C   UNL     1       2.557   7.130  18.169  0.00  0.00    +0.000 C 
ATOM      2  O   UNL     1       1.851   6.243  17.719  0.00  0.00    +0.000 OA
ATOM      3  N   UNL     1       3.998   7.079  18.061  0.00  0.00    +0.000 N 
ATOM      4  H   UNL     1       4.554   7.765  18.554  0.00  0.00    +0.000 HD
ENDROOT
BRANCH   1  12
ATOM      5  C   UNL     1      -0.524  13.228  18.203  0.00  0.00    +0.000 C 
ATOM      6  C   UNL     1      -0.305  13.692  19.640  0.00  0.00    +0.000 C 
ATOM      7  C   UNL     1       0.811  12.931  20.378  0.00  0.00    +0.000 C 
ATOM      8  N   UNL     1       0.390  11.599  20.836  0.00  0.00    +0.000 N 
ATOM      9  C   UNL     1       0.887  10.482  20.189  0.00  0.00    +0.000 A 
ATOM     10  C   UNL     1       1.008   9.268  20.876  0.00  0.00    +0.000 A 
ATOM     11  C   UNL     1       1.564   8.144  20.254  0.00  0.00    +0.000 A 
ATOM     12  C   UNL     1       1.980   8.248  18.932  0.00  0.00    +0.000 A 
ATOM     13  C   UNL     1       1.856   9.484  18.318  0.00  0.00    +0.000 A 
ATOM     14  N   UNL     1       1.333  10.583  18.916  0.00  0.00    +0.000 NA
ATOM     15  C   UNL     1      -0.925  11.548  21.486  0.00  0.00    +0.000 C 
ATOM     16  C   UNL     1      -1.986  12.358  20.704  0.00  0.00    +0.000 C 
ATOM     17  C   UNL     1      -3.260  12.512  21.530  0.00  0.00    +0.000 C 
ATOM     18  O   UNL     1      -1.532  13.684  20.391  0.00  0.00    +0.000 OA
ENDBRANCH   1  12
BRANCH   3  19
ATOM     19  C   UNL     1       4.672   6.066  17.373  0.00  0.00    +0.000 A 
ATOM     20  C   UNL     1       5.001   6.036  16.035  0.00  0.00    +0.000 A 
ATOM     21  C   UNL     1       5.658   4.812  15.834  0.00  0.00    +0.000 A 
ATOM     22  N   UNL     1       5.741   4.091  16.952  0.00  0.00    +0.000 NA
ATOM     23  N   UNL     1       5.148   4.872  17.886  0.00  0.00    +0.000 N 
BRANCH  23  24
ATOM     24  C   UNL     1       4.901   4.295  19.204  0.00  0.00    +0.000 C 
BRANCH  24  25
ATOM     25  C   UNL     1       3.476   3.835  19.387  0.00  0.00    +0.000 A 
ATOM     26  C   UNL     1       2.702   4.315  20.454  0.00  0.00    +0.000 A 
ATOM     27  C   UNL     1       1.376   3.906  20.610  0.00  0.00    +0.000 A 
ATOM     28  C   UNL     1       0.802   3.025  19.697  0.00  0.00    +0.000 A 
ATOM     29  C   UNL     1       1.546   2.567  18.613  0.00  0.00    +0.000 A 
ATOM     30  C   UNL     1       2.872   2.973  18.455  0.00  0.00    +0.000 A 
ENDBRANCH  24  25
ENDBRANCH  23  24
ENDBRANCH   3  19
TORSDOF 4
ENDMDL
MODEL 3
REMARK VINA RESULT:      -8.1      1.736      2.777
REMARK  Name = 
REMARK  6 active torsions:
REMARK  status: ('A' for Active; 'I' for Inactive)
REMARK    1  A    between atoms: C_1  and  C_2
REMARK    2  A    between atoms: C_8  and  C_9
REMARK    3  A    between atoms: N_11  and  C_12
REMARK    4  A    between atoms: N_16  and  C_17
REMARK    5  A    between atoms: C_17  and  C_18
REMARK    6  A    between atoms: C_27  and  C_28
REMARK                            x       y       z     vdW  Elec       q    Type
REMARK                         _______ _______ _______ _____ _____    ______ ____
ROOT
ATOM      1  C   UNL     1       2.209   6.790  19.553  0.00  0.00    +0.000 C 
ATOM      2  O   UNL     1       2.203   6.537  18.359  0.00  0.00    +0.000 OA
ATOM      3  N   UNL     1       2.644   5.819  20.530  0.00  0.00    +0.000 N 
ATOM      4  H   UNL     1       2.517   6.016  21.514  0.00  0.00    +0.000 HD
ENDROOT
BRANCH   1  12
ATOM      5  C   UNL     1      -0.924  12.737  18.334  0.00  0.00    +0.000 C 
ATOM      6  C   UNL     1      -0.606  13.534  19.596  0.00  0.00    +0.000 C 
ATOM      7  C   UNL     1       0.569  12.966  20.412  0.00  0.00    +0.000 C 
ATOM      8  N   UNL     1       0.197  11.789  21.209  0.00  0.00    +0.000 N 
ATOM      9  C   UNL     1       0.657  10.544  20.817  0.00  0.00    +0.000 A 
ATOM     10  C   UNL     1       0.840   9.532  21.768  0.00  0.00    +0.000 A 
ATOM     11  C   UNL     1       1.361   8.287  21.397  0.00  0.00    +0.000 A 
ATOM     12  C   UNL     1       1.678   8.064  20.062  0.00  0.00    +0.000 A 
ATOM     13  C   UNL     1       1.496   9.115  19.178  0.00  0.00    +0.000 A 
ATOM     14  N   UNL     1       1.007  10.330  19.529  0.00  0.00    +0.000 NA
ATOM     15  C   UNL     1      -1.066  11.906  21.947  0.00  0.00    +0.000 C 
ATOM     16  C   UNL     1      -2.190  12.511  21.073  0.00  0.00    +0.000 C 
ATOM     17  C   UNL     1      -3.401  12.870  21.928  0.00  0.00    +0.000 C 
ATOM     18  O   UNL     1      -1.774  13.718  20.415  0.00  0.00    +0.000 OA
ENDBRANCH   1  12
BRANCH   3  19
ATOM     19  C   UNL     1       3.160   4.567  20.180  0.00  0.00    +0.000 A 
ATOM     20  C   UNL     1       2.612   3.330  20.443  0.00  0.00    +0.000 A 
ATOM     21  C   UNL     1       3.506   2.395  19.898  0.00  0.00    +0.000 A 
ATOM     22  N   UNL     1       4.564   2.976  19.332  0.00  0.00    +0.000 NA
ATOM     23  N   UNL     1       4.335   4.300  19.499  0.00  0.00    +0.000 N 
BRANCH  23  24
ATOM     24  C   UNL     1       5.407   5.229  19.153  0.00  0.00    +0.000 C 
BRANCH  24  25
ATOM     25  C   UNL     1       5.811   5.147  17.702  0.00  0.00    +0.000 A 
ATOM     26  C   UNL     1       4.962   5.632  16.696  0.00  0.00    +0.000 A 
ATOM     27  C   UNL     1       5.345   5.576  15.355  0.00  0.00    +0.000 A 
ATOM     28  C   UNL     1       6.584   5.048  15.001  0.00  0.00    +0.000 A 
ATOM     29  C   UNL     1       7.452   4.594  15.990  0.00  0.00    +0.000 A 
ATOM     30  C   UNL     1       7.071   4.648  17.333  0.00  0.00    +0.000 A 
ENDBRANCH  24  25
ENDBRANCH  23  24
ENDBRANCH   3  19
TORSDOF 4
ENDMDL
MODEL 4
REMARK VINA RESULT:      -8.0      1.469      2.501
REMARK  Name = 
REMARK  6 active torsions:
REMARK  status: ('A' for Active; 'I' for Inactive)
REMARK    1  A    between atoms: C_1  and  C_2
REMARK    2  A    between atoms: C_8  and  C_9
REMARK    3  A    between atoms: N_11  and  C_12
REMARK    4  A    between atoms: N_16  and  C_17
REMARK    5  A    between atoms: C_17  and  C_18
REMARK    6  A    between atoms: C_27  and  C_28
REMARK                            x       y       z     vdW  Elec       q    Type
REMARK                         _______ _______ _______ _____ _____    ______ ____
ROOT
ATOM      1  C   UNL     1       2.276   6.696  18.847  0.00  0.00    +0.000 C 
ATOM      2  O   UNL     1       2.769   6.813  17.737  0.00  0.00    +0.000 OA
ATOM      3  N   UNL     1       2.033   5.399  19.435  0.00  0.00    +0.000 N 
ATOM      4  H   UNL     1       1.510   5.338  20.298  0.00  0.00    +0.000 HD
ENDROOT
BRANCH   1  12
ATOM      5  C   UNL     1      -0.929  12.730  18.907  0.00  0.00    +0.000 C 
ATOM      6  C   UNL     1      -0.466  13.328  20.233  0.00  0.00    +0.000 C 
ATOM      7  C   UNL     1       0.788  12.653  20.817  0.00  0.00    +0.000 C 
ATOM      8  N   UNL     1       0.498  11.364  21.461  0.00  0.00    +0.000 N 
ATOM      9  C   UNL     1       0.902  10.198  20.835  0.00  0.00    +0.000 A 
ATOM     10  C   UNL     1       1.182   9.055  21.593  0.00  0.00    +0.000 A 
ATOM     11  C   UNL     1       1.649   7.886  20.981  0.00  0.00    +0.000 A 
ATOM     12  C   UNL     1       1.814   7.872  19.601  0.00  0.00    +0.000 A 
ATOM     13  C   UNL     1       1.543   9.044  18.913  0.00  0.00    +0.000 A 
ATOM     14  N   UNL     1       1.105  10.187  19.498  0.00  0.00    +0.000 NA
ATOM     15  C   UNL     1      -0.675  11.355  22.343  0.00  0.00    +0.000 C 
ATOM     16  C   UNL     1      -1.884  12.076  21.702  0.00  0.00    +0.000 C 
ATOM     17  C   UNL     1      -2.991  12.288  22.730  0.00  0.00    +0.000 C 
ATOM     18  O   UNL     1      -1.535  13.373  21.194  0.00  0.00    +0.000 OA
ENDBRANCH   1  12
BRANCH   3  19
ATOM     19  C   UNL     1       2.413   4.203  18.818  0.00  0.00    +0.000 A 
ATOM     20  C   UNL     1       1.608   3.323  18.126  0.00  0.00    +0.000 A 
ATOM     21  C   UNL     1       2.453   2.281  17.713  0.00  0.00    +0.000 A 
ATOM     22  N   UNL     1       3.712   2.460  18.114  0.00  0.00    +0.000 NA
ATOM     23  N   UNL     1       3.677   3.641  18.775  0.00  0.00    +0.000 N 
BRANCH  23  24
ATOM     24  C   UNL     1       4.869   4.049  19.513  0.00  0.00    +0.000 C 
BRANCH  24  25
ATOM     25  C   UNL     1       5.777   4.949  18.712  0.00  0.00    +0.000 A 
ATOM     26  C   UNL     1       5.477   5.260  17.377  0.00  0.00    +0.000 A 
ATOM     27  C   UNL     1       6.305   6.110  16.643  0.00  0.00    +0.000 A 
ATOM     28  C   UNL     1       7.433   6.673  17.234  0.00  0.00    +0.000 A 
ATOM     29  C   UNL     1       7.724   6.404  18.568  0.00  0.00    +0.000 A 
ATOM     30  C   UNL     1       6.899   5.552  19.305  0.00  0.00    +0.000 A 
ENDBRANCH  24  25
ENDBRANCH  23  24
ENDBRANCH   3  19
TORSDOF 4
ENDMDL
MODEL 5
REMARK VINA RESULT:      -7.9      1.476      2.540
REMARK  Name = 
REMARK  6 active torsions:
REMARK  status: ('A' for Active; 'I' for Inactive)
REMARK    1  A    between atoms: C_1  and  C_2
REMARK    2  A    between atoms: C_8  and  C_9
REMARK    3  A    between atoms: N_11  and  C_12
REMARK    4  A    between atoms: N_16  and  C_17
REMARK    5  A    between atoms: C_17  and  C_18
REMARK    6  A    between atoms: C_27  and  C_28
REMARK                            x       y       z     vdW  Elec       q    Type
REMARK                         _______ _______ _______ _____ _____    ______ ____
ROOT
ATOM      1  C   UNL     1       1.824   6.446  20.127  0.00  0.00    +0.000 C 
ATOM      2  O   UNL     1       1.817   5.572  20.978  0.00  0.00    +0.000 OA
ATOM      3  N   UNL     1       2.243   6.178  18.770  0.00  0.00    +0.000 N 
ATOM      4  H   UNL     1       2.357   6.950  18.127  0.00  0.00    +0.000 HD
ENDROOT
BRANCH   1  12
ATOM      5  C   UNL     1      -0.785  12.478  18.262  0.00  0.00    +0.000 C 
ATOM      6  C   UNL     1      -0.225  13.416  19.329  0.00  0.00    +0.000 C 
ATOM      7  C   UNL     1       0.977  12.837  20.098  0.00  0.00    +0.000 C 
ATOM      8  N   UNL     1       0.585  11.855  21.118  0.00  0.00    +0.000 N 
ATOM      9  C   UNL     1       0.855  10.517  20.896  0.00  0.00    +0.000 A 
ATOM     10  C   UNL     1       1.048   9.650  21.979  0.00  0.00    +0.000 A 
ATOM     11  C   UNL     1       1.382   8.307  21.771  0.00  0.00    +0.000 A 
ATOM     12  C   UNL     1       1.501   7.840  20.468  0.00  0.00    +0.000 A 
ATOM     13  C   UNL     1       1.322   8.755  19.442  0.00  0.00    +0.000 A 
ATOM     14  N   UNL     1       1.014  10.062  19.633  0.00  0.00    +0.000 NA
ATOM     15  C   UNL     1      -0.555  12.245  21.957  0.00  0.00    +0.000 C 
ATOM     16  C   UNL     1      -1.709  12.843  21.119  0.00  0.00    +0.000 C 
ATOM     17  C   UNL     1      -2.757  13.481  22.026  0.00  0.00    +0.000 C 
ATOM     18  O   UNL     1      -1.254  13.870  20.225  0.00  0.00    +0.000 OA
ENDBRANCH   1  12
BRANCH   3  19
ATOM     19  C   UNL     1       2.588   4.899  18.320  0.00  0.00    +0.000 A 
ATOM     20  C   UNL     1       1.811   4.032  17.582  0.00  0.00    +0.000 A 
ATOM     21  C   UNL     1       2.598   2.885  17.394  0.00  0.00    +0.000 A 
ATOM     22  N   UNL     1       3.793   2.989  17.976  0.00  0.00    +0.000 NA
ATOM     23  N   UNL     1       3.779   4.226  18.526  0.00  0.00    +0.000 N 
BRANCH  23  24
ATOM     24  C   UNL     1       4.881   4.595  19.410  0.00  0.00    +0.000 C 
BRANCH  24  25
ATOM     25  C   UNL     1       5.875   5.522  18.755  0.00  0.00    +0.000 A 
ATOM     26  C   UNL     1       5.514   6.273  17.626  0.00  0.00    +0.000 A 
ATOM     27  C   UNL     1       6.427   7.147  17.033  0.00  0.00    +0.000 A 
ATOM     28  C   UNL     1       7.705   7.294  17.567  0.00  0.00    +0.000 A 
ATOM     29  C   UNL     1       8.066   6.584  18.707  0.00  0.00    +0.000 A 
ATOM     30  C   UNL     1       7.156   5.707  19.302  0.00  0.00    +0.000 A 
ENDBRANCH  24  25
ENDBRANCH  23  24
ENDBRANCH   3  19
TORSDOF 4
ENDMDL
MODEL 6
REMARK VINA RESULT:      -7.8      1.287      3.149
REMARK  Name = 
REMARK  6 active torsions:
REMARK  status: ('A' for Active; 'I' for Inactive)
REMARK    1  A    between atoms: C_1  and  C_2
REMARK    2  A    between atoms: C_8  and  C_9
REMARK    3  A    between atoms: N_11  and  C_12
REMARK    4  A    between atoms: N_16  and  C_17
REMARK    5  A    between atoms: C_17  and  C_18
REMARK    6  A    between atoms: C_27  and  C_28
REMARK                            x       y       z     vdW  Elec       q    Type
REMARK                         _______ _______ _______ _____ _____    ______ ____
ROOT
ATOM      1  C   UNL     1       3.492   6.863  18.777  0.00  0.00    +0.000 C 
ATOM      2  O   UNL     1       3.511   6.019  19.659  0.00  0.00    +0.000 OA
ATOM      3  N   UNL     1       4.517   6.918  17.760  0.00  0.00    +0.000 N 
ATOM      4  H   UNL     1       4.539   7.703  17.124  0.00  0.00    +0.000 HD
ENDROOT
BRANCH   1  12
ATOM      5  C   UNL     1      -0.300  11.379  22.227  0.00  0.00    +0.000 C 
ATOM      6  C   UNL     1      -1.380  11.737  21.211  0.00  0.00    +0.000 C 
ATOM      7  C   UNL     1      -1.509  10.726  20.056  0.00  0.00    +0.000 C 
ATOM      8  N   UNL     1      -0.456  10.878  19.042  0.00  0.00    +0.000 N 
ATOM      9  C   UNL     1       0.540   9.921  18.965  0.00  0.00    +0.000 A 
ATOM     10  C   UNL     1       1.188   9.679  17.747  0.00  0.00    +0.000 A 
ATOM     11  C   UNL     1       2.156   8.673  17.638  0.00  0.00    +0.000 A 
ATOM     12  C   UNL     1       2.477   7.928  18.766  0.00  0.00    +0.000 A 
ATOM     13  C   UNL     1       1.781   8.201  19.933  0.00  0.00    +0.000 A 
ATOM     14  N   UNL     1       0.831   9.162  20.045  0.00  0.00    +0.000 NA
ATOM     15  C   UNL     1      -0.182  12.258  18.625  0.00  0.00    +0.000 C 
ATOM     16  C   UNL     1      -0.096  13.219  19.835  0.00  0.00    +0.000 C 
ATOM     17  C   UNL     1      -0.081  14.671  19.368  0.00  0.00    +0.000 C 
ATOM     18  O   UNL     1      -1.219  13.079  20.719  0.00  0.00    +0.000 OA
ENDBRANCH   1  12
BRANCH   3  19
ATOM     19  C   UNL     1       5.544   5.973  17.665  0.00  0.00    +0.000 A 
ATOM     20  C   UNL     1       6.857   6.118  18.060  0.00  0.00    +0.000 A 
ATOM     21  C   UNL     1       7.483   4.902  17.748  0.00  0.00    +0.000 A 
ATOM     22  N   UNL     1       6.647   4.032  17.179  0.00  0.00    +0.000 NA
ATOM     23  N   UNL     1       5.466   4.693  17.147  0.00  0.00    +0.000 N 
BRANCH  23  24
ATOM     24  C   UNL     1       4.363   4.086  16.407  0.00  0.00    +0.000 C 
BRANCH  24  25
ATOM     25  C   UNL     1       3.334   3.445  17.306  0.00  0.00    +0.000 A 
ATOM     26  C   UNL     1       3.670   2.338  18.099  0.00  0.00    +0.000 A 
ATOM     27  C   UNL     1       2.724   1.758  18.947  0.00  0.00    +0.000 A 
ATOM     28  C   UNL     1       1.437   2.285  19.026  0.00  0.00    +0.000 A 
ATOM     29  C   UNL     1       1.099   3.406  18.273  0.00  0.00    +0.000 A 
ATOM     30  C   UNL     1       2.043   3.986  17.422  0.00  0.00    +0.000 A 
ENDBRANCH  24  25
ENDBRANCH  23  24
ENDBRANCH   3  19
TORSDOF 4
ENDMDL
MODEL 7
REMARK VINA RESULT:      -7.8      1.326      3.261
REMARK  Name = 
REMARK  6 active torsions:
REMARK  status: ('A' for Active; 'I' for Inactive)
REMARK    1  A    between atoms: C_1  and  C_2
REMARK    2  A    between atoms: C_8  and  C_9
REMARK    3  A    between atoms: N_11  and  C_12
REMARK    4  A    between atoms: N_16  and  C_17
REMARK    5  A    between atoms: C_17  and  C_18
REMARK    6  A    between atoms: C_27  and  C_28
REMARK                            x       y       z     vdW  Elec       q    Type
REMARK                         _______ _______ _______ _____ _____    ______ ____
ROOT
ATOM      1  C   UNL     1       3.230   6.854  18.588  0.00  0.00    +0.000 C 
ATOM      2  O   UNL     1       3.627   6.215  19.549  0.00  0.00    +0.000 OA
ATOM      3  N   UNL     1       3.668   6.552  17.244  0.00  0.00    +0.000 N 
ATOM      4  H   UNL     1       3.419   7.179  16.491  0.00  0.00    +0.000 HD
ENDROOT
BRANCH   1  12
ATOM      5  C   UNL     1      -0.447  10.859  22.726  0.00  0.00    +0.000 C 
ATOM      6  C   UNL     1      -1.320  11.628  21.739  0.00  0.00    +0.000 C 
ATOM      7  C   UNL     1      -1.402  10.981  20.344  0.00  0.00    +0.000 C 
ATOM      8  N   UNL     1      -0.205  11.225  19.528  0.00  0.00    +0.000 N 
ATOM      9  C   UNL     1       0.670  10.178  19.296  0.00  0.00    +0.000 A 
ATOM     10  C   UNL     1       1.452  10.161  18.135  0.00  0.00    +0.000 A 
ATOM     11  C   UNL     1       2.298   9.081  17.856  0.00  0.00    +0.000 A 
ATOM     12  C   UNL     1       2.362   8.030  18.763  0.00  0.00    +0.000 A 
ATOM     13  C   UNL     1       1.544   8.097  19.879  0.00  0.00    +0.000 A 
ATOM     14  N   UNL     1       0.710   9.131  20.151  0.00  0.00    +0.000 NA
ATOM     15  C   UNL     1       0.290  12.607  19.538  0.00  0.00    +0.000 C 
ATOM     16  C   UNL     1       0.317  13.198  20.967  0.00  0.00    +0.000 C 
ATOM     17  C   UNL     1       0.572  14.702  20.922  0.00  0.00    +0.000 C 
ATOM     18  O   UNL     1      -0.930  13.010  21.655  0.00  0.00    +0.000 OA
ENDBRANCH   1  12
BRANCH   3  19
ATOM     19  C   UNL     1       4.501   5.470  16.943  0.00  0.00    +0.000 A 
ATOM     20  C   UNL     1       5.819   5.513  16.541  0.00  0.00    +0.000 A 
ATOM     21  C   UNL     1       6.203   4.175  16.357  0.00  0.00    +0.000 A 
ATOM     22  N   UNL     1       5.207   3.323  16.606  0.00  0.00    +0.000 NA
ATOM     23  N   UNL     1       4.180   4.125  16.975  0.00  0.00    +0.000 N 
BRANCH  23  24
ATOM     24  C   UNL     1       2.863   3.516  17.140  0.00  0.00    +0.000 C 
BRANCH  24  25
ATOM     25  C   UNL     1       2.459   3.373  18.587  0.00  0.00    +0.000 A 
ATOM     26  C   UNL     1       1.186   3.775  19.016  0.00  0.00    +0.000 A 
ATOM     27  C   UNL     1       0.804   3.622  20.350  0.00  0.00    +0.000 A 
ATOM     28  C   UNL     1       1.682   3.054  21.269  0.00  0.00    +0.000 A 
ATOM     29  C   UNL     1       2.936   2.617  20.852  0.00  0.00    +0.000 A 
ATOM     30  C   UNL     1       3.321   2.770  19.518  0.00  0.00    +0.000 A 
ENDBRANCH  24  25
ENDBRANCH  23  24
ENDBRANCH   3  19
TORSDOF 4
ENDMDL
MODEL 8
REMARK VINA RESULT:      -7.8      0.546      1.049
REMARK  Name = 
REMARK  6 active torsions:
REMARK  status: ('A' for Active; 'I' for Inactive)
REMARK    1  A    between atoms: C_1  and  C_2
REMARK    2  A    between atoms: C_8  and  C_9
REMARK    3  A    between atoms: N_11  and  C_12
REMARK    4  A    between atoms: N_16  and  C_17
REMARK    5  A    between atoms: C_17  and  C_18
REMARK    6  A    between atoms: C_27  and  C_28
REMARK                            x       y       z     vdW  Elec       q    Type
REMARK                         _______ _______ _______ _____ _____    ______ ____
ROOT
ATOM      1  C   UNL     1       2.494   6.501  19.207  0.00  0.00    +0.000 C 
ATOM      2  O   UNL     1       2.884   6.125  20.300  0.00  0.00    +0.000 OA
ATOM      3  N   UNL     1       2.500   5.625  18.058  0.00  0.00    +0.000 N 
ATOM      4  H   UNL     1       2.290   6.006  17.145  0.00  0.00    +0.000 HD
ENDROOT
BRANCH   1  12
ATOM      5  C   UNL     1       0.050  12.367  21.716  0.00  0.00    +0.000 C 
ATOM      6  C   UNL     1      -0.372  13.109  20.451  0.00  0.00    +0.000 C 
ATOM      7  C   UNL     1      -0.521  12.201  19.217  0.00  0.00    +0.000 C 
ATOM      8  N   UNL     1       0.768  11.835  18.614  0.00  0.00    +0.000 N 
ATOM      9  C   UNL     1       1.231  10.539  18.760  0.00  0.00    +0.000 A 
ATOM     10  C   UNL     1       2.081   9.985  17.795  0.00  0.00    +0.000 A 
ATOM     11  C   UNL     1       2.510   8.656  17.897  0.00  0.00    +0.000 A 
ATOM     12  C   UNL     1       2.090   7.898  18.984  0.00  0.00    +0.000 A 
ATOM     13  C   UNL     1       1.230   8.499  19.888  0.00  0.00    +0.000 A 
ATOM     14  N   UNL     1       0.796   9.781  19.791  0.00  0.00    +0.000 NA
ATOM     15  C   UNL     1       1.720  12.941  18.454  0.00  0.00    +0.000 C 
ATOM     16  C   UNL     1       1.794  13.825  19.721  0.00  0.00    +0.000 C 
ATOM     17  C   UNL     1       2.575  15.105  19.438  0.00  0.00    +0.000 C 
ATOM     18  O   UNL     1       0.494  14.226  20.180  0.00  0.00    +0.000 OA
ENDBRANCH   1  12
BRANCH   3  19
ATOM     19  C   UNL     1       2.872   4.279  18.132  0.00  0.00    +0.000 A 
ATOM     20  C   UNL     1       2.420   3.331  19.025  0.00  0.00    +0.000 A 
ATOM     21  C   UNL     1       3.095   2.146  18.695  0.00  0.00    +0.000 A 
ATOM     22  N   UNL     1       3.934   2.309  17.671  0.00  0.00    +0.000 NA
ATOM     23  N   UNL     1       3.778   3.610  17.329  0.00  0.00    +0.000 N 
BRANCH  23  24
ATOM     24  C   UNL     1       4.701   4.174  16.347  0.00  0.00    +0.000 C 
BRANCH  24  25
ATOM     25  C   UNL     1       5.734   5.082  16.966  0.00  0.00    +0.000 A 
ATOM     26  C   UNL     1       5.721   6.460  16.703  0.00  0.00    +0.000 A 
ATOM     27  C   UNL     1       6.664   7.305  17.292  0.00  0.00    +0.000 A 
ATOM     28  C   UNL     1       7.622   6.788  18.161  0.00  0.00    +0.000 A 
ATOM     29  C   UNL     1       7.625   5.428  18.460  0.00  0.00    +0.000 A 
ATOM     30  C   UNL     1       6.685   4.581  17.870  0.00  0.00    +0.000 A 
ENDBRANCH  24  25
ENDBRANCH  23  24
ENDBRANCH   3  19
TORSDOF 4
ENDMDL
MODEL 9
REMARK VINA RESULT:      -7.8      1.271      1.702
REMARK  Name = 
REMARK  6 active torsions:
REMARK  status: ('A' for Active; 'I' for Inactive)
REMARK    1  A    between atoms: C_1  and  C_2
REMARK    2  A    between atoms: C_8  and  C_9
REMARK    3  A    between atoms: N_11  and  C_12
REMARK    4  A    between atoms: N_16  and  C_17
REMARK    5  A    between atoms: C_17  and  C_18
REMARK    6  A    between atoms: C_27  and  C_28
REMARK                            x       y       z     vdW  Elec       q    Type
REMARK                         _______ _______ _______ _____ _____    ______ ____
ROOT
ATOM      1  C   UNL     1       2.164   6.320  19.601  0.00  0.00    +0.000 C 
ATOM      2  O   UNL     1       2.592   6.018  20.703  0.00  0.00    +0.000 OA
ATOM      3  N   UNL     1       1.934   5.326  18.578  0.00  0.00    +0.000 N 
ATOM      4  H   UNL     1       1.701   5.625  17.641  0.00  0.00    +0.000 HD
ENDROOT
BRANCH   1  12
ATOM      5  C   UNL     1       0.593  12.705  21.458  0.00  0.00    +0.000 C 
ATOM      6  C   UNL     1       0.260  13.358  20.119  0.00  0.00    +0.000 C 
ATOM      7  C   UNL     1      -0.032  12.352  18.991  0.00  0.00    +0.000 C 
ATOM      8  N   UNL     1       1.186  11.748  18.432  0.00  0.00    +0.000 N 
ATOM      9  C   UNL     1       1.467  10.424  18.718  0.00  0.00    +0.000 A 
ATOM     10  C   UNL     1       2.218   9.656  17.820  0.00  0.00    +0.000 A 
ATOM     11  C   UNL     1       2.460   8.299  18.065  0.00  0.00    +0.000 A 
ATOM     12  C   UNL     1       1.955   7.728  19.227  0.00  0.00    +0.000 A 
ATOM     13  C   UNL     1       1.199   8.537  20.060  0.00  0.00    +0.000 A 
ATOM     14  N   UNL     1       0.945   9.848  19.825  0.00  0.00    +0.000 NA
ATOM     15  C   UNL     1       2.280  12.687  18.154  0.00  0.00    +0.000 C 
ATOM     16  C   UNL     1       2.494  13.683  19.318  0.00  0.00    +0.000 C 
ATOM     17  C   UNL     1       3.440  14.804  18.899  0.00  0.00    +0.000 C 
ATOM     18  O   UNL     1       1.268  14.308  19.730  0.00  0.00    +0.000 OA
ENDBRANCH   1  12
BRANCH   3  19
ATOM     19  C   UNL     1       2.106   3.955  18.800  0.00  0.00    +0.000 A 
ATOM     20  C   UNL     1       1.129   3.020  19.065  0.00  0.00    +0.000 A 
ATOM     21  C   UNL     1       1.805   1.799  19.217  0.00  0.00    +0.000 A 
ATOM     22  N   UNL     1       3.124   1.929  19.075  0.00  0.00    +0.000 NA
ATOM     23  N   UNL     1       3.293   3.245  18.808  0.00  0.00    +0.000 N 
BRANCH  23  24
ATOM     24  C   UNL     1       4.656   3.769  18.781  0.00  0.00    +0.000 C 
BRANCH  24  25
ATOM     25  C   UNL     1       4.988   4.478  17.491  0.00  0.00    +0.000 A 
ATOM     26  C   UNL     1       5.214   5.863  17.476  0.00  0.00    +0.000 A 
ATOM     27  C   UNL     1       5.542   6.516  16.287  0.00  0.00    +0.000 A 
ATOM     28  C   UNL     1       5.662   5.795  15.101  0.00  0.00    +0.000 A 
ATOM     29  C   UNL     1       5.475   4.416  15.106  0.00  0.00    +0.000 A 
ATOM     30  C   UNL     1       5.146   3.760  16.294  0.00  0.00    +0.000 A 
ENDBRANCH  24  25
ENDBRANCH  23  24
ENDBRANCH   3  19
TORSDOF 4
ENDMDL
