MODEL 1
REMARK VINA RESULT:      -8.7      0.000      0.000
REMARK  Name = 
REMARK  2 active torsions:
REMARK  status: ('A' for Active; 'I' for Inactive)
REMARK    1  A    between atoms: C_2  and  C_14
REMARK    2  A    between atoms: N_3  and  C_4
REMARK                            x       y       z     vdW  Elec       q    Type
REMARK                         _______ _______ _______ _____ _____    ______ ____
ROOT
ATOM      1  O   UNL     1       2.190   9.040  17.283  0.00  0.00    +0.000 OA
ATOM      2  C   UNL     1       1.986   8.521  18.375  0.00  0.00    +0.000 C 
ATOM      3  N   UNL     1       2.416   7.262  18.759  0.00  0.00    +0.000 N 
ATOM      4  H   UNL     1       2.021   6.894  19.613  0.00  0.00    +0.000 HD
ENDROOT
BRANCH   3   5
ATOM      5  C   UNL     1       3.219   6.378  18.007  0.00  0.00    +0.000 A 
ATOM      6  C   UNL     1       2.922   5.005  17.870  0.00  0.00    +0.000 A 
ATOM      7  C   UNL     1       3.759   4.144  17.150  0.00  0.00    +0.000 A 
ATOM      8  C   UNL     1       4.880   4.688  16.577  0.00  0.00    +0.000 A 
ATOM      9  O   UNL     1       5.838   3.998  15.853  0.00  0.00    +0.000 OA
ATOM     10  C   UNL     1       6.747   5.011  15.528  0.00  0.00    +0.000 A 
ATOM     11  O   UNL     1       7.775   4.827  14.893  0.00  0.00    +0.000 OA
ATOM     12  N   UNL     1       6.334   6.229  16.020  0.00  0.00    +0.000 N 
ATOM     13  C   UNL     1       5.160   6.032  16.687  0.00  0.00    +0.000 A 
ATOM     14  C   UNL     1       4.355   6.913  17.377  0.00  0.00    +0.000 A 
ATOM     15  H   UNL     1       6.857   7.081  15.901  0.00  0.00    +0.000 HD
ENDBRANCH   3   5
BRANCH   2  16
ATOM     16  C   UNL     1       1.187   9.206  19.371  0.00  0.00    +0.000 A 
ATOM     17  C   UNL     1       0.506  10.408  19.352  0.00  0.00    +0.000 A 
ATOM     18  C   UNL     1      -0.085  10.607  20.628  0.00  0.00    +0.000 A 
ATOM     19  C   UNL     1      -0.854  11.642  21.191  0.00  0.00    +0.000 A 
ATOM     20  C   UNL     1      -1.269  11.517  22.514  0.00  0.00    +0.000 A 
ATOM     21  F   UNL     1      -1.991  12.502  23.064  0.00  0.00    +0.000 F 
ATOM     22  C   UNL     1      -0.952  10.402  23.280  0.00  0.00    +0.000 A 
ATOM     23  C   UNL     1      -0.195   9.358  22.737  0.00  0.00    +0.000 A 
ATOM     24  C   UNL     1       0.225   9.495  21.408  0.00  0.00    +0.000 A 
ATOM     25  N   UNL     1       0.971   8.651  20.617  0.00  0.00    +0.000 N 
ATOM     26  H   UNL     1       1.341   7.755  20.901  0.00  0.00    +0.000 HD
ENDBRANCH   2  16
TORSDOF 2
ENDMDL
MODEL 2
REMARK VINA RESULT:      -8.4      5.786      7.721
REMARK  Name = 
REMARK  2 active torsions:
REMARK  status: ('A' for Active; 'I' for Inactive)
REMARK    1  A    between atoms: C_2  and  C_14
REMARK    2  A    between atoms: N_3  and  C_4
REMARK                            x       y       z     vdW  Elec       q    Type
REMARK                         _______ _______ _______ _____ _____    ______ ____
ROOT
ATOM      1  O   UNL     1       8.480   7.019  18.933  0.00  0.00    +0.000 OA
ATOM      2  C   UNL     1       7.989   7.930  18.277  0.00  0.00    +0.000 C 
ATOM      3  N   UNL     1       6.944   7.802  17.378  0.00  0.00    +0.000 N 
ATOM      4  H   UNL     1       6.767   8.595  16.779  0.00  0.00    +0.000 HD
ENDROOT
BRANCH   3   5
ATOM      5  C   UNL     1       6.207   6.631  17.103  0.00  0.00    +0.000 A 
ATOM      6  C   UNL     1       6.633   5.662  16.169  0.00  0.00    +0.000 A 
ATOM      7  C   UNL     1       5.861   4.528  15.887  0.00  0.00    +0.000 A 
ATOM      8  C   UNL     1       4.672   4.392  16.559  0.00  0.00    +0.000 A 
ATOM      9  O   UNL     1       3.764   3.360  16.398  0.00  0.00    +0.000 OA
ATOM     10  C   UNL     1       2.748   3.722  17.290  0.00  0.00    +0.000 A 
ATOM     11  O   UNL     1       1.723   3.078  17.453  0.00  0.00    +0.000 OA
ATOM     12  N   UNL     1       3.055   4.891  17.949  0.00  0.00    +0.000 N 
ATOM     13  C   UNL     1       4.265   5.322  17.489  0.00  0.00    +0.000 A 
ATOM     14  C   UNL     1       5.002   6.444  17.802  0.00  0.00    +0.000 A 
ATOM     15  H   UNL     1       2.447   5.323  18.625  0.00  0.00    +0.000 HD
ENDBRANCH   3   5
BRANCH   2  16
ATOM     16  C   UNL     1       8.541   9.268  18.360  0.00  0.00    +0.000 A 
ATOM     17  C   UNL     1       8.413  10.380  17.550  0.00  0.00    +0.000 A 
ATOM     18  C   UNL     1       9.209  11.423  18.093  0.00  0.00    +0.000 A 
ATOM     19  C   UNL     1       9.486  12.742  17.691  0.00  0.00    +0.000 A 
ATOM     20  C   UNL     1      10.347  13.508  18.473  0.00  0.00    +0.000 A 
ATOM     21  F   UNL     1      10.627  14.762  18.094  0.00  0.00    +0.000 F 
ATOM     22  C   UNL     1      10.924  13.007  19.634  0.00  0.00    +0.000 A 
ATOM     23  C   UNL     1      10.655  11.700  20.055  0.00  0.00    +0.000 A 
ATOM     24  C   UNL     1       9.795  10.935  19.259  0.00  0.00    +0.000 A 
ATOM     25  N   UNL     1       9.355   9.640  19.412  0.00  0.00    +0.000 N 
ATOM     26  H   UNL     1       9.603   9.021  20.172  0.00  0.00    +0.000 HD
ENDBRANCH   2  16
TORSDOF 2
ENDMDL
MODEL 3
REMARK VINA RESULT:      -8.3      0.789      1.358
REMARK  Name = 
REMARK  2 active torsions:
REMARK  status: ('A' for Active; 'I' for Inactive)
REMARK    1  A    between atoms: C_2  and  C_14
REMARK    2  A    between atoms: N_3  and  C_4
REMARK                            x       y       z     vdW  Elec       q    Type
REMARK                         _______ _______ _______ _____ _____    ______ ____
ROOT
ATOM      1  O   UNL     1       2.035   9.256  17.337  0.00  0.00    +0.000 OA
ATOM      2  C   UNL     1       1.842   8.749  18.436  0.00  0.00    +0.000 C 
ATOM      3  N   UNL     1       2.284   7.498  18.833  0.00  0.00    +0.000 N 
ATOM      4  H   UNL     1       1.898   7.137  19.693  0.00  0.00    +0.000 HD
ENDROOT
BRANCH   3   5
ATOM      5  C   UNL     1       3.092   6.613  18.087  0.00  0.00    +0.000 A 
ATOM      6  C   UNL     1       2.827   5.229  17.997  0.00  0.00    +0.000 A 
ATOM      7  C   UNL     1       3.669   4.369  17.282  0.00  0.00    +0.000 A 
ATOM      8  C   UNL     1       4.762   4.924  16.666  0.00  0.00    +0.000 A 
ATOM      9  O   UNL     1       5.719   4.237  15.940  0.00  0.00    +0.000 OA
ATOM     10  C   UNL     1       6.594   5.263  15.563  0.00  0.00    +0.000 A 
ATOM     11  O   UNL     1       7.611   5.086  14.909  0.00  0.00    +0.000 OA
ATOM     12  N   UNL     1       6.162   6.484  16.030  0.00  0.00    +0.000 N 
ATOM     13  C   UNL     1       5.010   6.277  16.730  0.00  0.00    +0.000 A 
ATOM     14  C   UNL     1       4.199   7.158  17.414  0.00  0.00    +0.000 A 
ATOM     15  H   UNL     1       6.660   7.344  15.873  0.00  0.00    +0.000 HD
ENDBRANCH   3   5
BRANCH   2  16
ATOM     16  C   UNL     1       1.041   9.438  19.428  0.00  0.00    +0.000 A 
ATOM     17  C   UNL     1       0.859   9.235  20.782  0.00  0.00    +0.000 A 
ATOM     18  C   UNL     1      -0.074  10.195  21.258  0.00  0.00    +0.000 A 
ATOM     19  C   UNL     1      -0.651  10.447  22.515  0.00  0.00    +0.000 A 
ATOM     20  C   UNL     1      -1.567  11.490  22.628  0.00  0.00    +0.000 A 
ATOM     21  F   UNL     1      -2.133  11.732  23.818  0.00  0.00    +0.000 F 
ATOM     22  C   UNL     1      -1.913  12.283  21.540  0.00  0.00    +0.000 A 
ATOM     23  C   UNL     1      -1.344  12.054  20.283  0.00  0.00    +0.000 A 
ATOM     24  C   UNL     1      -0.430  10.999  20.176  0.00  0.00    +0.000 A 
ATOM     25  N   UNL     1       0.277  10.538  19.090  0.00  0.00    +0.000 N 
ATOM     26  H   UNL     1       0.237  10.924  18.157  0.00  0.00    +0.000 HD
ENDBRANCH   2  16
TORSDOF 2
ENDMDL
MODEL 4
REMARK VINA RESULT:      -8.3      8.051     10.303
REMARK  Name = 
REMARK  2 active torsions:
REMARK  status: ('A' for Active; 'I' for Inactive)
REMARK    1  A    between atoms: C_2  and  C_14
REMARK    2  A    between atoms: N_3  and  C_4
REMARK                            x       y       z     vdW  Elec       q    Type
REMARK                         _______ _______ _______ _____ _____    ______ ____
ROOT
ATOM      1  O   UNL     1       9.238  10.440  20.106  0.00  0.00    +0.000 OA
ATOM      2  C   UNL     1       9.196  10.163  18.913  0.00  0.00    +0.000 C 
ATOM      3  N   UNL     1       9.722  10.934  17.890  0.00  0.00    +0.000 N 
ATOM      4  H   UNL     1       9.455  10.676  16.951  0.00  0.00    +0.000 HD
ENDROOT
BRANCH   3   5
ATOM      5  C   UNL     1      10.458  12.130  18.027  0.00  0.00    +0.000 A 
ATOM      6  C   UNL     1      11.610  12.229  18.837  0.00  0.00    +0.000 A 
ATOM      7  C   UNL     1      12.298  13.440  18.985  0.00  0.00    +0.000 A 
ATOM      8  C   UNL     1      11.810  14.529  18.307  0.00  0.00    +0.000 A 
ATOM      9  O   UNL     1      12.333  15.810  18.348  0.00  0.00    +0.000 OA
ATOM     10  C   UNL     1      11.459  16.511  17.509  0.00  0.00    +0.000 A 
ATOM     11  O   UNL     1      11.551  17.706  17.274  0.00  0.00    +0.000 OA
ATOM     12  N   UNL     1      10.489  15.680  16.993  0.00  0.00    +0.000 N 
ATOM     13  C   UNL     1      10.702  14.430  17.496  0.00  0.00    +0.000 A 
ATOM     14  C   UNL     1      10.005  13.254  17.316  0.00  0.00    +0.000 A 
ATOM     15  H   UNL     1       9.760  15.997  16.376  0.00  0.00    +0.000 HD
ENDBRANCH   3   5
BRANCH   2  16
ATOM     16  C   UNL     1       8.503   8.972  18.464  0.00  0.00    +0.000 A 
ATOM     17  C   UNL     1       7.593   8.752  17.448  0.00  0.00    +0.000 A 
ATOM     18  C   UNL     1       7.208   7.385  17.481  0.00  0.00    +0.000 A 
ATOM     19  C   UNL     1       6.309   6.612  16.724  0.00  0.00    +0.000 A 
ATOM     20  C   UNL     1       6.160   5.265  17.043  0.00  0.00    +0.000 A 
ATOM     21  F   UNL     1       5.298   4.521  16.338  0.00  0.00    +0.000 F 
ATOM     22  C   UNL     1       6.878   4.672  18.076  0.00  0.00    +0.000 A 
ATOM     23  C   UNL     1       7.782   5.422  18.835  0.00  0.00    +0.000 A 
ATOM     24  C   UNL     1       7.921   6.777  18.512  0.00  0.00    +0.000 A 
ATOM     25  N   UNL     1       8.715   7.750  19.073  0.00  0.00    +0.000 N 
ATOM     26  H   UNL     1       9.355   7.615  19.843  0.00  0.00    +0.000 HD
ENDBRANCH   2  16
TORSDOF 2
ENDMDL
MODEL 5
REMARK VINA RESULT:      -8.2      1.226      1.706
REMARK  Name = 
REMARK  2 active torsions:
REMARK  status: ('A' for Active; 'I' for Inactive)
REMARK    1  A    between atoms: C_2  and  C_14
REMARK    2  A    between atoms: N_3  and  C_4
REMARK                            x       y       z     vdW  Elec       q    Type
REMARK                         _______ _______ _______ _____ _____    ______ ____
ROOT
ATOM      1  O   UNL     1       1.996   6.131  20.810  0.00  0.00    +0.000 OA
ATOM      2  C   UNL     1       1.857   7.168  20.172  0.00  0.00    +0.000 C 
ATOM      3  N   UNL     1       2.406   7.427  18.928  0.00  0.00    +0.000 N 
ATOM      4  H   UNL     1       2.360   8.384  18.607  0.00  0.00    +0.000 HD
ENDROOT
BRANCH   3   5
ATOM      5  C   UNL     1       3.159   6.535  18.136  0.00  0.00    +0.000 A 
ATOM      6  C   UNL     1       2.819   5.173  17.986  0.00  0.00    +0.000 A 
ATOM      7  C   UNL     1       3.607   4.302  17.225  0.00  0.00    +0.000 A 
ATOM      8  C   UNL     1       4.724   4.825  16.623  0.00  0.00    +0.000 A 
ATOM      9  O   UNL     1       5.638   4.121  15.857  0.00  0.00    +0.000 OA
ATOM     10  C   UNL     1       6.564   5.114  15.519  0.00  0.00    +0.000 A 
ATOM     11  O   UNL     1       7.565   4.913  14.847  0.00  0.00    +0.000 OA
ATOM     12  N   UNL     1       6.202   6.335  16.044  0.00  0.00    +0.000 N 
ATOM     13  C   UNL     1       5.046   6.158  16.746  0.00  0.00    +0.000 A 
ATOM     14  C   UNL     1       4.288   7.049  17.477  0.00  0.00    +0.000 A 
ATOM     15  H   UNL     1       6.745   7.173  15.922  0.00  0.00    +0.000 HD
ENDBRANCH   3   5
BRANCH   2  16
ATOM     16  C   UNL     1       1.114   8.277  20.737  0.00  0.00    +0.000 A 
ATOM     17  C   UNL     1       0.678   8.549  22.020  0.00  0.00    +0.000 A 
ATOM     18  C   UNL     1      -0.041   9.774  21.998  0.00  0.00    +0.000 A 
ATOM     19  C   UNL     1      -0.723  10.516  22.978  0.00  0.00    +0.000 A 
ATOM     20  C   UNL     1      -1.349  11.701  22.599  0.00  0.00    +0.000 A 
ATOM     21  F   UNL     1      -2.012  12.410  23.522  0.00  0.00    +0.000 F 
ATOM     22  C   UNL     1      -1.307  12.165  21.290  0.00  0.00    +0.000 A 
ATOM     23  C   UNL     1      -0.627  11.446  20.301  0.00  0.00    +0.000 A 
ATOM     24  C   UNL     1      -0.008  10.252  20.689  0.00  0.00    +0.000 A 
ATOM     25  N   UNL     1       0.719   9.344  19.954  0.00  0.00    +0.000 N 
ATOM     26  H   UNL     1       0.923   9.417  18.967  0.00  0.00    +0.000 HD
ENDBRANCH   2  16
TORSDOF 2
ENDMDL
MODEL 6
REMARK VINA RESULT:      -8.1      1.186      1.209
REMARK  Name = 
REMARK  2 active torsions:
REMARK  status: ('A' for Active; 'I' for Inactive)
REMARK    1  A    between atoms: C_2  and  C_14
REMARK    2  A    between atoms: N_3  and  C_4
REMARK                            x       y       z     vdW  Elec       q    Type
REMARK                         _______ _______ _______ _____ _____    ______ ____
ROOT
ATOM      1  O   UNL     1       2.437   6.101  20.570  0.00  0.00    +0.000 OA
ATOM      2  C   UNL     1       2.180   7.065  19.858  0.00  0.00    +0.000 C 
ATOM      3  N   UNL     1       2.639   7.256  18.566  0.00  0.00    +0.000 N 
ATOM      4  H   UNL     1       2.498   8.175  18.171  0.00  0.00    +0.000 HD
ENDROOT
BRANCH   3   5
ATOM      5  C   UNL     1       3.419   6.359  17.807  0.00  0.00    +0.000 A 
ATOM      6  C   UNL     1       3.131   4.979  17.721  0.00  0.00    +0.000 A 
ATOM      7  C   UNL     1       3.946   4.106  16.992  0.00  0.00    +0.000 A 
ATOM      8  C   UNL     1       5.036   4.644  16.356  0.00  0.00    +0.000 A 
ATOM      9  O   UNL     1       5.970   3.942  15.613  0.00  0.00    +0.000 OA
ATOM     10  C   UNL     1       6.854   4.954  15.221  0.00  0.00    +0.000 A 
ATOM     11  O   UNL     1       7.856   4.761  14.548  0.00  0.00    +0.000 OA
ATOM     12  N   UNL     1       6.449   6.181  15.695  0.00  0.00    +0.000 N 
ATOM     13  C   UNL     1       5.307   5.993  16.416  0.00  0.00    +0.000 A 
ATOM     14  C   UNL     1       4.522   6.886  17.114  0.00  0.00    +0.000 A 
ATOM     15  H   UNL     1       6.958   7.034  15.529  0.00  0.00    +0.000 HD
ENDBRANCH   3   5
BRANCH   2  16
ATOM     16  C   UNL     1       1.380   8.159  20.373  0.00  0.00    +0.000 A 
ATOM     17  C   UNL     1       0.953   9.346  19.808  0.00  0.00    +0.000 A 
ATOM     18  C   UNL     1       0.218  10.068  20.787  0.00  0.00    +0.000 A 
ATOM     19  C   UNL     1      -0.417  11.322  20.793  0.00  0.00    +0.000 A 
ATOM     20  C   UNL     1      -1.050  11.741  21.961  0.00  0.00    +0.000 A 
ATOM     21  F   UNL     1      -1.648  12.939  21.982  0.00  0.00    +0.000 F 
ATOM     22  C   UNL     1      -1.076  10.951  23.104  0.00  0.00    +0.000 A 
ATOM     23  C   UNL     1      -0.457   9.696  23.116  0.00  0.00    +0.000 A 
ATOM     24  C   UNL     1       0.184   9.287  21.941  0.00  0.00    +0.000 A 
ATOM     25  N   UNL     1       0.869   8.128  21.656  0.00  0.00    +0.000 N 
ATOM     26  H   UNL     1       1.013   7.359  22.295  0.00  0.00    +0.000 HD
ENDBRANCH   2  16
TORSDOF 2
ENDMDL
MODEL 7
REMARK VINA RESULT:      -8.0      4.075      9.006
REMARK  Name = 
REMARK  2 active torsions:
REMARK  status: ('A' for Active; 'I' for Inactive)
REMARK    1  A    between atoms: C_2  and  C_14
REMARK    2  A    between atoms: N_3  and  C_4
REMARK                            x       y       z     vdW  Elec       q    Type
REMARK                         _______ _______ _______ _____ _____    ______ ____
ROOT
ATOM      1  O   UNL     1       1.553   6.203  20.662  0.00  0.00    +0.000 OA
ATOM      2  C   UNL     1       2.058   7.010  19.891  0.00  0.00    +0.000 C 
ATOM      3  N   UNL     1       1.821   8.374  19.886  0.00  0.00    +0.000 N 
ATOM      4  H   UNL     1       2.160   8.886  19.085  0.00  0.00    +0.000 HD
ENDROOT
BRANCH   3   5
ATOM      5  C   UNL     1       1.023   9.095  20.800  0.00  0.00    +0.000 A 
ATOM      6  C   UNL     1       1.006   8.818  22.184  0.00  0.00    +0.000 A 
ATOM      7  C   UNL     1       0.174   9.524  23.061  0.00  0.00    +0.000 A 
ATOM      8  C   UNL     1      -0.624  10.502  22.523  0.00  0.00    +0.000 A 
ATOM      9  O   UNL     1      -1.529  11.285  23.220  0.00  0.00    +0.000 OA
ATOM     10  C   UNL     1      -2.072  12.081  22.205  0.00  0.00    +0.000 A 
ATOM     11  O   UNL     1      -2.941  12.919  22.387  0.00  0.00    +0.000 OA
ATOM     12  N   UNL     1      -1.503  11.790  20.985  0.00  0.00    +0.000 N 
ATOM     13  C   UNL     1      -0.593  10.792  21.177  0.00  0.00    +0.000 A 
ATOM     14  C   UNL     1       0.221  10.128  20.285  0.00  0.00    +0.000 A 
ATOM     15  H   UNL     1      -1.767  12.247  20.128  0.00  0.00    +0.000 HD
ENDBRANCH   3   5
BRANCH   2  16
ATOM     16  C   UNL     1       2.941   6.557  18.835  0.00  0.00    +0.000 A 
ATOM     17  C   UNL     1       3.615   7.228  17.832  0.00  0.00    +0.000 A 
ATOM     18  C   UNL     1       4.316   6.274  17.048  0.00  0.00    +0.000 A 
ATOM     19  C   UNL     1       5.129   6.368  15.904  0.00  0.00    +0.000 A 
ATOM     20  C   UNL     1       5.661   5.197  15.369  0.00  0.00    +0.000 A 
ATOM     21  F   UNL     1       6.426   5.272  14.273  0.00  0.00    +0.000 F 
ATOM     22  C   UNL     1       5.415   3.953  15.940  0.00  0.00    +0.000 A 
ATOM     23  C   UNL     1       4.616   3.839  17.082  0.00  0.00    +0.000 A 
ATOM     24  C   UNL     1       4.079   5.020  17.609  0.00  0.00    +0.000 A 
ATOM     25  N   UNL     1       3.268   5.222  18.702  0.00  0.00    +0.000 N 
ATOM     26  H   UNL     1       2.927   4.500  19.320  0.00  0.00    +0.000 HD
ENDBRANCH   2  16
TORSDOF 2
ENDMDL
MODEL 8
REMARK VINA RESULT:      -8.0      4.156      9.040
REMARK  Name = 
REMARK  2 active torsions:
REMARK  status: ('A' for Active; 'I' for Inactive)
REMARK    1  A    between atoms: C_2  and  C_14
REMARK    2  A    between atoms: N_3  and  C_4
REMARK                            x       y       z     vdW  Elec       q    Type
REMARK                         _______ _______ _______ _____ _____    ______ ____
ROOT
ATOM      1  O   UNL     1       1.533   5.982  20.819  0.00  0.00    +0.000 OA
ATOM      2  C   UNL     1       2.023   6.705  19.959  0.00  0.00    +0.000 C 
ATOM      3  N   UNL     1       1.825   8.070  19.847  0.00  0.00    +0.000 N 
ATOM      4  H   UNL     1       2.139   8.501  18.989  0.00  0.00    +0.000 HD
ENDROOT
BRANCH   3   5
ATOM      5  C   UNL     1       1.091   8.891  20.729  0.00  0.00    +0.000 A 
ATOM      6  C   UNL     1       1.134   8.736  22.132  0.00  0.00    +0.000 A 
ATOM      7  C   UNL     1       0.365   9.540  22.981  0.00  0.00    +0.000 A 
ATOM      8  C   UNL     1      -0.433  10.492  22.396  0.00  0.00    +0.000 A 
ATOM      9  O   UNL     1      -1.282  11.359  23.062  0.00  0.00    +0.000 OA
ATOM     10  C   UNL     1      -1.852  12.080  22.007  0.00  0.00    +0.000 A 
ATOM     11  O   UNL     1      -2.690  12.957  22.154  0.00  0.00    +0.000 OA
ATOM     12  N   UNL     1      -1.351  11.668  20.792  0.00  0.00    +0.000 N 
ATOM     13  C   UNL     1      -0.460  10.663  21.030  0.00  0.00    +0.000 A 
ATOM     14  C   UNL     1       0.292   9.899  20.162  0.00  0.00    +0.000 A 
ATOM     15  H   UNL     1      -1.644  12.057  19.911  0.00  0.00    +0.000 HD
ENDBRANCH   3   5
BRANCH   2  16
ATOM     16  C   UNL     1       2.842   6.135  18.908  0.00  0.00    +0.000 A 
ATOM     17  C   UNL     1       3.127   4.830  18.553  0.00  0.00    +0.000 A 
ATOM     18  C   UNL     1       4.026   4.851  17.453  0.00  0.00    +0.000 A 
ATOM     19  C   UNL     1       4.669   3.849  16.706  0.00  0.00    +0.000 A 
ATOM     20  C   UNL     1       5.521   4.232  15.674  0.00  0.00    +0.000 A 
ATOM     21  F   UNL     1       6.148   3.286  14.963  0.00  0.00    +0.000 F 
ATOM     22  C   UNL     1       5.741   5.569  15.364  0.00  0.00    +0.000 A 
ATOM     23  C   UNL     1       5.105   6.582  16.090  0.00  0.00    +0.000 A 
ATOM     24  C   UNL     1       4.256   6.188  17.130  0.00  0.00    +0.000 A 
ATOM     25  N   UNL     1       3.509   6.941  18.006  0.00  0.00    +0.000 N 
ATOM     26  H   UNL     1       3.462   7.951  18.020  0.00  0.00    +0.000 HD
ENDBRANCH   2  16
TORSDOF 2
ENDMDL
MODEL 9
REMARK VINA RESULT:      -7.9      7.697     10.281
REMARK  Name = 
REMARK  2 active torsions:
REMARK  status: ('A' for Active; 'I' for Inactive)
REMARK    1  A    between atoms: C_2  and  C_14
REMARK    2  A    between atoms: N_3  and  C_4
REMARK                            x       y       z     vdW  Elec       q    Type
REMARK                         _______ _______ _______ _____ _____    ______ ____
ROOT
ATOM      1  O   UNL     1       9.722  10.577  19.649  0.00  0.00    +0.000 OA
ATOM      2  C   UNL     1       9.037  10.434  18.643  0.00  0.00    +0.000 C 
ATOM      3  N   UNL     1       8.686  11.440  17.758  0.00  0.00    +0.000 N 
ATOM      4  H   UNL     1       7.972  11.214  17.081  0.00  0.00    +0.000 HD
ENDROOT
BRANCH   3   5
ATOM      5  C   UNL     1       9.104  12.787  17.804  0.00  0.00    +0.000 A 
ATOM      6  C   UNL     1      10.457  13.172  17.685  0.00  0.00    +0.000 A 
ATOM      7  C   UNL     1      10.846  14.514  17.774  0.00  0.00    +0.000 A 
ATOM      8  C   UNL     1       9.858  15.445  17.977  0.00  0.00    +0.000 A 
ATOM      9  O   UNL     1      10.046  16.809  18.117  0.00  0.00    +0.000 OA
ATOM     10  C   UNL     1       8.738  17.266  18.316  0.00  0.00    +0.000 A 
ATOM     11  O   UNL     1       8.447  18.438  18.504  0.00  0.00    +0.000 OA
ATOM     12  N   UNL     1       7.834  16.228  18.276  0.00  0.00    +0.000 N 
ATOM     13  C   UNL     1       8.534  15.076  18.068  0.00  0.00    +0.000 A 
ATOM     14  C   UNL     1       8.111  13.767  17.974  0.00  0.00    +0.000 A 
ATOM     15  H   UNL     1       6.844  16.350  18.408  0.00  0.00    +0.000 HD
ENDBRANCH   3   5
BRANCH   2  16
ATOM     16  C   UNL     1       8.467   9.139  18.327  0.00  0.00    +0.000 A 
ATOM     17  C   UNL     1       7.629   8.713  17.314  0.00  0.00    +0.000 A 
ATOM     18  C   UNL     1       7.356   7.333  17.510  0.00  0.00    +0.000 A 
ATOM     19  C   UNL     1       6.563   6.394  16.827  0.00  0.00    +0.000 A 
ATOM     20  C   UNL     1       6.509   5.090  17.313  0.00  0.00    +0.000 A 
ATOM     21  F   UNL     1       5.747   4.190  16.678  0.00  0.00    +0.000 F 
ATOM     22  C   UNL     1       7.222   4.699  18.441  0.00  0.00    +0.000 A 
ATOM     23  C   UNL     1       8.024   5.615  19.130  0.00  0.00    +0.000 A 
ATOM     24  C   UNL     1       8.065   6.925  18.639  0.00  0.00    +0.000 A 
ATOM     25  N   UNL     1       8.749   8.028  19.097  0.00  0.00    +0.000 N 
ATOM     26  H   UNL     1       9.359   8.048  19.902  0.00  0.00    +0.000 HD
ENDBRANCH   2  16
TORSDOF 2
ENDMDL
