MODEL 1
REMARK VINA RESULT:      -9.2      0.000      0.000
REMARK  Name = 
REMARK  5 active torsions:
REMARK  status: ('A' for Active; 'I' for Inactive)
REMARK    1  A    between atoms: C_1  and  C_2
REMARK    2  A    between atoms: C_4  and  C_5
REMARK    3  A    between atoms: C_11  and  C_12
REMARK    4  A    between atoms: C_12  and  C_13
REMARK    5  A    between atoms: C_22  and  C_23
REMARK                            x       y       z     vdW  Elec       q    Type
REMARK                         _______ _______ _______ _____ _____    ______ ____
ROOT
ATOM      1  C   UNL     1       2.561   6.651  19.030  0.00  0.00    +0.000 C 
ATOM      2  O   UNL     1       2.340   6.310  20.186  0.00  0.00    +0.000 OA
ATOM      3  N   UNL     1       2.277   7.877  18.454  0.00  0.00    +0.000 N 
ATOM      4  C   UNL     1       1.560   8.810  19.163  0.00  0.00    +0.000 A 
ATOM      5  N   UNL     1       1.188   8.757  20.417  0.00  0.00    +0.000 NA
ATOM      6  C   UNL     1       0.376   9.824  20.712  0.00  0.00    +0.000 A 
ATOM      7  C   UNL     1       0.130  10.695  19.670  0.00  0.00    +0.000 A 
ATOM      8  S   UNL     1       1.026  10.180  18.288  0.00  0.00    +0.000 S 
ATOM      9  H   UNL     1       2.463   8.081  17.485  0.00  0.00    +0.000 HD
ENDROOT
BRANCH   1  13
ATOM     10  C   UNL     1       6.104   5.334  15.740  0.00  0.00    +0.000 C 
ATOM     11  C   UNL     1       4.932   5.000  16.618  0.00  0.00    +0.000 A 
ATOM     12  C   UNL     1       4.249   5.997  17.311  0.00  0.00    +0.000 A 
ATOM     13  C   UNL     1       3.197   5.637  18.170  0.00  0.00    +0.000 A 
ATOM     14  C   UNL     1       2.867   4.268  18.292  0.00  0.00    +0.000 A 
ATOM     15  C   UNL     1       1.965   3.404  18.988  0.00  0.00    +0.000 A 
ATOM     16  C   UNL     1       0.870   3.679  19.950  0.00  0.00    +0.000 C 
ATOM     17  N   UNL     1       2.172   2.118  18.660  0.00  0.00    +0.000 NA
ATOM     18  O   UNL     1       3.214   2.117  17.759  0.00  0.00    +0.000 OA
ATOM     19  C   UNL     1       3.630   3.391  17.535  0.00  0.00    +0.000 A 
ATOM     20  N   UNL     1       4.633   3.689  16.694  0.00  0.00    +0.000 NA
ENDBRANCH   1  13
BRANCH   7  21
ATOM     21  C   UNL     1      -0.770  11.890  19.663  0.00  0.00    +0.000 C 
BRANCH  21  22
ATOM     22  C   UNL     1      -2.016  11.679  18.834  0.00  0.00    +0.000 A 
ATOM     23  C   UNL     1      -3.286  11.988  19.348  0.00  0.00    +0.000 A 
ATOM     24  C   UNL     1      -4.424  11.857  18.549  0.00  0.00    +0.000 A 
ATOM     25  C   UNL     1      -4.306  11.417  17.231  0.00  0.00    +0.000 A 
ATOM     26  C   UNL     1      -3.050  11.095  16.721  0.00  0.00    +0.000 A 
ATOM     27 CL   UNL     1      -2.899  10.555  15.095  0.00  0.00    +0.000 Cl
ATOM     28  C   UNL     1      -1.910  11.220  17.514  0.00  0.00    +0.000 A 
ENDBRANCH  21  22
ENDBRANCH   7  21
TORSDOF 3
ENDMDL
MODEL 2
REMARK VINA RESULT:      -9.1      1.176      1.453
REMARK  Name = 
REMARK  5 active torsions:
REMARK  status: ('A' for Active; 'I' for Inactive)
REMARK    1  A    between atoms: C_1  and  C_2
REMARK    2  A    between atoms: C_4  and  C_5
REMARK    3  A    between atoms: C_11  and  C_12
REMARK    4  A    between atoms: C_12  and  C_13
REMARK    5  A    between atoms: C_22  and  C_23
REMARK                            x       y       z     vdW  Elec       q    Type
REMARK                         _______ _______ _______ _____ _____    ______ ____
ROOT
ATOM      1  C   UNL     1       2.789   6.336  19.041  0.00  0.00    +0.000 C 
ATOM      2  O   UNL     1       2.517   6.041  20.198  0.00  0.00    +0.000 OA
ATOM      3  N   UNL     1       2.547   7.543  18.409  0.00  0.00    +0.000 N 
ATOM      4  C   UNL     1       1.814   8.511  19.053  0.00  0.00    +0.000 A 
ATOM      5  N   UNL     1       1.390   8.509  20.292  0.00  0.00    +0.000 NA
ATOM      6  C   UNL     1       0.583   9.596  20.514  0.00  0.00    +0.000 A 
ATOM      7  C   UNL     1       0.391  10.431  19.432  0.00  0.00    +0.000 A 
ATOM      8  S   UNL     1       1.335   9.854  18.108  0.00  0.00    +0.000 S 
ATOM      9  H   UNL     1       2.774   7.709  17.442  0.00  0.00    +0.000 HD
ENDROOT
BRANCH   1  13
ATOM     10  C   UNL     1       6.515   4.821  16.052  0.00  0.00    +0.000 C 
ATOM     11  C   UNL     1       5.266   4.550  16.841  0.00  0.00    +0.000 A 
ATOM     12  C   UNL     1       4.575   5.585  17.466  0.00  0.00    +0.000 A 
ATOM     13  C   UNL     1       3.446   5.283  18.245  0.00  0.00    +0.000 A 
ATOM     14  C   UNL     1       3.049   3.931  18.359  0.00  0.00    +0.000 A 
ATOM     15  C   UNL     1       2.060   3.116  18.993  0.00  0.00    +0.000 A 
ATOM     16  C   UNL     1       0.907   3.453  19.864  0.00  0.00    +0.000 C 
ATOM     17  N   UNL     1       2.236   1.819  18.698  0.00  0.00    +0.000 NA
ATOM     18  O   UNL     1       3.343   1.760  17.881  0.00  0.00    +0.000 OA
ATOM     19  C   UNL     1       3.830   3.011  17.674  0.00  0.00    +0.000 A 
ATOM     20  N   UNL     1       4.907   3.254  16.909  0.00  0.00    +0.000 NA
ENDBRANCH   1  13
BRANCH   7  21
ATOM     21  C   UNL     1      -0.491  11.636  19.344  0.00  0.00    +0.000 C 
BRANCH  21  22
ATOM     22  C   UNL     1      -1.859  11.320  18.786  0.00  0.00    +0.000 A 
ATOM     23  C   UNL     1      -2.057  10.220  17.936  0.00  0.00    +0.000 A 
ATOM     24  C   UNL     1      -3.338   9.895  17.484  0.00  0.00    +0.000 A 
ATOM     25  C   UNL     1      -4.433  10.665  17.875  0.00  0.00    +0.000 A 
ATOM     26  C   UNL     1      -4.241  11.766  18.705  0.00  0.00    +0.000 A 
ATOM     27 CL   UNL     1      -5.590  12.717  19.193  0.00  0.00    +0.000 Cl
ATOM     28  C   UNL     1      -2.964  12.099  19.158  0.00  0.00    +0.000 A 
ENDBRANCH  21  22
ENDBRANCH   7  21
TORSDOF 3
ENDMDL
MODEL 3
REMARK VINA RESULT:      -8.9      3.645      9.217
REMARK  Name = 
REMARK  5 active torsions:
REMARK  status: ('A' for Active; 'I' for Inactive)
REMARK    1  A    between atoms: C_1  and  C_2
REMARK    2  A    between atoms: C_4  and  C_5
REMARK    3  A    between atoms: C_11  and  C_12
REMARK    4  A    between atoms: C_12  and  C_13
REMARK    5  A    between atoms: C_22  and  C_23
REMARK                            x       y       z     vdW  Elec       q    Type
REMARK                         _______ _______ _______ _____ _____    ______ ____
ROOT
ATOM      1  C   UNL     1       0.693  10.228  19.312  0.00  0.00    +0.000 C 
ATOM      2  O   UNL     1       1.171  10.686  18.282  0.00  0.00    +0.000 OA
ATOM      3  N   UNL     1       1.039   9.041  19.936  0.00  0.00    +0.000 N 
ATOM      4  C   UNL     1       1.913   8.180  19.319  0.00  0.00    +0.000 A 
ATOM      5  N   UNL     1       2.603   8.379  18.224  0.00  0.00    +0.000 NA
ATOM      6  C   UNL     1       3.260   7.229  17.866  0.00  0.00    +0.000 A 
ATOM      7  C   UNL     1       3.066   6.145  18.698  0.00  0.00    +0.000 A 
ATOM      8  S   UNL     1       2.076   6.630  20.026  0.00  0.00    +0.000 S 
ATOM      9  H   UNL     1       0.583   8.711  20.772  0.00  0.00    +0.000 HD
ENDROOT
BRANCH   1  13
ATOM     10  C   UNL     1      -0.804  13.406  22.885  0.00  0.00    +0.000 C 
ATOM     11  C   UNL     1      -1.066  12.600  21.646  0.00  0.00    +0.000 A 
ATOM     12  C   UNL     1      -0.104  11.727  21.142  0.00  0.00    +0.000 A 
ATOM     13  C   UNL     1      -0.363  11.036  19.947  0.00  0.00    +0.000 A 
ATOM     14  C   UNL     1      -1.602  11.252  19.301  0.00  0.00    +0.000 A 
ATOM     15  C   UNL     1      -2.327  10.854  18.134  0.00  0.00    +0.000 A 
ATOM     16  C   UNL     1      -2.001   9.910  17.037  0.00  0.00    +0.000 C 
ATOM     17  N   UNL     1      -3.525  11.456  18.078  0.00  0.00    +0.000 NA
ATOM     18  O   UNL     1      -3.601  12.261  19.192  0.00  0.00    +0.000 OA
ATOM     19  C   UNL     1      -2.463  12.143  19.924  0.00  0.00    +0.000 A 
ATOM     20  N   UNL     1      -2.264  12.815  21.070  0.00  0.00    +0.000 NA
ENDBRANCH   1  13
BRANCH   7  21
ATOM     21  C   UNL     1       3.578   4.750  18.526  0.00  0.00    +0.000 C 
BRANCH  21  22
ATOM     22  C   UNL     1       4.891   4.696  17.781  0.00  0.00    +0.000 A 
ATOM     23  C   UNL     1       6.110   4.910  18.446  0.00  0.00    +0.000 A 
ATOM     24  C   UNL     1       7.321   4.787  17.762  0.00  0.00    +0.000 A 
ATOM     25  C   UNL     1       7.329   4.451  16.409  0.00  0.00    +0.000 A 
ATOM     26  C   UNL     1       6.123   4.252  15.740  0.00  0.00    +0.000 A 
ATOM     27 CL   UNL     1       6.128   3.833  14.072  0.00  0.00    +0.000 Cl
ATOM     28  C   UNL     1       4.909   4.376  16.416  0.00  0.00    +0.000 A 
ENDBRANCH  21  22
ENDBRANCH   7  21
TORSDOF 3
ENDMDL
MODEL 4
REMARK VINA RESULT:      -8.8      2.937      4.113
REMARK  Name = 
REMARK  5 active torsions:
REMARK  status: ('A' for Active; 'I' for Inactive)
REMARK    1  A    between atoms: C_1  and  C_2
REMARK    2  A    between atoms: C_4  and  C_5
REMARK    3  A    between atoms: C_11  and  C_12
REMARK    4  A    between atoms: C_12  and  C_13
REMARK    5  A    between atoms: C_22  and  C_23
REMARK                            x       y       z     vdW  Elec       q    Type
REMARK                         _______ _______ _______ _____ _____    ______ ____
ROOT
ATOM      1  C   UNL     1       2.232   6.923  19.592  0.00  0.00    +0.000 C 
ATOM      2  O   UNL     1       2.378   7.332  18.447  0.00  0.00    +0.000 OA
ATOM      3  N   UNL     1       1.582   7.566  20.631  0.00  0.00    +0.000 N 
ATOM      4  C   UNL     1       1.142   8.856  20.461  0.00  0.00    +0.000 A 
ATOM      5  N   UNL     1       1.136   9.567  19.362  0.00  0.00    +0.000 NA
ATOM      6  C   UNL     1       0.738  10.851  19.634  0.00  0.00    +0.000 A 
ATOM      7  C   UNL     1       0.439  11.118  20.954  0.00  0.00    +0.000 A 
ATOM      8  S   UNL     1       0.595   9.662  21.867  0.00  0.00    +0.000 S 
ATOM      9  H   UNL     1       1.521   7.180  21.560  0.00  0.00    +0.000 HD
ENDROOT
BRANCH   1  13
ATOM     10  C   UNL     1       1.915   2.392  21.710  0.00  0.00    +0.000 C 
ATOM     11  C   UNL     1       2.638   3.406  20.870  0.00  0.00    +0.000 A 
ATOM     12  C   UNL     1       2.143   4.700  20.726  0.00  0.00    +0.000 A 
ATOM     13  C   UNL     1       2.815   5.600  19.883  0.00  0.00    +0.000 A 
ATOM     14  C   UNL     1       3.978   5.155  19.213  0.00  0.00    +0.000 A 
ATOM     15  C   UNL     1       4.968   5.613  18.289  0.00  0.00    +0.000 A 
ATOM     16  C   UNL     1       5.177   6.925  17.627  0.00  0.00    +0.000 C 
ATOM     17  N   UNL     1       5.864   4.650  18.018  0.00  0.00    +0.000 NA
ATOM     18  O   UNL     1       5.472   3.549  18.746  0.00  0.00    +0.000 OA
ATOM     19  C   UNL     1       4.354   3.842  19.460  0.00  0.00    +0.000 A 
ATOM     20  N   UNL     1       3.752   2.952  20.265  0.00  0.00    +0.000 NA
ENDBRANCH   1  13
BRANCH   7  21
ATOM     21  C   UNL     1       0.061  12.431  21.565  0.00  0.00    +0.000 C 
BRANCH  21  22
ATOM     22  C   UNL     1      -1.434  12.600  21.709  0.00  0.00    +0.000 A 
ATOM     23  C   UNL     1      -2.245  12.844  20.589  0.00  0.00    +0.000 A 
ATOM     24  C   UNL     1      -3.633  12.927  20.724  0.00  0.00    +0.000 A 
ATOM     25  C   UNL     1      -4.224  12.768  21.977  0.00  0.00    +0.000 A 
ATOM     26  C   UNL     1      -3.423  12.540  23.094  0.00  0.00    +0.000 A 
ATOM     27 CL   UNL     1      -4.149  12.340  24.641  0.00  0.00    +0.000 Cl
ATOM     28  C   UNL     1      -2.037  12.460  22.967  0.00  0.00    +0.000 A 
ENDBRANCH  21  22
ENDBRANCH   7  21
TORSDOF 3
ENDMDL
MODEL 5
REMARK VINA RESULT:      -8.8      2.352      3.130
REMARK  Name = 
REMARK  5 active torsions:
REMARK  status: ('A' for Active; 'I' for Inactive)
REMARK    1  A    between atoms: C_1  and  C_2
REMARK    2  A    between atoms: C_4  and  C_5
REMARK    3  A    between atoms: C_11  and  C_12
REMARK    4  A    between atoms: C_12  and  C_13
REMARK    5  A    between atoms: C_22  and  C_23
REMARK                            x       y       z     vdW  Elec       q    Type
REMARK                         _______ _______ _______ _____ _____    ______ ____
ROOT
ATOM      1  C   UNL     1       2.599   6.689  19.031  0.00  0.00    +0.000 C 
ATOM      2  O   UNL     1       2.518   6.404  20.219  0.00  0.00    +0.000 OA
ATOM      3  N   UNL     1       2.158   7.849  18.419  0.00  0.00    +0.000 N 
ATOM      4  C   UNL     1       1.431   8.763  19.142  0.00  0.00    +0.000 A 
ATOM      5  N   UNL     1       1.183   8.760  20.428  0.00  0.00    +0.000 NA
ATOM      6  C   UNL     1       0.314   9.773  20.742  0.00  0.00    +0.000 A 
ATOM      7  C   UNL     1      -0.103  10.554  19.683  0.00  0.00    +0.000 A 
ATOM      8  S   UNL     1       0.702  10.028  18.251  0.00  0.00    +0.000 S 
ATOM      9  H   UNL     1       2.234   8.006  17.426  0.00  0.00    +0.000 HD
ENDROOT
BRANCH   1  13
ATOM     10  C   UNL     1       6.152   5.382  15.747  0.00  0.00    +0.000 C 
ATOM     11  C   UNL     1       4.978   5.046  16.621  0.00  0.00    +0.000 A 
ATOM     12  C   UNL     1       4.293   6.040  17.315  0.00  0.00    +0.000 A 
ATOM     13  C   UNL     1       3.238   5.677  18.169  0.00  0.00    +0.000 A 
ATOM     14  C   UNL     1       2.908   4.308  18.286  0.00  0.00    +0.000 A 
ATOM     15  C   UNL     1       2.004   3.441  18.977  0.00  0.00    +0.000 A 
ATOM     16  C   UNL     1       0.906   3.714  19.937  0.00  0.00    +0.000 C 
ATOM     17  N   UNL     1       2.212   2.157  18.645  0.00  0.00    +0.000 NA
ATOM     18  O   UNL     1       3.256   2.159  17.747  0.00  0.00    +0.000 OA
ATOM     19  C   UNL     1       3.673   3.433  17.528  0.00  0.00    +0.000 A 
ATOM     20  N   UNL     1       4.679   3.734  16.691  0.00  0.00    +0.000 NA
ENDBRANCH   1  13
BRANCH   7  21
ATOM     21  C   UNL     1      -1.100  11.670  19.699  0.00  0.00    +0.000 C 
BRANCH  21  22
ATOM     22  C   UNL     1      -1.162  12.381  21.031  0.00  0.00    +0.000 A 
ATOM     23  C   UNL     1      -0.223  13.369  21.367  0.00  0.00    +0.000 A 
ATOM     24  C   UNL     1      -0.333  14.070  22.570  0.00  0.00    +0.000 A 
ATOM     25  C   UNL     1      -1.379  13.791  23.449  0.00  0.00    +0.000 A 
ATOM     26  C   UNL     1      -2.304  12.800  23.128  0.00  0.00    +0.000 A 
ATOM     27 CL   UNL     1      -3.599  12.455  24.207  0.00  0.00    +0.000 Cl
ATOM     28  C   UNL     1      -2.199  12.095  21.930  0.00  0.00    +0.000 A 
ENDBRANCH  21  22
ENDBRANCH   7  21
TORSDOF 3
ENDMDL
MODEL 6
REMARK VINA RESULT:      -8.7      4.063      9.145
REMARK  Name = 
REMARK  5 active torsions:
REMARK  status: ('A' for Active; 'I' for Inactive)
REMARK    1  A    between atoms: C_1  and  C_2
REMARK    2  A    between atoms: C_4  and  C_5
REMARK    3  A    between atoms: C_11  and  C_12
REMARK    4  A    between atoms: C_12  and  C_13
REMARK    5  A    between atoms: C_22  and  C_23
REMARK                            x       y       z     vdW  Elec       q    Type
REMARK                         _______ _______ _______ _____ _____    ______ ____
ROOT
ATOM      1  C   UNL     1      -0.609  11.251  19.284  0.00  0.00    +0.000 C 
ATOM      2  O   UNL     1      -0.345  11.643  18.155  0.00  0.00    +0.000 OA
ATOM      3  N   UNL     1       0.043  10.259  19.997  0.00  0.00    +0.000 N 
ATOM      4  C   UNL     1       1.018   9.511  19.381  0.00  0.00    +0.000 A 
ATOM      5  N   UNL     1       1.537   9.686  18.192  0.00  0.00    +0.000 NA
ATOM      6  C   UNL     1       2.387   8.651  17.894  0.00  0.00    +0.000 A 
ATOM      7  C   UNL     1       2.514   7.681  18.867  0.00  0.00    +0.000 A 
ATOM      8  S   UNL     1       1.579   8.143  20.241  0.00  0.00    +0.000 S 
ATOM      9  H   UNL     1      -0.246   9.968  20.917  0.00  0.00    +0.000 HD
ENDROOT
BRANCH   1  13
ATOM     10  C   UNL     1      -2.410  14.313  22.819  0.00  0.00    +0.000 C 
ATOM     11  C   UNL     1      -2.602  13.423  21.625  0.00  0.00    +0.000 A 
ATOM     12  C   UNL     1      -1.541  12.688  21.101  0.00  0.00    +0.000 A 
ATOM     13  C   UNL     1      -1.747  11.914  19.947  0.00  0.00    +0.000 A 
ATOM     14  C   UNL     1      -3.034  11.908  19.362  0.00  0.00    +0.000 A 
ATOM     15  C   UNL     1      -3.743  11.353  18.251  0.00  0.00    +0.000 A 
ATOM     16  C   UNL     1      -3.327  10.424  17.172  0.00  0.00    +0.000 C 
ATOM     17  N   UNL     1      -5.022  11.760  18.238  0.00  0.00    +0.000 NA
ATOM     18  O   UNL     1      -5.169  12.592  19.326  0.00  0.00    +0.000 OA
ATOM     19  C   UNL     1      -3.992  12.683  19.999  0.00  0.00    +0.000 A 
ATOM     20  N   UNL     1      -3.845  13.426  21.107  0.00  0.00    +0.000 NA
ENDBRANCH   1  13
BRANCH   7  21
ATOM     21  C   UNL     1       3.295   6.406  18.799  0.00  0.00    +0.000 C 
BRANCH  21  22
ATOM     22  C   UNL     1       2.428   5.179  18.958  0.00  0.00    +0.000 A 
ATOM     23  C   UNL     1       1.782   4.603  17.852  0.00  0.00    +0.000 A 
ATOM     24  C   UNL     1       1.041   3.428  17.998  0.00  0.00    +0.000 A 
ATOM     25  C   UNL     1       0.937   2.818  19.247  0.00  0.00    +0.000 A 
ATOM     26  C   UNL     1       1.563   3.394  20.351  0.00  0.00    +0.000 A 
ATOM     27 CL   UNL     1       1.440   2.642  21.894  0.00  0.00    +0.000 Cl
ATOM     28  C   UNL     1       2.301   4.568  20.213  0.00  0.00    +0.000 A 
ENDBRANCH  21  22
ENDBRANCH   7  21
TORSDOF 3
ENDMDL
MODEL 7
REMARK VINA RESULT:      -8.6      2.690      3.095
REMARK  Name = 
REMARK  5 active torsions:
REMARK  status: ('A' for Active; 'I' for Inactive)
REMARK    1  A    between atoms: C_1  and  C_2
REMARK    2  A    between atoms: C_4  and  C_5
REMARK    3  A    between atoms: C_11  and  C_12
REMARK    4  A    between atoms: C_12  and  C_13
REMARK    5  A    between atoms: C_22  and  C_23
REMARK                            x       y       z     vdW  Elec       q    Type
REMARK                         _______ _______ _______ _____ _____    ______ ____
ROOT
ATOM      1  C   UNL     1       2.588   6.963  19.054  0.00  0.00    +0.000 C 
ATOM      2  O   UNL     1       2.179   7.389  17.982  0.00  0.00    +0.000 OA
ATOM      3  N   UNL     1       2.207   7.380  20.318  0.00  0.00    +0.000 N 
ATOM      4  C   UNL     1       1.381   8.469  20.452  0.00  0.00    +0.000 A 
ATOM      5  N   UNL     1       0.765   9.135  19.508  0.00  0.00    +0.000 NA
ATOM      6  C   UNL     1       0.140  10.235  20.038  0.00  0.00    +0.000 A 
ATOM      7  C   UNL     1       0.282  10.405  21.401  0.00  0.00    +0.000 A 
ATOM      8  S   UNL     1       1.178   9.076  22.039  0.00  0.00    +0.000 S 
ATOM      9  H   UNL     1       2.607   7.001  21.162  0.00  0.00    +0.000 HD
ENDROOT
BRANCH   1  13
ATOM     10  C   UNL     1       7.282   5.449  18.167  0.00  0.00    +0.000 C 
ATOM     11  C   UNL     1       5.868   5.175  18.591  0.00  0.00    +0.000 A 
ATOM     12  C   UNL     1       4.893   6.167  18.516  0.00  0.00    +0.000 A 
ATOM     13  C   UNL     1       3.595   5.889  18.978  0.00  0.00    +0.000 A 
ATOM     14  C   UNL     1       3.329   4.602  19.500  0.00  0.00    +0.000 A 
ATOM     15  C   UNL     1       2.267   3.842  20.083  0.00  0.00    +0.000 A 
ATOM     16  C   UNL     1       0.848   4.172  20.364  0.00  0.00    +0.000 C 
ATOM     17  N   UNL     1       2.674   2.602  20.398  0.00  0.00    +0.000 NA
ATOM     18  O   UNL     1       4.002   2.533  20.040  0.00  0.00    +0.000 OA
ATOM     19  C   UNL     1       4.396   3.717  19.504  0.00  0.00    +0.000 A 
ATOM     20  N   UNL     1       5.646   3.933  19.062  0.00  0.00    +0.000 NA
ENDBRANCH   1  13
BRANCH   7  21
ATOM     21  C   UNL     1      -0.210  11.540  22.242  0.00  0.00    +0.000 C 
BRANCH  21  22
ATOM     22  C   UNL     1      -1.577  12.030  21.823  0.00  0.00    +0.000 A 
ATOM     23  C   UNL     1      -1.889  12.227  20.468  0.00  0.00    +0.000 A 
ATOM     24  C   UNL     1      -3.177  12.611  20.087  0.00  0.00    +0.000 A 
ATOM     25  C   UNL     1      -4.164  12.801  21.053  0.00  0.00    +0.000 A 
ATOM     26  C   UNL     1      -3.856  12.622  22.399  0.00  0.00    +0.000 A 
ATOM     27 CL   UNL     1      -5.072  12.853  23.594  0.00  0.00    +0.000 Cl
ATOM     28  C   UNL     1      -2.572  12.242  22.787  0.00  0.00    +0.000 A 
ENDBRANCH  21  22
ENDBRANCH   7  21
TORSDOF 3
ENDMDL
MODEL 8
REMARK VINA RESULT:      -8.6      2.146      2.992
REMARK  Name = 
REMARK  5 active torsions:
REMARK  status: ('A' for Active; 'I' for Inactive)
REMARK    1  A    between atoms: C_1  and  C_2
REMARK    2  A    between atoms: C_4  and  C_5
REMARK    3  A    between atoms: C_11  and  C_12
REMARK    4  A    between atoms: C_12  and  C_13
REMARK    5  A    between atoms: C_22  and  C_23
REMARK                            x       y       z     vdW  Elec       q    Type
REMARK                         _______ _______ _______ _____ _____    ______ ____
ROOT
ATOM      1  C   UNL     1       2.663   6.504  19.032  0.00  0.00    +0.000 C 
ATOM      2  O   UNL     1       2.581   6.229  20.222  0.00  0.00    +0.000 OA
ATOM      3  N   UNL     1       2.309   7.696  18.424  0.00  0.00    +0.000 N 
ATOM      4  C   UNL     1       1.675   8.669  19.157  0.00  0.00    +0.000 A 
ATOM      5  N   UNL     1       1.452   8.689  20.447  0.00  0.00    +0.000 NA
ATOM      6  C   UNL     1       0.676   9.772  20.775  0.00  0.00    +0.000 A 
ATOM      7  C   UNL     1       0.306  10.583  19.721  0.00  0.00    +0.000 A 
ATOM      8  S   UNL     1       1.036   9.989  18.275  0.00  0.00    +0.000 S 
ATOM      9  H   UNL     1       2.379   7.844  17.429  0.00  0.00    +0.000 HD
ENDROOT
BRANCH   1  13
ATOM     10  C   UNL     1       5.994   4.919  15.639  0.00  0.00    +0.000 C 
ATOM     11  C   UNL     1       4.833   4.674  16.560  0.00  0.00    +0.000 A 
ATOM     12  C   UNL     1       4.244   5.721  17.264  0.00  0.00    +0.000 A 
ATOM     13  C   UNL     1       3.200   5.442  18.161  0.00  0.00    +0.000 A 
ATOM     14  C   UNL     1       2.782   4.099  18.310  0.00  0.00    +0.000 A 
ATOM     15  C   UNL     1       1.847   3.305  19.045  0.00  0.00    +0.000 A 
ATOM     16  C   UNL     1       0.806   3.663  20.040  0.00  0.00    +0.000 C 
ATOM     17  N   UNL     1       1.955   2.006  18.724  0.00  0.00    +0.000 NA
ATOM     18  O   UNL     1       2.962   1.926  17.789  0.00  0.00    +0.000 OA
ATOM     19  C   UNL     1       3.457   3.166  17.537  0.00  0.00    +0.000 A 
ATOM     20  N   UNL     1       4.449   3.387  16.660  0.00  0.00    +0.000 NA
ENDBRANCH   1  13
BRANCH   7  21
ATOM     21  C   UNL     1      -0.595  11.778  19.751  0.00  0.00    +0.000 C 
BRANCH  21  22
ATOM     22  C   UNL     1       0.159  13.082  19.626  0.00  0.00    +0.000 A 
ATOM     23  C   UNL     1       1.509  13.175  20.001  0.00  0.00    +0.000 A 
ATOM     24  C   UNL     1       2.215  14.365  19.814  0.00  0.00    +0.000 A 
ATOM     25  C   UNL     1       1.581  15.473  19.252  0.00  0.00    +0.000 A 
ATOM     26  C   UNL     1       0.238  15.391  18.893  0.00  0.00    +0.000 A 
ATOM     27 CL   UNL     1      -0.548  16.754  18.197  0.00  0.00    +0.000 Cl
ATOM     28  C   UNL     1      -0.474  14.207  19.080  0.00  0.00    +0.000 A 
ENDBRANCH  21  22
ENDBRANCH   7  21
TORSDOF 3
ENDMDL
MODEL 9
REMARK VINA RESULT:      -8.6      3.866      9.348
REMARK  Name = 
REMARK  5 active torsions:
REMARK  status: ('A' for Active; 'I' for Inactive)
REMARK    1  A    between atoms: C_1  and  C_2
REMARK    2  A    between atoms: C_4  and  C_5
REMARK    3  A    between atoms: C_11  and  C_12
REMARK    4  A    between atoms: C_12  and  C_13
REMARK    5  A    between atoms: C_22  and  C_23
REMARK                            x       y       z     vdW  Elec       q    Type
REMARK                         _______ _______ _______ _____ _____    ______ ____
ROOT
ATOM      1  C   UNL     1       0.588  10.390  19.362  0.00  0.00    +0.000 C 
ATOM      2  O   UNL     1       1.070  10.833  18.327  0.00  0.00    +0.000 OA
ATOM      3  N   UNL     1       0.897   9.191  19.980  0.00  0.00    +0.000 N 
ATOM      4  C   UNL     1       1.733   8.300  19.352  0.00  0.00    +0.000 A 
ATOM      5  N   UNL     1       2.417   8.477  18.250  0.00  0.00    +0.000 NA
ATOM      6  C   UNL     1       3.028   7.304  17.882  0.00  0.00    +0.000 A 
ATOM      7  C   UNL     1       2.805   6.227  18.715  0.00  0.00    +0.000 A 
ATOM      8  S   UNL     1       1.848   6.744  20.054  0.00  0.00    +0.000 S 
ATOM      9  H   UNL     1       0.439   8.876  20.821  0.00  0.00    +0.000 HD
ENDROOT
BRANCH   1  13
ATOM     10  C   UNL     1      -0.711  13.753  22.843  0.00  0.00    +0.000 C 
ATOM     11  C   UNL     1      -1.040  12.886  21.662  0.00  0.00    +0.000 A 
ATOM     12  C   UNL     1      -0.108  11.984  21.154  0.00  0.00    +0.000 A 
ATOM     13  C   UNL     1      -0.432  11.235  20.010  0.00  0.00    +0.000 A 
ATOM     14  C   UNL     1      -1.703  11.423  19.421  0.00  0.00    +0.000 A 
ATOM     15  C   UNL     1      -2.490  10.970  18.316  0.00  0.00    +0.000 A 
ATOM     16  C   UNL     1      -2.224   9.970  17.252  0.00  0.00    +0.000 C 
ATOM     17  N   UNL     1      -3.688  11.574  18.292  0.00  0.00    +0.000 NA
ATOM     18  O   UNL     1      -3.703  12.436  19.367  0.00  0.00    +0.000 OA
ATOM     19  C   UNL     1      -2.528  12.349  20.043  0.00  0.00    +0.000 A 
ATOM     20  N   UNL     1      -2.267  13.077  21.140  0.00  0.00    +0.000 NA
ENDBRANCH   1  13
BRANCH   7  21
ATOM     21  C   UNL     1       3.265   4.814  18.535  0.00  0.00    +0.000 C 
BRANCH  21  22
ATOM     22  C   UNL     1       4.691   4.721  18.045  0.00  0.00    +0.000 A 
ATOM     23  C   UNL     1       4.982   4.262  16.750  0.00  0.00    +0.000 A 
ATOM     24  C   UNL     1       6.298   4.248  16.282  0.00  0.00    +0.000 A 
ATOM     25  C   UNL     1       7.335   4.691  17.101  0.00  0.00    +0.000 A 
ATOM     26  C   UNL     1       7.055   5.133  18.392  0.00  0.00    +0.000 A 
ATOM     27 CL   UNL     1       8.332   5.684  19.405  0.00  0.00    +0.000 Cl
ATOM     28  C   UNL     1       5.744   5.147  18.867  0.00  0.00    +0.000 A 
ENDBRANCH  21  22
ENDBRANCH   7  21
TORSDOF 3
ENDMDL
