MODEL 1
REMARK VINA RESULT:      -8.3      0.000      0.000
REMARK  Name = 
REMARK  8 active torsions:
REMARK  status: ('A' for Active; 'I' for Inactive)
REMARK    1  A    between atoms: C_1  and  C_2
REMARK    2  A    between atoms: C_2  and  N_3
REMARK    3  A    between atoms: C_7  and  C_8
REMARK    4  A    between atoms: C_8  and  C_9
REMARK    5  A    between atoms: C_8  and  C_10
REMARK    6  A    between atoms: C_14  and  N_15
REMARK    7  A    between atoms: C_16  and  C_18
REMARK    8  A    between atoms: N_24  and  C_25
REMARK                            x       y       z     vdW  Elec       q    Type
REMARK                         _______ _______ _______ _____ _____    ______ ____
ROOT
ATOM      1  C   UNL     1       3.620   5.266  18.954  0.00  0.00    +0.000 A 
ATOM      2  C   UNL     1       3.152   3.986  19.301  0.00  0.00    +0.000 A 
ATOM      3  C   UNL     1       1.997   3.830  20.049  0.00  0.00    +0.000 A 
ATOM      4  C   UNL     1       1.337   4.952  20.532  0.00  0.00    +0.000 A 
ATOM      5  C   UNL     1       1.850   6.240  20.348  0.00  0.00    +0.000 A 
ATOM      6  C   UNL     1       2.966   6.398  19.499  0.00  0.00    +0.000 A 
ENDROOT
BRANCH   5   7
ATOM      7  N   UNL     1       1.292   7.356  21.036  0.00  0.00    +0.000 N 
ATOM      8  C   UNL     1       1.108   8.616  20.462  0.00  0.00    +0.000 C 
ATOM      9  O   UNL     1       1.436   8.946  19.325  0.00  0.00    +0.000 OA
ATOM     10  H   UNL     1       0.843   7.204  21.935  0.00  0.00    +0.000 HD
BRANCH   8  11
ATOM     11  C   UNL     1       0.396   9.650  21.272  0.00  0.00    +0.000 A 
ATOM     12  C   UNL     1      -0.290   9.239  22.415  0.00  0.00    +0.000 A 
ATOM     13  C   UNL     1      -0.918  10.216  23.140  0.00  0.00    +0.000 A 
ATOM     14  C   UNL     1      -0.763  11.436  22.582  0.00  0.00    +0.000 A 
ATOM     15  C   UNL     1      -0.127  11.973  21.473  0.00  0.00    +0.000 A 
ATOM     16  N   UNL     1       0.444  10.959  20.832  0.00  0.00    +0.000 NA
ATOM     17  N   UNL     1      -0.660  12.701  22.658  0.00  0.00    +0.000 N 
ATOM     18  C   UNL     1      -1.483  13.704  22.008  0.00  0.00    +0.000 C 
ENDBRANCH   8  11
ENDBRANCH   5   7
BRANCH   1  19
ATOM     19  C   UNL     1       4.845   5.325  18.047  0.00  0.00    +0.000 C 
ATOM     20  C   UNL     1       4.919   4.092  17.135  0.00  0.00    +0.000 C 
BRANCH  19  25
ATOM     21  N   UNL     1       7.154   6.455  18.346  0.00  0.00    +0.000 N 
ATOM     22  C   UNL     1       8.220   6.207  19.164  0.00  0.00    +0.000 A 
ATOM     23  N   UNL     1       7.920   5.250  20.005  0.00  0.00    +0.000 NA
ATOM     24  N   UNL     1       6.636   4.858  19.736  0.00  0.00    +0.000 NA
ATOM     25  C   UNL     1       6.166   5.577  18.730  0.00  0.00    +0.000 A 
BRANCH  21  27
ATOM     26  C   UNL     1       7.942   8.689  17.656  0.00  0.00    +0.000 C 
ATOM     27  C   UNL     1       7.185   7.428  17.277  0.00  0.00    +0.000 C 
ENDBRANCH  21  27
ENDBRANCH  19  25
ENDBRANCH   1  19
TORSDOF 5
ENDMDL
MODEL 2
REMARK VINA RESULT:      -8.0      2.812      4.288
REMARK  Name = 
REMARK  8 active torsions:
REMARK  status: ('A' for Active; 'I' for Inactive)
REMARK    1  A    between atoms: C_1  and  C_2
REMARK    2  A    between atoms: C_2  and  N_3
REMARK    3  A    between atoms: C_7  and  C_8
REMARK    4  A    between atoms: C_8  and  C_9
REMARK    5  A    between atoms: C_8  and  C_10
REMARK    6  A    between atoms: C_14  and  N_15
REMARK    7  A    between atoms: C_16  and  C_18
REMARK    8  A    between atoms: N_24  and  C_25
REMARK                            x       y       z     vdW  Elec       q    Type
REMARK                         _______ _______ _______ _____ _____    ______ ____
ROOT
ATOM      1  C   UNL     1       2.651   7.050  19.485  0.00  0.00    +0.000 A 
ATOM      2  C   UNL     1       2.945   7.427  18.163  0.00  0.00    +0.000 A 
ATOM      3  C   UNL     1       2.430   8.594  17.625  0.00  0.00    +0.000 A 
ATOM      4  C   UNL     1       1.548   9.363  18.373  0.00  0.00    +0.000 A 
ATOM      5  C   UNL     1       1.103   8.949  19.633  0.00  0.00    +0.000 A 
ATOM      6  C   UNL     1       1.709   7.817  20.215  0.00  0.00    +0.000 A 
ENDROOT
BRANCH   5   7
ATOM      7  N   UNL     1       0.033   9.624  20.289  0.00  0.00    +0.000 N 
ATOM      8  C   UNL     1       0.195  10.771  21.070  0.00  0.00    +0.000 C 
ATOM      9  O   UNL     1       1.262  11.321  21.332  0.00  0.00    +0.000 OA
ATOM     10  H   UNL     1      -0.923   9.375  20.054  0.00  0.00    +0.000 HD
BRANCH   8  11
ATOM     11  C   UNL     1      -1.038  11.436  21.591  0.00  0.00    +0.000 A 
ATOM     12  C   UNL     1      -1.328  11.322  22.950  0.00  0.00    +0.000 A 
ATOM     13  C   UNL     1      -2.457  11.956  23.393  0.00  0.00    +0.000 A 
ATOM     14  C   UNL     1      -3.111  12.581  22.390  0.00  0.00    +0.000 A 
ATOM     15  C   UNL     1      -2.941  12.766  21.026  0.00  0.00    +0.000 A 
ATOM     16  N   UNL     1      -1.833  12.114  20.688  0.00  0.00    +0.000 NA
ATOM     17  N   UNL     1      -3.851  13.512  21.939  0.00  0.00    +0.000 N 
ATOM     18  C   UNL     1      -5.109  13.386  21.227  0.00  0.00    +0.000 C 
ENDBRANCH   8  11
ENDBRANCH   5   7
BRANCH   1  19
ATOM     19  C   UNL     1       3.346   5.798  20.012  0.00  0.00    +0.000 C 
ATOM     20  C   UNL     1       4.556   5.429  19.142  0.00  0.00    +0.000 C 
BRANCH  19  25
ATOM     21  N   UNL     1       1.693   3.927  19.328  0.00  0.00    +0.000 N 
ATOM     22  C   UNL     1       0.944   3.033  20.040  0.00  0.00    +0.000 A 
ATOM     23  N   UNL     1       1.227   3.131  21.314  0.00  0.00    +0.000 NA
ATOM     24  N   UNL     1       2.178   4.107  21.446  0.00  0.00    +0.000 NA
ATOM     25  C   UNL     1       2.462   4.599  20.251  0.00  0.00    +0.000 A 
BRANCH  21  27
ATOM     26  C   UNL     1       2.480   3.153  17.122  0.00  0.00    +0.000 C 
ATOM     27  C   UNL     1       1.578   4.097  17.898  0.00  0.00    +0.000 C 
ENDBRANCH  21  27
ENDBRANCH  19  25
ENDBRANCH   1  19
TORSDOF 5
ENDMDL
MODEL 3
REMARK VINA RESULT:      -8.0      2.434      3.028
REMARK  Name = 
REMARK  8 active torsions:
REMARK  status: ('A' for Active; 'I' for Inactive)
REMARK    1  A    between atoms: C_1  and  C_2
REMARK    2  A    between atoms: C_2  and  N_3
REMARK    3  A    between atoms: C_7  and  C_8
REMARK    4  A    between atoms: C_8  and  C_9
REMARK    5  A    between atoms: C_8  and  C_10
REMARK    6  A    between atoms: C_14  and  N_15
REMARK    7  A    between atoms: C_16  and  C_18
REMARK    8  A    between atoms: N_24  and  C_25
REMARK                            x       y       z     vdW  Elec       q    Type
REMARK                         _______ _______ _______ _____ _____    ______ ____
ROOT
ATOM      1  C   UNL     1       3.072   5.094  18.627  0.00  0.00    +0.000 A 
ATOM      2  C   UNL     1       2.759   4.413  19.816  0.00  0.00    +0.000 A 
ATOM      3  C   UNL     1       1.992   5.016  20.800  0.00  0.00    +0.000 A 
ATOM      4  C   UNL     1       1.594   6.337  20.645  0.00  0.00    +0.000 A 
ATOM      5  C   UNL     1       2.013   7.105  19.553  0.00  0.00    +0.000 A 
ATOM      6  C   UNL     1       2.705   6.458  18.508  0.00  0.00    +0.000 A 
ENDROOT
BRANCH   5   7
ATOM      7  N   UNL     1       1.790   8.512  19.519  0.00  0.00    +0.000 N 
ATOM      8  C   UNL     1       1.880   9.290  18.362  0.00  0.00    +0.000 C 
ATOM      9  O   UNL     1       2.200   8.889  17.246  0.00  0.00    +0.000 OA
ATOM     10  H   UNL     1       1.380   8.964  20.332  0.00  0.00    +0.000 HD
BRANCH   8  11
ATOM     11  C   UNL     1       1.496  10.731  18.464  0.00  0.00    +0.000 A 
ATOM     12  C   UNL     1       2.423  11.693  18.066  0.00  0.00    +0.000 A 
ATOM     13  C   UNL     1       2.032  13.001  18.160  0.00  0.00    +0.000 A 
ATOM     14  C   UNL     1       0.780  13.118  18.654  0.00  0.00    +0.000 A 
ATOM     15  C   UNL     1      -0.227  12.267  19.084  0.00  0.00    +0.000 A 
ATOM     16  N   UNL     1       0.244  11.029  18.965  0.00  0.00    +0.000 NA
ATOM     17  N   UNL     1      -0.341  13.713  18.747  0.00  0.00    +0.000 N 
ATOM     18  C   UNL     1      -0.985  14.218  19.945  0.00  0.00    +0.000 C 
ENDBRANCH   8  11
ENDBRANCH   5   7
BRANCH   1  19
ATOM     19  C   UNL     1       3.840   4.307  17.568  0.00  0.00    +0.000 C 
ATOM     20  C   UNL     1       3.501   2.811  17.636  0.00  0.00    +0.000 C 
BRANCH  19  25
ATOM     21  N   UNL     1       6.109   4.813  16.431  0.00  0.00    +0.000 N 
ATOM     22  C   UNL     1       7.405   4.749  16.857  0.00  0.00    +0.000 A 
ATOM     23  N   UNL     1       7.440   4.451  18.131  0.00  0.00    +0.000 NA
ATOM     24  N   UNL     1       6.144   4.314  18.553  0.00  0.00    +0.000 NA
ATOM     25  C   UNL     1       5.332   4.525  17.530  0.00  0.00    +0.000 A 
BRANCH  21  27
ATOM     26  C   UNL     1       6.184   3.977  14.111  0.00  0.00    +0.000 C 
ATOM     27  C   UNL     1       5.737   5.077  15.059  0.00  0.00    +0.000 C 
ENDBRANCH  21  27
ENDBRANCH  19  25
ENDBRANCH   1  19
TORSDOF 5
ENDMDL
MODEL 4
REMARK VINA RESULT:      -7.9      2.791      4.582
REMARK  Name = 
REMARK  8 active torsions:
REMARK  status: ('A' for Active; 'I' for Inactive)
REMARK    1  A    between atoms: C_1  and  C_2
REMARK    2  A    between atoms: C_2  and  N_3
REMARK    3  A    between atoms: C_7  and  C_8
REMARK    4  A    between atoms: C_8  and  C_9
REMARK    5  A    between atoms: C_8  and  C_10
REMARK    6  A    between atoms: C_14  and  N_15
REMARK    7  A    between atoms: C_16  and  C_18
REMARK    8  A    between atoms: N_24  and  C_25
REMARK                            x       y       z     vdW  Elec       q    Type
REMARK                         _______ _______ _______ _____ _____    ______ ____
ROOT
ATOM      1  C   UNL     1       2.393   7.217  19.212  0.00  0.00    +0.000 A 
ATOM      2  C   UNL     1       2.832   7.786  18.004  0.00  0.00    +0.000 A 
ATOM      3  C   UNL     1       2.455   9.069  17.644  0.00  0.00    +0.000 A 
ATOM      4  C   UNL     1       1.568   9.774  18.447  0.00  0.00    +0.000 A 
ATOM      5  C   UNL     1       0.981   9.192  19.576  0.00  0.00    +0.000 A 
ATOM      6  C   UNL     1       1.447   7.928  19.993  0.00  0.00    +0.000 A 
ENDROOT
BRANCH   5   7
ATOM      7  N   UNL     1      -0.091   9.837  20.257  0.00  0.00    +0.000 N 
ATOM      8  C   UNL     1       0.072  10.927  21.117  0.00  0.00    +0.000 C 
ATOM      9  O   UNL     1       1.142  11.441  21.434  0.00  0.00    +0.000 OA
ATOM     10  H   UNL     1      -1.046   9.618  19.990  0.00  0.00    +0.000 HD
BRANCH   8  11
ATOM     11  C   UNL     1      -1.161  11.572  21.660  0.00  0.00    +0.000 A 
ATOM     12  C   UNL     1      -1.475  11.374  23.004  0.00  0.00    +0.000 A 
ATOM     13  C   UNL     1      -2.604  11.993  23.470  0.00  0.00    +0.000 A 
ATOM     14  C   UNL     1      -3.233  12.691  22.499  0.00  0.00    +0.000 A 
ATOM     15  C   UNL     1      -3.038  12.962  21.154  0.00  0.00    +0.000 A 
ATOM     16  N   UNL     1      -1.932  12.319  20.791  0.00  0.00    +0.000 NA
ATOM     17  N   UNL     1      -3.953  13.660  22.099  0.00  0.00    +0.000 N 
ATOM     18  C   UNL     1      -5.200  13.598  21.359  0.00  0.00    +0.000 C 
ENDBRANCH   8  11
ENDBRANCH   5   7
BRANCH   1  19
ATOM     19  C   UNL     1       2.943   5.837  19.560  0.00  0.00    +0.000 C 
ATOM     20  C   UNL     1       4.465   5.782  19.364  0.00  0.00    +0.000 C 
BRANCH  19  25
ATOM     21  N   UNL     1       1.542   3.662  19.498  0.00  0.00    +0.000 N 
ATOM     22  C   UNL     1       1.279   2.745  18.520  0.00  0.00    +0.000 A 
ATOM     23  N   UNL     1       1.792   3.146  17.385  0.00  0.00    +0.000 NA
ATOM     24  N   UNL     1       2.406   4.348  17.618  0.00  0.00    +0.000 NA
ATOM     25  C   UNL     1       2.266   4.665  18.895  0.00  0.00    +0.000 A 
BRANCH  21  27
ATOM     26  C   UNL     1       2.205   2.769  21.701  0.00  0.00    +0.000 C 
ATOM     27  C   UNL     1       1.148   3.485  20.877  0.00  0.00    +0.000 C 
ENDBRANCH  21  27
ENDBRANCH  19  25
ENDBRANCH   1  19
TORSDOF 5
ENDMDL
MODEL 5
REMARK VINA RESULT:      -7.9      1.550      1.997
REMARK  Name = 
REMARK  8 active torsions:
REMARK  status: ('A' for Active; 'I' for Inactive)
REMARK    1  A    between atoms: C_1  and  C_2
REMARK    2  A    between atoms: C_2  and  N_3
REMARK    3  A    between atoms: C_7  and  C_8
REMARK    4  A    between atoms: C_8  and  C_9
REMARK    5  A    between atoms: C_8  and  C_10
REMARK    6  A    between atoms: C_14  and  N_15
REMARK    7  A    between atoms: C_16  and  C_18
REMARK    8  A    between atoms: N_24  and  C_25
REMARK                            x       y       z     vdW  Elec       q    Type
REMARK                         _______ _______ _______ _____ _____    ______ ____
ROOT
ATOM      1  C   UNL     1       3.266   4.028  19.021  0.00  0.00    +0.000 A 
ATOM      2  C   UNL     1       3.331   2.961  19.934  0.00  0.00    +0.000 A 
ATOM      3  C   UNL     1       2.616   2.995  21.120  0.00  0.00    +0.000 A 
ATOM      4  C   UNL     1       1.889   4.131  21.449  0.00  0.00    +0.000 A 
ATOM      5  C   UNL     1       1.920   5.278  20.650  0.00  0.00    +0.000 A 
ATOM      6  C   UNL     1       2.564   5.201  19.397  0.00  0.00    +0.000 A 
ENDROOT
BRANCH   5   7
ATOM      7  N   UNL     1       1.360   6.505  21.108  0.00  0.00    +0.000 N 
ATOM      8  C   UNL     1       1.535   7.734  20.466  0.00  0.00    +0.000 C 
ATOM      9  O   UNL     1       2.219   7.932  19.464  0.00  0.00    +0.000 OA
ATOM     10  H   UNL     1       0.656   6.481  21.841  0.00  0.00    +0.000 HD
BRANCH   8  11
ATOM     11  C   UNL     1       0.782   8.909  20.998  0.00  0.00    +0.000 A 
ATOM     12  C   UNL     1       0.533   8.970  22.369  0.00  0.00    +0.000 A 
ATOM     13  C   UNL     1      -0.147  10.068  22.823  0.00  0.00    +0.000 A 
ATOM     14  C   UNL     1      -0.475  10.909  21.817  0.00  0.00    +0.000 A 
ATOM     15  C   UNL     1      -0.298  10.967  20.443  0.00  0.00    +0.000 A 
ATOM     16  N   UNL     1       0.359   9.865  20.095  0.00  0.00    +0.000 NA
ATOM     17  N   UNL     1      -0.710  12.070  21.355  0.00  0.00    +0.000 N 
ATOM     18  C   UNL     1      -1.910  12.537  20.686  0.00  0.00    +0.000 C 
ENDBRANCH   8  11
ENDBRANCH   5   7
BRANCH   1  19
ATOM     19  C   UNL     1       4.013   3.850  17.703  0.00  0.00    +0.000 C 
ATOM     20  C   UNL     1       3.916   2.401  17.203  0.00  0.00    +0.000 C 
BRANCH  19  25
ATOM     21  N   UNL     1       6.144   4.810  16.592  0.00  0.00    +0.000 N 
ATOM     22  C   UNL     1       7.433   4.968  17.017  0.00  0.00    +0.000 A 
ATOM     23  N   UNL     1       7.529   4.629  18.277  0.00  0.00    +0.000 NA
ATOM     24  N   UNL     1       6.283   4.239  18.691  0.00  0.00    +0.000 NA
ATOM     25  C   UNL     1       5.440   4.340  17.676  0.00  0.00    +0.000 A 
BRANCH  21  27
ATOM     26  C   UNL     1       6.096   3.926  14.289  0.00  0.00    +0.000 C 
ATOM     27  C   UNL     1       5.723   5.058  15.231  0.00  0.00    +0.000 C 
ENDBRANCH  21  27
ENDBRANCH  19  25
ENDBRANCH   1  19
TORSDOF 5
ENDMDL
MODEL 6
REMARK VINA RESULT:      -7.9      2.743      4.580
REMARK  Name = 
REMARK  8 active torsions:
REMARK  status: ('A' for Active; 'I' for Inactive)
REMARK    1  A    between atoms: C_1  and  C_2
REMARK    2  A    between atoms: C_2  and  N_3
REMARK    3  A    between atoms: C_7  and  C_8
REMARK    4  A    between atoms: C_8  and  C_9
REMARK    5  A    between atoms: C_8  and  C_10
REMARK    6  A    between atoms: C_14  and  N_15
REMARK    7  A    between atoms: C_16  and  C_18
REMARK    8  A    between atoms: N_24  and  C_25
REMARK                            x       y       z     vdW  Elec       q    Type
REMARK                         _______ _______ _______ _____ _____    ______ ____
ROOT
ATOM      1  C   UNL     1       2.527   7.086  19.095  0.00  0.00    +0.000 A 
ATOM      2  C   UNL     1       3.011   7.609  17.884  0.00  0.00    +0.000 A 
ATOM      3  C   UNL     1       2.664   8.885  17.470  0.00  0.00    +0.000 A 
ATOM      4  C   UNL     1       1.762   9.627  18.222  0.00  0.00    +0.000 A 
ATOM      5  C   UNL     1       1.132   9.090  19.350  0.00  0.00    +0.000 A 
ATOM      6  C   UNL     1       1.567   7.834  19.822  0.00  0.00    +0.000 A 
ENDROOT
BRANCH   5   7
ATOM      7  N   UNL     1       0.049   9.770  19.976  0.00  0.00    +0.000 N 
ATOM      8  C   UNL     1       0.205  10.739  20.972  0.00  0.00    +0.000 C 
ATOM      9  O   UNL     1       1.269  11.098  21.468  0.00  0.00    +0.000 OA
ATOM     10  H   UNL     1      -0.882   9.686  19.577  0.00  0.00    +0.000 HD
BRANCH   8  11
ATOM     11  C   UNL     1      -1.021  11.452  21.443  0.00  0.00    +0.000 A 
ATOM     12  C   UNL     1      -1.768  12.171  20.511  0.00  0.00    +0.000 A 
ATOM     13  C   UNL     1      -2.892  12.799  20.976  0.00  0.00    +0.000 A 
ATOM     14  C   UNL     1      -3.062  12.611  22.303  0.00  0.00    +0.000 A 
ATOM     15  C   UNL     1      -2.409  11.940  23.326  0.00  0.00    +0.000 A 
ATOM     16  N   UNL     1      -1.336  11.372  22.786  0.00  0.00    +0.000 NA
ATOM     17  N   UNL     1      -3.793  12.488  23.336  0.00  0.00    +0.000 N 
ATOM     18  C   UNL     1      -3.760  13.280  24.552  0.00  0.00    +0.000 C 
ENDBRANCH   8  11
ENDBRANCH   5   7
BRANCH   1  19
ATOM     19  C   UNL     1       3.047   5.711  19.505  0.00  0.00    +0.000 C 
ATOM     20  C   UNL     1       4.576   5.638  19.381  0.00  0.00    +0.000 C 
BRANCH  19  25
ATOM     21  N   UNL     1       1.594   3.571  19.428  0.00  0.00    +0.000 N 
ATOM     22  C   UNL     1       1.381   2.617  18.473  0.00  0.00    +0.000 A 
ATOM     23  N   UNL     1       1.991   2.954  17.365  0.00  0.00    +0.000 NA
ATOM     24  N   UNL     1       2.620   4.149  17.593  0.00  0.00    +0.000 NA
ATOM     25  C   UNL     1       2.390   4.528  18.840  0.00  0.00    +0.000 A 
BRANCH  21  27
ATOM     26  C   UNL     1       2.053   2.753  21.709  0.00  0.00    +0.000 C 
ATOM     27  C   UNL     1       1.089   3.467  20.778  0.00  0.00    +0.000 C 
ENDBRANCH  21  27
ENDBRANCH  19  25
ENDBRANCH   1  19
TORSDOF 5
ENDMDL
MODEL 7
REMARK VINA RESULT:      -7.8      6.399     10.192
REMARK  Name = 
REMARK  8 active torsions:
REMARK  status: ('A' for Active; 'I' for Inactive)
REMARK    1  A    between atoms: C_1  and  C_2
REMARK    2  A    between atoms: C_2  and  N_3
REMARK    3  A    between atoms: C_7  and  C_8
REMARK    4  A    between atoms: C_8  and  C_9
REMARK    5  A    between atoms: C_8  and  C_10
REMARK    6  A    between atoms: C_14  and  N_15
REMARK    7  A    between atoms: C_16  and  C_18
REMARK    8  A    between atoms: N_24  and  C_25
REMARK                            x       y       z     vdW  Elec       q    Type
REMARK                         _______ _______ _______ _____ _____    ______ ____
ROOT
ATOM      1  C   UNL     1      10.173  12.599  18.445  0.00  0.00    +0.000 A 
ATOM      2  C   UNL     1      10.152  13.062  19.772  0.00  0.00    +0.000 A 
ATOM      3  C   UNL     1       9.924  12.193  20.825  0.00  0.00    +0.000 A 
ATOM      4  C   UNL     1       9.633  10.861  20.564  0.00  0.00    +0.000 A 
ATOM      5  C   UNL     1       9.486  10.386  19.256  0.00  0.00    +0.000 A 
ATOM      6  C   UNL     1       9.820  11.249  18.192  0.00  0.00    +0.000 A 
ENDROOT
BRANCH   5   7
ATOM      7  N   UNL     1       8.967   9.084  19.004  0.00  0.00    +0.000 N 
ATOM      8  C   UNL     1       7.985   8.804  18.050  0.00  0.00    +0.000 C 
ATOM      9  O   UNL     1       7.412   9.629  17.342  0.00  0.00    +0.000 OA
ATOM     10  H   UNL     1       9.439   8.280  19.408  0.00  0.00    +0.000 HD
BRANCH   8  11
ATOM     11  C   UNL     1       7.633   7.371  17.816  0.00  0.00    +0.000 A 
ATOM     12  C   UNL     1       8.024   6.429  18.767  0.00  0.00    +0.000 A 
ATOM     13  C   UNL     1       7.671   5.129  18.527  0.00  0.00    +0.000 A 
ATOM     14  C   UNL     1       7.000   4.996  17.361  0.00  0.00    +0.000 A 
ATOM     15  C   UNL     1       6.558   5.826  16.343  0.00  0.00    +0.000 A 
ATOM     16  N   UNL     1       6.950   7.057  16.657  0.00  0.00    +0.000 NA
ATOM     17  N   UNL     1       6.140   4.424  16.619  0.00  0.00    +0.000 N 
ATOM     18  C   UNL     1       6.348   3.820  15.316  0.00  0.00    +0.000 C 
ENDBRANCH   8  11
ENDBRANCH   5   7
BRANCH   1  19
ATOM     19  C   UNL     1      10.529  13.619  17.368  0.00  0.00    +0.000 C 
ATOM     20  C   UNL     1      11.949  13.386  16.832  0.00  0.00    +0.000 C 
BRANCH  19  25
ATOM     21  N   UNL     1       9.114  15.728  17.868  0.00  0.00    +0.000 N 
ATOM     22  C   UNL     1       9.426  17.049  18.026  0.00  0.00    +0.000 A 
ATOM     23  N   UNL     1      10.724  17.206  17.997  0.00  0.00    +0.000 NA
ATOM     24  N   UNL     1      11.280  15.968  17.813  0.00  0.00    +0.000 NA
ATOM     25  C   UNL     1      10.314  15.068  17.728  0.00  0.00    +0.000 A 
BRANCH  21  27
ATOM     26  C   UNL     1       6.788  16.092  18.606  0.00  0.00    +0.000 C 
ATOM     27  C   UNL     1       7.757  15.235  17.809  0.00  0.00    +0.000 C 
ENDBRANCH  21  27
ENDBRANCH  19  25
ENDBRANCH   1  19
TORSDOF 5
ENDMDL
MODEL 8
REMARK VINA RESULT:      -7.8      2.073      2.632
REMARK  Name = 
REMARK  8 active torsions:
REMARK  status: ('A' for Active; 'I' for Inactive)
REMARK    1  A    between atoms: C_1  and  C_2
REMARK    2  A    between atoms: C_2  and  N_3
REMARK    3  A    between atoms: C_7  and  C_8
REMARK    4  A    between atoms: C_8  and  C_9
REMARK    5  A    between atoms: C_8  and  C_10
REMARK    6  A    between atoms: C_14  and  N_15
REMARK    7  A    between atoms: C_16  and  C_18
REMARK    8  A    between atoms: N_24  and  C_25
REMARK                            x       y       z     vdW  Elec       q    Type
REMARK                         _______ _______ _______ _____ _____    ______ ____
ROOT
ATOM      1  C   UNL     1       3.017   5.099  18.660  0.00  0.00    +0.000 A 
ATOM      2  C   UNL     1       2.599   4.265  19.712  0.00  0.00    +0.000 A 
ATOM      3  C   UNL     1       1.802   4.754  20.733  0.00  0.00    +0.000 A 
ATOM      4  C   UNL     1       1.476   6.103  20.763  0.00  0.00    +0.000 A 
ATOM      5  C   UNL     1       1.997   7.003  19.827  0.00  0.00    +0.000 A 
ATOM      6  C   UNL     1       2.720   6.484  18.734  0.00  0.00    +0.000 A 
ENDROOT
BRANCH   5   7
ATOM      7  N   UNL     1       1.841   8.409  19.998  0.00  0.00    +0.000 N 
ATOM      8  C   UNL     1       1.368   9.270  19.005  0.00  0.00    +0.000 C 
ATOM      9  O   UNL     1       1.069   8.952  17.857  0.00  0.00    +0.000 OA
ATOM     10  H   UNL     1       1.912   8.801  20.933  0.00  0.00    +0.000 HD
BRANCH   8  11
ATOM     11  C   UNL     1       1.143  10.700  19.376  0.00  0.00    +0.000 A 
ATOM     12  C   UNL     1       0.209  10.987  20.371  0.00  0.00    +0.000 A 
ATOM     13  C   UNL     1       0.040  12.306  20.695  0.00  0.00    +0.000 A 
ATOM     14  C   UNL     1       0.828  13.113  19.950  0.00  0.00    +0.000 A 
ATOM     15  C   UNL     1       1.776  12.964  18.949  0.00  0.00    +0.000 A 
ATOM     16  N   UNL     1       1.866  11.662  18.698  0.00  0.00    +0.000 NA
ATOM     17  N   UNL     1       1.514  14.170  19.783  0.00  0.00    +0.000 N 
ATOM     18  C   UNL     1       1.359  15.180  18.753  0.00  0.00    +0.000 C 
ENDBRANCH   8  11
ENDBRANCH   5   7
BRANCH   1  19
ATOM     19  C   UNL     1       3.811   4.441  17.536  0.00  0.00    +0.000 C 
ATOM     20  C   UNL     1       3.424   2.963  17.378  0.00  0.00    +0.000 C 
BRANCH  19  25
ATOM     21  N   UNL     1       6.167   4.843  16.544  0.00  0.00    +0.000 N 
ATOM     22  C   UNL     1       7.429   4.746  17.059  0.00  0.00    +0.000 A 
ATOM     23  N   UNL     1       7.368   4.479  18.339  0.00  0.00    +0.000 NA
ATOM     24  N   UNL     1       6.043   4.395  18.674  0.00  0.00    +0.000 NA
ATOM     25  C   UNL     1       5.308   4.608  17.594  0.00  0.00    +0.000 A 
BRANCH  21  27
ATOM     26  C   UNL     1       6.238   3.890  14.270  0.00  0.00    +0.000 C 
ATOM     27  C   UNL     1       5.898   5.084  15.145  0.00  0.00    +0.000 C 
ENDBRANCH  21  27
ENDBRANCH  19  25
ENDBRANCH   1  19
TORSDOF 5
ENDMDL
MODEL 9
REMARK VINA RESULT:      -7.8      2.856      4.385
REMARK  Name = 
REMARK  8 active torsions:
REMARK  status: ('A' for Active; 'I' for Inactive)
REMARK    1  A    between atoms: C_1  and  C_2
REMARK    2  A    between atoms: C_2  and  N_3
REMARK    3  A    between atoms: C_7  and  C_8
REMARK    4  A    between atoms: C_8  and  C_9
REMARK    5  A    between atoms: C_8  and  C_10
REMARK    6  A    between atoms: C_14  and  N_15
REMARK    7  A    between atoms: C_16  and  C_18
REMARK    8  A    between atoms: N_24  and  C_25
REMARK                            x       y       z     vdW  Elec       q    Type
REMARK                         _______ _______ _______ _____ _____    ______ ____
ROOT
ATOM      1  C   UNL     1       2.613   7.042  19.474  0.00  0.00    +0.000 A 
ATOM      2  C   UNL     1       2.888   7.382  18.138  0.00  0.00    +0.000 A 
ATOM      3  C   UNL     1       2.381   8.544  17.581  0.00  0.00    +0.000 A 
ATOM      4  C   UNL     1       1.525   9.344  18.326  0.00  0.00    +0.000 A 
ATOM      5  C   UNL     1       1.095   8.967  19.603  0.00  0.00    +0.000 A 
ATOM      6  C   UNL     1       1.695   7.840  20.202  0.00  0.00    +0.000 A 
ENDROOT
BRANCH   5   7
ATOM      7  N   UNL     1       0.048   9.673  20.261  0.00  0.00    +0.000 N 
ATOM      8  C   UNL     1       0.160  10.988  20.722  0.00  0.00    +0.000 C 
ATOM      9  O   UNL     1       1.169  11.687  20.668  0.00  0.00    +0.000 OA
ATOM     10  H   UNL     1      -0.889   9.281  20.255  0.00  0.00    +0.000 HD
BRANCH   8  11
ATOM     11  C   UNL     1      -1.065  11.634  21.281  0.00  0.00    +0.000 A 
ATOM     12  C   UNL     1      -1.834  12.436  20.438  0.00  0.00    +0.000 A 
ATOM     13  C   UNL     1      -2.957  13.000  20.980  0.00  0.00    +0.000 A 
ATOM     14  C   UNL     1      -3.106  12.674  22.283  0.00  0.00    +0.000 A 
ATOM     15  C   UNL     1      -2.432  11.909  23.222  0.00  0.00    +0.000 A 
ATOM     16  N   UNL     1      -1.360  11.412  22.612  0.00  0.00    +0.000 NA
ATOM     17  N   UNL     1      -3.821  12.437  23.306  0.00  0.00    +0.000 N 
ATOM     18  C   UNL     1      -3.779  13.099  24.597  0.00  0.00    +0.000 C 
ENDBRANCH   8  11
ENDBRANCH   5   7
BRANCH   1  19
ATOM     19  C   UNL     1       3.298   5.792  20.019  0.00  0.00    +0.000 C 
ATOM     20  C   UNL     1       4.524   5.420  19.173  0.00  0.00    +0.000 C 
BRANCH  19  25
ATOM     21  N   UNL     1       1.642   3.931  19.318  0.00  0.00    +0.000 N 
ATOM     22  C   UNL     1       0.889   3.034  20.021  0.00  0.00    +0.000 A 
ATOM     23  N   UNL     1       1.170   3.121  21.296  0.00  0.00    +0.000 NA
ATOM     24  N   UNL     1       2.123   4.094  21.438  0.00  0.00    +0.000 NA
ATOM     25  C   UNL     1       2.411   4.594  20.247  0.00  0.00    +0.000 A 
BRANCH  21  27
ATOM     26  C   UNL     1       2.551   3.296  17.114  0.00  0.00    +0.000 C 
ATOM     27  C   UNL     1       1.530   4.112  17.888  0.00  0.00    +0.000 C 
ENDBRANCH  21  27
ENDBRANCH  19  25
ENDBRANCH   1  19
TORSDOF 5
ENDMDL
