MODEL 1
REMARK VINA RESULT:      -9.0      0.000      0.000
REMARK  Name = 
REMARK  4 active torsions:
REMARK  status: ('A' for Active; 'I' for Inactive)
REMARK    1  A    between atoms: C_2  and  C_3
REMARK    2  A    between atoms: C_7  and  N_8
REMARK    3  A    between atoms: N_8  and  S_9
REMARK    4  A    between atoms: S_9  and  C_12
REMARK                            x       y       z     vdW  Elec       q    Type
REMARK                         _______ _______ _______ _____ _____    ______ ____
ROOT
ATOM      1  C   UNL     1       1.156   9.382  19.841  0.00  0.00    +0.000 A 
ATOM      2  C   UNL     1       1.536   9.752  18.544  0.00  0.00    +0.000 A 
ATOM      3  C   UNL     1       2.203   8.838  17.727  0.00  0.00    +0.000 A 
ATOM      4  C   UNL     1       2.593   7.601  18.241  0.00  0.00    +0.000 A 
ATOM      5  C   UNL     1       2.279   7.265  19.558  0.00  0.00    +0.000 A 
ATOM      6  C   UNL     1       1.531   8.132  20.349  0.00  0.00    +0.000 A 
ENDROOT
BRANCH   1   8
ATOM      7  O   UNL     1       0.792  10.294  21.931  0.00  0.00    +0.000 OA
ATOM      8  C   UNL     1       0.470  10.339  20.741  0.00  0.00    +0.000 C 
ATOM      9  N   UNL     1      -0.399  11.320  20.245  0.00  0.00    +0.000 N 
ATOM     10  C   UNL     1      -0.468  12.571  21.010  0.00  0.00    +0.000 C 
ATOM     11  C   UNL     1      -1.895  13.003  21.283  0.00  0.00    +0.000 C 
ATOM     12  O   UNL     1      -2.628  13.143  20.070  0.00  0.00    +0.000 OA
ATOM     13  C   UNL     1      -2.568  11.999  19.309  0.00  0.00    +0.000 A 
ATOM     14  C   UNL     1      -3.711  11.756  18.538  0.00  0.00    +0.000 A 
ATOM     15  C   UNL     1      -3.783  10.631  17.726  0.00  0.00    +0.000 A 
ATOM     16  C   UNL     1      -2.701   9.770  17.662  0.00  0.00    +0.000 A 
ATOM     17  C   UNL     1      -1.579   9.987  18.471  0.00  0.00    +0.000 A 
ATOM     18  C   UNL     1      -1.482  11.098  19.320  0.00  0.00    +0.000 A 
ENDBRANCH   1   8
BRANCH   5  19
ATOM     19  N   UNL     1       2.859   6.119  20.151  0.00  0.00    +0.000 N 
ATOM     20  H   UNL     1       3.581   6.238  20.860  0.00  0.00    +0.000 HD
BRANCH  19  21
ATOM     21  S   UNL     1       2.720   4.597  19.487  0.00  0.00    +0.000 S 
ATOM     22  O   UNL     1       2.899   3.663  20.579  0.00  0.00    +0.000 OA
ATOM     23  O   UNL     1       1.552   4.547  18.636  0.00  0.00    +0.000 OA
BRANCH  21  24
ATOM     24  C   UNL     1       4.164   4.475  18.461  0.00  0.00    +0.000 A 
ATOM     25  C   UNL     1       4.030   4.056  17.134  0.00  0.00    +0.000 A 
ATOM     26  C   UNL     1       5.141   4.043  16.294  0.00  0.00    +0.000 A 
ATOM     27  C   UNL     1       6.386   4.454  16.782  0.00  0.00    +0.000 A 
ATOM     28  C   UNL     1       6.519   4.866  18.119  0.00  0.00    +0.000 A 
ATOM     29  C   UNL     1       5.413   4.881  18.955  0.00  0.00    +0.000 A 
ENDBRANCH  21  24
ENDBRANCH  19  21
ENDBRANCH   5  19
TORSDOF 4
ENDMDL
MODEL 2
REMARK VINA RESULT:      -8.5      1.573      1.593
REMARK  Name = 
REMARK  4 active torsions:
REMARK  status: ('A' for Active; 'I' for Inactive)
REMARK    1  A    between atoms: C_2  and  C_3
REMARK    2  A    between atoms: C_7  and  N_8
REMARK    3  A    between atoms: N_8  and  S_9
REMARK    4  A    between atoms: S_9  and  C_12
REMARK                            x       y       z     vdW  Elec       q    Type
REMARK                         _______ _______ _______ _____ _____    ______ ____
ROOT
ATOM      1  C   UNL     1       1.192   9.379  19.871  0.00  0.00    +0.000 A 
ATOM      2  C   UNL     1       1.564   9.663  18.550  0.00  0.00    +0.000 A 
ATOM      3  C   UNL     1       2.190   8.685  17.777  0.00  0.00    +0.000 A 
ATOM      4  C   UNL     1       2.548   7.467  18.354  0.00  0.00    +0.000 A 
ATOM      5  C   UNL     1       2.244   7.214  19.692  0.00  0.00    +0.000 A 
ATOM      6  C   UNL     1       1.535   8.147  20.443  0.00  0.00    +0.000 A 
ENDROOT
BRANCH   1   8
ATOM      7  O   UNL     1       0.896  10.424  21.909  0.00  0.00    +0.000 OA
ATOM      8  C   UNL     1       0.549  10.406  20.725  0.00  0.00    +0.000 C 
ATOM      9  N   UNL     1      -0.305  11.377  20.188  0.00  0.00    +0.000 N 
ATOM     10  C   UNL     1      -0.327  12.674  20.877  0.00  0.00    +0.000 C 
ATOM     11  C   UNL     1      -1.736  13.158  21.153  0.00  0.00    +0.000 C 
ATOM     12  O   UNL     1      -2.492  13.244  19.948  0.00  0.00    +0.000 OA
ATOM     13  C   UNL     1      -2.477  12.055  19.257  0.00  0.00    +0.000 A 
ATOM     14  C   UNL     1      -3.643  11.796  18.526  0.00  0.00    +0.000 A 
ATOM     15  C   UNL     1      -3.760  10.626  17.784  0.00  0.00    +0.000 A 
ATOM     16  C   UNL     1      -2.701   9.735  17.751  0.00  0.00    +0.000 A 
ATOM     17  C   UNL     1      -1.557   9.972  18.522  0.00  0.00    +0.000 A 
ATOM     18  C   UNL     1      -1.414  11.128  19.300  0.00  0.00    +0.000 A 
ENDBRANCH   1   8
BRANCH   5  19
ATOM     19  N   UNL     1       2.796   6.085  20.340  0.00  0.00    +0.000 N 
ATOM     20  H   UNL     1       3.809   5.993  20.400  0.00  0.00    +0.000 HD
BRANCH  19  21
ATOM     21  S   UNL     1       1.910   4.711  20.660  0.00  0.00    +0.000 S 
ATOM     22  O   UNL     1       2.400   4.200  21.923  0.00  0.00    +0.000 OA
ATOM     23  O   UNL     1       0.505   4.984  20.452  0.00  0.00    +0.000 OA
BRANCH  21  24
ATOM     24  C   UNL     1       2.452   3.582  19.401  0.00  0.00    +0.000 A 
ATOM     25  C   UNL     1       2.136   3.842  18.064  0.00  0.00    +0.000 A 
ATOM     26  C   UNL     1       2.633   3.014  17.060  0.00  0.00    +0.000 A 
ATOM     27  C   UNL     1       3.448   1.927  17.395  0.00  0.00    +0.000 A 
ATOM     28  C   UNL     1       3.756   1.664  18.740  0.00  0.00    +0.000 A 
ATOM     29  C   UNL     1       3.264   2.489  19.740  0.00  0.00    +0.000 A 
ENDBRANCH  21  24
ENDBRANCH  19  21
ENDBRANCH   5  19
TORSDOF 4
ENDMDL
MODEL 3
REMARK VINA RESULT:      -8.1      1.537      1.857
REMARK  Name = 
REMARK  4 active torsions:
REMARK  status: ('A' for Active; 'I' for Inactive)
REMARK    1  A    between atoms: C_2  and  C_3
REMARK    2  A    between atoms: C_7  and  N_8
REMARK    3  A    between atoms: N_8  and  S_9
REMARK    4  A    between atoms: S_9  and  C_12
REMARK                            x       y       z     vdW  Elec       q    Type
REMARK                         _______ _______ _______ _____ _____    ______ ____
ROOT
ATOM      1  C   UNL     1       1.859   8.168  19.479  0.00  0.00    +0.000 A 
ATOM      2  C   UNL     1       2.403   8.926  18.433  0.00  0.00    +0.000 A 
ATOM      3  C   UNL     1       3.094   8.291  17.400  0.00  0.00    +0.000 A 
ATOM      4  C   UNL     1       3.343   6.921  17.469  0.00  0.00    +0.000 A 
ATOM      5  C   UNL     1       2.866   6.180  18.551  0.00  0.00    +0.000 A 
ATOM      6  C   UNL     1       2.093   6.788  19.536  0.00  0.00    +0.000 A 
ENDROOT
BRANCH   1   8
ATOM      7  O   UNL     1       1.263   8.279  21.707  0.00  0.00    +0.000 OA
ATOM      8  C   UNL     1       1.142   8.815  20.603  0.00  0.00    +0.000 C 
ATOM      9  N   UNL     1       0.472  10.035  20.441  0.00  0.00    +0.000 N 
ATOM     10  C   UNL     1       0.413  10.904  21.623  0.00  0.00    +0.000 C 
ATOM     11  C   UNL     1      -0.986  11.423  21.889  0.00  0.00    +0.000 C 
ATOM     12  O   UNL     1      -1.497  12.120  20.757  0.00  0.00    +0.000 OA
ATOM     13  C   UNL     1      -1.437  11.349  19.620  0.00  0.00    +0.000 A 
ATOM     14  C   UNL     1      -2.461  11.596  18.698  0.00  0.00    +0.000 A 
ATOM     15  C   UNL     1      -2.520  10.882  17.507  0.00  0.00    +0.000 A 
ATOM     16  C   UNL     1      -1.537   9.947  17.227  0.00  0.00    +0.000 A 
ATOM     17  C   UNL     1      -0.543   9.666  18.172  0.00  0.00    +0.000 A 
ATOM     18  C   UNL     1      -0.467  10.349  19.393  0.00  0.00    +0.000 A 
ENDBRANCH   1   8
BRANCH   5  19
ATOM     19  N   UNL     1       3.301   4.848  18.741  0.00  0.00    +0.000 N 
ATOM     20  H   UNL     1       2.612   4.125  18.944  0.00  0.00    +0.000 HD
BRANCH  19  21
ATOM     21  S   UNL     1       4.892   4.457  19.043  0.00  0.00    +0.000 S 
ATOM     22  O   UNL     1       5.467   5.602  19.718  0.00  0.00    +0.000 OA
ATOM     23  O   UNL     1       4.962   3.131  19.617  0.00  0.00    +0.000 OA
BRANCH  21  24
ATOM     24  C   UNL     1       5.606   4.402  17.418  0.00  0.00    +0.000 A 
ATOM     25  C   UNL     1       4.831   3.959  16.343  0.00  0.00    +0.000 A 
ATOM     26  C   UNL     1       5.351   3.997  15.050  0.00  0.00    +0.000 A 
ATOM     27  C   UNL     1       6.645   4.482  14.836  0.00  0.00    +0.000 A 
ATOM     28  C   UNL     1       7.424   4.917  15.921  0.00  0.00    +0.000 A 
ATOM     29  C   UNL     1       6.907   4.882  17.207  0.00  0.00    +0.000 A 
ENDBRANCH  21  24
ENDBRANCH  19  21
ENDBRANCH   5  19
TORSDOF 4
ENDMDL
MODEL 4
REMARK VINA RESULT:      -8.1      1.673      2.396
REMARK  Name = 
REMARK  4 active torsions:
REMARK  status: ('A' for Active; 'I' for Inactive)
REMARK    1  A    between atoms: C_2  and  C_3
REMARK    2  A    between atoms: C_7  and  N_8
REMARK    3  A    between atoms: N_8  and  S_9
REMARK    4  A    between atoms: S_9  and  C_12
REMARK                            x       y       z     vdW  Elec       q    Type
REMARK                         _______ _______ _______ _____ _____    ______ ____
ROOT
ATOM      1  C   UNL     1       0.784   9.703  19.757  0.00  0.00    +0.000 A 
ATOM      2  C   UNL     1       1.184  10.223  18.518  0.00  0.00    +0.000 A 
ATOM      3  C   UNL     1       2.025   9.479  17.690  0.00  0.00    +0.000 A 
ATOM      4  C   UNL     1       2.559   8.274  18.144  0.00  0.00    +0.000 A 
ATOM      5  C   UNL     1       2.219   7.794  19.409  0.00  0.00    +0.000 A 
ATOM      6  C   UNL     1       1.306   8.482  20.203  0.00  0.00    +0.000 A 
ENDROOT
BRANCH   1   8
ATOM      7  O   UNL     1       0.134  10.351  21.876  0.00  0.00    +0.000 OA
ATOM      8  C   UNL     1      -0.088  10.480  20.670  0.00  0.00    +0.000 C 
ATOM      9  N   UNL     1      -1.023  11.402  20.183  0.00  0.00    +0.000 N 
ATOM     10  C   UNL     1      -1.309  12.554  21.048  0.00  0.00    +0.000 C 
ATOM     11  C   UNL     1      -2.795  12.792  21.220  0.00  0.00    +0.000 C 
ATOM     12  O   UNL     1      -3.434  12.972  19.959  0.00  0.00    +0.000 OA
ATOM     13  C   UNL     1      -3.171  11.925  19.107  0.00  0.00    +0.000 A 
ATOM     14  C   UNL     1      -4.206  11.635  18.210  0.00  0.00    +0.000 A 
ATOM     15  C   UNL     1      -4.071  10.597  17.296  0.00  0.00    +0.000 A 
ATOM     16  C   UNL     1      -2.890   9.874  17.259  0.00  0.00    +0.000 A 
ATOM     17  C   UNL     1      -1.877  10.133  18.189  0.00  0.00    +0.000 A 
ATOM     18  C   UNL     1      -1.988  11.155  19.141  0.00  0.00    +0.000 A 
ENDBRANCH   1   8
BRANCH   5  19
ATOM     19  N   UNL     1       2.923   6.698  19.962  0.00  0.00    +0.000 N 
ATOM     20  H   UNL     1       3.104   6.679  20.964  0.00  0.00    +0.000 HD
BRANCH  19  21
ATOM     21  S   UNL     1       3.810   5.640  19.030  0.00  0.00    +0.000 S 
ATOM     22  O   UNL     1       3.822   6.192  17.692  0.00  0.00    +0.000 OA
ATOM     23  O   UNL     1       5.038   5.305  19.718  0.00  0.00    +0.000 OA
BRANCH  21  24
ATOM     24  C   UNL     1       2.783   4.191  18.982  0.00  0.00    +0.000 A 
ATOM     25  C   UNL     1       1.692   4.095  19.849  0.00  0.00    +0.000 A 
ATOM     26  C   UNL     1       0.827   3.006  19.758  0.00  0.00    +0.000 A 
ATOM     27  C   UNL     1       1.054   2.016  18.796  0.00  0.00    +0.000 A 
ATOM     28  C   UNL     1       2.158   2.112  17.933  0.00  0.00    +0.000 A 
ATOM     29  C   UNL     1       3.018   3.197  18.021  0.00  0.00    +0.000 A 
ENDBRANCH  21  24
ENDBRANCH  19  21
ENDBRANCH   5  19
TORSDOF 4
ENDMDL
MODEL 5
REMARK VINA RESULT:      -8.0      1.777      2.466
REMARK  Name = 
REMARK  4 active torsions:
REMARK  status: ('A' for Active; 'I' for Inactive)
REMARK    1  A    between atoms: C_2  and  C_3
REMARK    2  A    between atoms: C_7  and  N_8
REMARK    3  A    between atoms: N_8  and  S_9
REMARK    4  A    between atoms: S_9  and  C_12
REMARK                            x       y       z     vdW  Elec       q    Type
REMARK                         _______ _______ _______ _____ _____    ______ ____
ROOT
ATOM      1  C   UNL     1       0.757  10.304  19.784  0.00  0.00    +0.000 A 
ATOM      2  C   UNL     1       1.312  10.879  18.634  0.00  0.00    +0.000 A 
ATOM      3  C   UNL     1       2.108  10.109  17.785  0.00  0.00    +0.000 A 
ATOM      4  C   UNL     1       2.445   8.804  18.143  0.00  0.00    +0.000 A 
ATOM      5  C   UNL     1       1.952   8.257  19.328  0.00  0.00    +0.000 A 
ATOM      6  C   UNL     1       1.079   8.986  20.132  0.00  0.00    +0.000 A 
ENDROOT
BRANCH   1   8
ATOM      7  O   UNL     1       0.278  11.094  21.901  0.00  0.00    +0.000 OA
ATOM      8  C   UNL     1      -0.072  11.103  20.718  0.00  0.00    +0.000 C 
ATOM      9  N   UNL     1      -1.113  11.921  20.260  0.00  0.00    +0.000 N 
ATOM     10  C   UNL     1      -1.390  13.124  21.055  0.00  0.00    +0.000 C 
ATOM     11  C   UNL     1      -2.865  13.285  21.363  0.00  0.00    +0.000 C 
ATOM     12  O   UNL     1      -3.637  13.315  20.166  0.00  0.00    +0.000 OA
ATOM     13  C   UNL     1      -3.388  12.215  19.378  0.00  0.00    +0.000 A 
ATOM     14  C   UNL     1      -4.485  11.786  18.621  0.00  0.00    +0.000 A 
ATOM     15  C   UNL     1      -4.370  10.682  17.784  0.00  0.00    +0.000 A 
ATOM     16  C   UNL     1      -3.152  10.032  17.682  0.00  0.00    +0.000 A 
ATOM     17  C   UNL     1      -2.072  10.433  18.476  0.00  0.00    +0.000 A 
ATOM     18  C   UNL     1      -2.158  11.525  19.349  0.00  0.00    +0.000 A 
ENDBRANCH   1   8
BRANCH   5  19
ATOM     19  N   UNL     1       2.463   7.028  19.805  0.00  0.00    +0.000 N 
ATOM     20  H   UNL     1       2.764   6.959  20.776  0.00  0.00    +0.000 HD
BRANCH  19  21
ATOM     21  S   UNL     1       2.967   5.810  18.787  0.00  0.00    +0.000 S 
ATOM     22  O   UNL     1       1.942   5.681  17.772  0.00  0.00    +0.000 OA
ATOM     23  O   UNL     1       4.354   6.020  18.433  0.00  0.00    +0.000 OA
BRANCH  21  24
ATOM     24  C   UNL     1       2.865   4.363  19.811  0.00  0.00    +0.000 A 
ATOM     25  C   UNL     1       3.849   3.377  19.706  0.00  0.00    +0.000 A 
ATOM     26  C   UNL     1       3.830   2.282  20.567  0.00  0.00    +0.000 A 
ATOM     27  C   UNL     1       2.827   2.178  21.537  0.00  0.00    +0.000 A 
ATOM     28  C   UNL     1       1.834   3.167  21.634  0.00  0.00    +0.000 A 
ATOM     29  C   UNL     1       1.854   4.258  20.778  0.00  0.00    +0.000 A 
ENDBRANCH  21  24
ENDBRANCH  19  21
ENDBRANCH   5  19
TORSDOF 4
ENDMDL
MODEL 6
REMARK VINA RESULT:      -8.0      2.618      8.724
REMARK  Name = 
REMARK  4 active torsions:
REMARK  status: ('A' for Active; 'I' for Inactive)
REMARK    1  A    between atoms: C_2  and  C_3
REMARK    2  A    between atoms: C_7  and  N_8
REMARK    3  A    between atoms: N_8  and  S_9
REMARK    4  A    between atoms: S_9  and  C_12
REMARK                            x       y       z     vdW  Elec       q    Type
REMARK                         _______ _______ _______ _____ _____    ______ ____
ROOT
ATOM      1  C   UNL     1       1.972   8.029  18.940  0.00  0.00    +0.000 A 
ATOM      2  C   UNL     1       1.857   8.024  20.337  0.00  0.00    +0.000 A 
ATOM      3  C   UNL     1       0.875   8.798  20.957  0.00  0.00    +0.000 A 
ATOM      4  C   UNL     1       0.088   9.662  20.197  0.00  0.00    +0.000 A 
ATOM      5  C   UNL     1       0.256   9.722  18.813  0.00  0.00    +0.000 A 
ATOM      6  C   UNL     1       1.167   8.883  18.176  0.00  0.00    +0.000 A 
ENDROOT
BRANCH   1   8
ATOM      7  O   UNL     1       3.435   7.693  17.185  0.00  0.00    +0.000 OA
ATOM      8  C   UNL     1       3.021   7.238  18.255  0.00  0.00    +0.000 C 
ATOM      9  N   UNL     1       3.597   6.108  18.851  0.00  0.00    +0.000 N 
ATOM     10  C   UNL     1       4.992   5.826  18.493  0.00  0.00    +0.000 C 
ATOM     11  C   UNL     1       5.206   4.377  18.102  0.00  0.00    +0.000 C 
ATOM     12  O   UNL     1       4.794   3.500  19.147  0.00  0.00    +0.000 OA
ATOM     13  C   UNL     1       3.497   3.748  19.531  0.00  0.00    +0.000 A 
ATOM     14  C   UNL     1       2.798   2.618  19.972  0.00  0.00    +0.000 A 
ATOM     15  C   UNL     1       1.476   2.729  20.387  0.00  0.00    +0.000 A 
ATOM     16  C   UNL     1       0.868   3.973  20.390  0.00  0.00    +0.000 A 
ATOM     17  C   UNL     1       1.552   5.092  19.902  0.00  0.00    +0.000 A 
ATOM     18  C   UNL     1       2.877   5.014  19.453  0.00  0.00    +0.000 A 
ENDBRANCH   1   8
BRANCH   5  19
ATOM     19  N   UNL     1      -0.374  10.746  18.068  0.00  0.00    +0.000 N 
ATOM     20  H   UNL     1       0.094  11.645  17.967  0.00  0.00    +0.000 HD
BRANCH  19  21
ATOM     21  S   UNL     1      -1.994  10.708  17.682  0.00  0.00    +0.000 S 
ATOM     22  O   UNL     1      -2.112  11.320  16.375  0.00  0.00    +0.000 OA
ATOM     23  O   UNL     1      -2.522   9.388  17.946  0.00  0.00    +0.000 OA
BRANCH  21  24
ATOM     24  C   UNL     1      -2.710  11.840  18.849  0.00  0.00    +0.000 A 
ATOM     25  C   UNL     1      -4.101  11.946  18.937  0.00  0.00    +0.000 A 
ATOM     26  C   UNL     1      -4.675  12.761  19.910  0.00  0.00    +0.000 A 
ATOM     27  C   UNL     1      -3.855  13.467  20.797  0.00  0.00    +0.000 A 
ATOM     28  C   UNL     1      -2.457  13.365  20.699  0.00  0.00    +0.000 A 
ATOM     29  C   UNL     1      -1.885  12.552  19.732  0.00  0.00    +0.000 A 
ENDBRANCH  21  24
ENDBRANCH  19  21
ENDBRANCH   5  19
TORSDOF 4
ENDMDL
MODEL 7
REMARK VINA RESULT:      -8.0      2.614      8.698
REMARK  Name = 
REMARK  4 active torsions:
REMARK  status: ('A' for Active; 'I' for Inactive)
REMARK    1  A    between atoms: C_2  and  C_3
REMARK    2  A    between atoms: C_7  and  N_8
REMARK    3  A    between atoms: N_8  and  S_9
REMARK    4  A    between atoms: S_9  and  C_12
REMARK                            x       y       z     vdW  Elec       q    Type
REMARK                         _______ _______ _______ _____ _____    ______ ____
ROOT
ATOM      1  C   UNL     1       2.181   7.887  18.898  0.00  0.00    +0.000 A 
ATOM      2  C   UNL     1       2.008   7.969  20.287  0.00  0.00    +0.000 A 
ATOM      3  C   UNL     1       1.005   8.781  20.817  0.00  0.00    +0.000 A 
ATOM      4  C   UNL     1       0.252   9.597  19.972  0.00  0.00    +0.000 A 
ATOM      5  C   UNL     1       0.477   9.570  18.595  0.00  0.00    +0.000 A 
ATOM      6  C   UNL     1       1.410   8.693  18.050  0.00  0.00    +0.000 A 
ENDROOT
BRANCH   1   8
ATOM      7  O   UNL     1       3.732   7.457  17.243  0.00  0.00    +0.000 OA
ATOM      8  C   UNL     1       3.255   7.054  18.306  0.00  0.00    +0.000 C 
ATOM      9  N   UNL     1       3.780   5.945  18.982  0.00  0.00    +0.000 N 
ATOM     10  C   UNL     1       5.189   5.631  18.714  0.00  0.00    +0.000 C 
ATOM     11  C   UNL     1       5.404   4.164  18.400  0.00  0.00    +0.000 C 
ATOM     12  O   UNL     1       4.922   3.339  19.457  0.00  0.00    +0.000 OA
ATOM     13  C   UNL     1       3.610   3.619  19.758  0.00  0.00    +0.000 A 
ATOM     14  C   UNL     1       2.872   2.518  20.208  0.00  0.00    +0.000 A 
ATOM     15  C   UNL     1       1.531   2.662  20.544  0.00  0.00    +0.000 A 
ATOM     16  C   UNL     1       0.941   3.912  20.459  0.00  0.00    +0.000 A 
ATOM     17  C   UNL     1       1.667   5.001  19.962  0.00  0.00    +0.000 A 
ATOM     18  C   UNL     1       3.013   4.887  19.591  0.00  0.00    +0.000 A 
ENDBRANCH   1   8
BRANCH   5  19
ATOM     19  N   UNL     1      -0.118  10.547  17.764  0.00  0.00    +0.000 N 
ATOM     20  H   UNL     1       0.473  11.251  17.324  0.00  0.00    +0.000 HD
BRANCH  19  21
ATOM     21  S   UNL     1      -1.755  10.857  17.773  0.00  0.00    +0.000 S 
ATOM     22  O   UNL     1      -2.061  11.448  16.487  0.00  0.00    +0.000 OA
ATOM     23  O   UNL     1      -2.463   9.692  18.254  0.00  0.00    +0.000 OA
BRANCH  21  24
ATOM     24  C   UNL     1      -1.911  12.146  18.984  0.00  0.00    +0.000 A 
ATOM     25  C   UNL     1      -0.886  13.086  19.123  0.00  0.00    +0.000 A 
ATOM     26  C   UNL     1      -1.038  14.154  20.005  0.00  0.00    +0.000 A 
ATOM     27  C   UNL     1      -2.218  14.282  20.745  0.00  0.00    +0.000 A 
ATOM     28  C   UNL     1      -3.242  13.330  20.610  0.00  0.00    +0.000 A 
ATOM     29  C   UNL     1      -3.093  12.268  19.730  0.00  0.00    +0.000 A 
ENDBRANCH  21  24
ENDBRANCH  19  21
ENDBRANCH   5  19
TORSDOF 4
ENDMDL
MODEL 8
REMARK VINA RESULT:      -8.0      2.480      8.631
REMARK  Name = 
REMARK  4 active torsions:
REMARK  status: ('A' for Active; 'I' for Inactive)
REMARK    1  A    between atoms: C_2  and  C_3
REMARK    2  A    between atoms: C_7  and  N_8
REMARK    3  A    between atoms: N_8  and  S_9
REMARK    4  A    between atoms: S_9  and  C_12
REMARK                            x       y       z     vdW  Elec       q    Type
REMARK                         _______ _______ _______ _____ _____    ______ ____
ROOT
ATOM      1  C   UNL     1       2.253   7.847  19.007  0.00  0.00    +0.000 A 
ATOM      2  C   UNL     1       1.932   7.741  20.368  0.00  0.00    +0.000 A 
ATOM      3  C   UNL     1       0.948   8.562  20.916  0.00  0.00    +0.000 A 
ATOM      4  C   UNL     1       0.367   9.565  20.140  0.00  0.00    +0.000 A 
ATOM      5  C   UNL     1       0.742   9.718  18.805  0.00  0.00    +0.000 A 
ATOM      6  C   UNL     1       1.654   8.841  18.224  0.00  0.00    +0.000 A 
ENDROOT
BRANCH   1   8
ATOM      7  O   UNL     1       3.804   7.422  17.349  0.00  0.00    +0.000 OA
ATOM      8  C   UNL     1       3.313   7.006  18.401  0.00  0.00    +0.000 C 
ATOM      9  N   UNL     1       3.813   5.871  19.054  0.00  0.00    +0.000 N 
ATOM     10  C   UNL     1       5.217   5.535  18.785  0.00  0.00    +0.000 C 
ATOM     11  C   UNL     1       5.403   4.071  18.438  0.00  0.00    +0.000 C 
ATOM     12  O   UNL     1       4.900   3.232  19.474  0.00  0.00    +0.000 OA
ATOM     13  C   UNL     1       3.592   3.532  19.775  0.00  0.00    +0.000 A 
ATOM     14  C   UNL     1       2.830   2.435  20.197  0.00  0.00    +0.000 A 
ATOM     15  C   UNL     1       1.491   2.600  20.530  0.00  0.00    +0.000 A 
ATOM     16  C   UNL     1       0.927   3.863  20.471  0.00  0.00    +0.000 A 
ATOM     17  C   UNL     1       1.677   4.947  20.002  0.00  0.00    +0.000 A 
ATOM     18  C   UNL     1       3.022   4.815  19.635  0.00  0.00    +0.000 A 
ENDBRANCH   1   8
BRANCH   5  19
ATOM     19  N   UNL     1       0.329  10.861  18.082  0.00  0.00    +0.000 N 
ATOM     20  H   UNL     1       0.773  11.070  17.189  0.00  0.00    +0.000 HD
BRANCH  19  21
ATOM     21  S   UNL     1      -0.551  12.092  18.776  0.00  0.00    +0.000 S 
ATOM     22  O   UNL     1      -0.289  12.024  20.199  0.00  0.00    +0.000 OA
ATOM     23  O   UNL     1      -0.344  13.314  18.030  0.00  0.00    +0.000 OA
BRANCH  21  24
ATOM     24  C   UNL     1      -2.231  11.569  18.535  0.00  0.00    +0.000 A 
ATOM     25  C   UNL     1      -3.258  12.218  19.227  0.00  0.00    +0.000 A 
ATOM     26  C   UNL     1      -4.586  11.878  18.977  0.00  0.00    +0.000 A 
ATOM     27  C   UNL     1      -4.885  10.890  18.032  0.00  0.00    +0.000 A 
ATOM     28  C   UNL     1      -3.849  10.234  17.346  0.00  0.00    +0.000 A 
ATOM     29  C   UNL     1      -2.527  10.574  17.592  0.00  0.00    +0.000 A 
ENDBRANCH  21  24
ENDBRANCH  19  21
ENDBRANCH   5  19
TORSDOF 4
ENDMDL
MODEL 9
REMARK VINA RESULT:      -8.0      2.399      8.675
REMARK  Name = 
REMARK  4 active torsions:
REMARK  status: ('A' for Active; 'I' for Inactive)
REMARK    1  A    between atoms: C_2  and  C_3
REMARK    2  A    between atoms: C_7  and  N_8
REMARK    3  A    between atoms: N_8  and  S_9
REMARK    4  A    between atoms: S_9  and  C_12
REMARK                            x       y       z     vdW  Elec       q    Type
REMARK                         _______ _______ _______ _____ _____    ______ ____
ROOT
ATOM      1  C   UNL     1       1.983   7.187  19.218  0.00  0.00    +0.000 A 
ATOM      2  C   UNL     1       1.707   7.730  17.956  0.00  0.00    +0.000 A 
ATOM      3  C   UNL     1       1.444   9.094  17.828  0.00  0.00    +0.000 A 
ATOM      4  C   UNL     1       1.342   9.892  18.966  0.00  0.00    +0.000 A 
ATOM      5  C   UNL     1       1.543   9.334  20.229  0.00  0.00    +0.000 A 
ATOM      6  C   UNL     1       1.900   7.995  20.359  0.00  0.00    +0.000 A 
ENDROOT
BRANCH   1   8
ATOM      7  O   UNL     1       1.793   5.223  20.419  0.00  0.00    +0.000 OA
ATOM      8  C   UNL     1       2.240   5.737  19.390  0.00  0.00    +0.000 C 
ATOM      9  N   UNL     1       2.844   4.974  18.383  0.00  0.00    +0.000 N 
ATOM     10  C   UNL     1       2.448   3.562  18.313  0.00  0.00    +0.000 C 
ATOM     11  C   UNL     1       3.640   2.631  18.217  0.00  0.00    +0.000 C 
ATOM     12  O   UNL     1       4.452   2.956  17.093  0.00  0.00    +0.000 OA
ATOM     13  C   UNL     1       4.825   4.280  17.105  0.00  0.00    +0.000 A 
ATOM     14  C   UNL     1       6.080   4.532  16.536  0.00  0.00    +0.000 A 
ATOM     15  C   UNL     1       6.579   5.828  16.488  0.00  0.00    +0.000 A 
ATOM     16  C   UNL     1       5.810   6.870  16.978  0.00  0.00    +0.000 A 
ATOM     17  C   UNL     1       4.579   6.610  17.590  0.00  0.00    +0.000 A 
ATOM     18  C   UNL     1       4.055   5.313  17.679  0.00  0.00    +0.000 A 
ENDBRANCH   1   8
BRANCH   5  19
ATOM     19  N   UNL     1       1.224  10.077  21.389  0.00  0.00    +0.000 N 
ATOM     20  H   UNL     1       1.923  10.705  21.784  0.00  0.00    +0.000 HD
BRANCH  19  21
ATOM     21  S   UNL     1      -0.069   9.701  22.369  0.00  0.00    +0.000 S 
ATOM     22  O   UNL     1      -0.725   8.566  21.755  0.00  0.00    +0.000 OA
ATOM     23  O   UNL     1       0.366   9.664  23.748  0.00  0.00    +0.000 OA
BRANCH  21  24
ATOM     24  C   UNL     1      -1.148  11.096  22.161  0.00  0.00    +0.000 A 
ATOM     25  C   UNL     1      -1.275  11.684  20.900  0.00  0.00    +0.000 A 
ATOM     26  C   UNL     1      -2.187  12.719  20.704  0.00  0.00    +0.000 A 
ATOM     27  C   UNL     1      -2.973  13.163  21.773  0.00  0.00    +0.000 A 
ATOM     28  C   UNL     1      -2.836  12.577  23.042  0.00  0.00    +0.000 A 
ATOM     29  C   UNL     1      -1.930  11.544  23.236  0.00  0.00    +0.000 A 
ENDBRANCH  21  24
ENDBRANCH  19  21
ENDBRANCH   5  19
TORSDOF 4
ENDMDL
