MODEL 1
REMARK VINA RESULT:      -8.6      0.000      0.000
REMARK  Name = 
REMARK  8 active torsions:
REMARK  status: ('A' for Active; 'I' for Inactive)
REMARK    1  A    between atoms: C_1  and  N_2
REMARK    2  A    between atoms: C_6  and  C_7
REMARK    3  A    between atoms: C_7  and  C_8
REMARK    4  A    between atoms: C_8  and  C_9
REMARK    5  A    between atoms: C_13  and  N_14
REMARK    6  A    between atoms: N_14  and  C_15
REMARK    7  A    between atoms: C_15  and  C_16
REMARK    8  A    between atoms: C_17  and  C_18
REMARK                            x       y       z     vdW  Elec       q    Type
REMARK                         _______ _______ _______ _____ _____    ______ ____
ROOT
ATOM      1  C   UNL     1      -0.132  10.341  19.523  0.00  0.00    +0.000 A 
ATOM      2  C   UNL     1       0.059   9.850  20.826  0.00  0.00    +0.000 A 
ATOM      3  C   UNL     1       1.001   8.852  21.099  0.00  0.00    +0.000 A 
ATOM      4  C   UNL     1       1.755   8.292  20.065  0.00  0.00    +0.000 A 
ATOM      5  C   UNL     1       1.554   8.704  18.752  0.00  0.00    +0.000 A 
ATOM      6  C   UNL     1       0.674   9.769  18.525  0.00  0.00    +0.000 A 
ENDROOT
BRANCH   1   7
ATOM      7  C   UNL     1      -1.208  11.463  19.127  0.00  0.00    +0.000 C 
ATOM      8  C   UNL     1      -1.287  12.721  20.052  0.00  0.00    +0.000 C 
ATOM      9  O   UNL     1      -0.976  13.614  18.961  0.00  0.00    +0.000 OA
ATOM     10  C   UNL     1      -0.761  12.506  18.067  0.00  0.00    +0.000 C 
BRANCH   7  11
ATOM     11  C   UNL     1      -2.567  10.815  18.791  0.00  0.00    +0.000 C 
BRANCH  11  17
ATOM     12  C   UNL     1      -4.966  11.960  17.055  0.00  0.00    +0.000 C 
ATOM     13  N   UNL     1      -3.886  11.122  16.609  0.00  0.00    +0.000 N 
ATOM     14  C   UNL     1      -3.744  10.649  15.341  0.00  0.00    +0.000 A 
ATOM     15  N   UNL     1      -2.641   9.942  15.258  0.00  0.00    +0.000 NA
ATOM     16  N   UNL     1      -2.063   9.931  16.502  0.00  0.00    +0.000 NA
ATOM     17  C   UNL     1      -2.817  10.634  17.325  0.00  0.00    +0.000 A 
ENDBRANCH  11  17
ENDBRANCH   7  11
ENDBRANCH   1   7
BRANCH   5  18
ATOM     18  N   UNL     1       2.295   8.101  17.706  0.00  0.00    +0.000 N 
ATOM     19  H   UNL     1       1.681   7.432  17.242  0.00  0.00    +0.000 HD
BRANCH  18  20
ATOM     20  C   UNL     1       3.491   7.410  18.207  0.00  0.00    +0.000 C 
BRANCH  20  21
ATOM     21  C   UNL     1       3.532   5.938  17.903  0.00  0.00    +0.000 A 
ATOM     22  C   UNL     1       4.412   5.419  16.907  0.00  0.00    +0.000 A 
ATOM     23  C   UNL     1       4.452   4.014  16.647  0.00  0.00    +0.000 A 
ATOM     24  C   UNL     1       3.649   3.117  17.349  0.00  0.00    +0.000 A 
ATOM     25  C   UNL     1       2.818   3.682  18.279  0.00  0.00    +0.000 A 
ATOM     26  C   UNL     1       2.735   5.023  18.561  0.00  0.00    +0.000 A 
ATOM     27  C   UNL     1       1.653   4.843  19.598  0.00  0.00    +0.000 C 
ATOM     28  C   UNL     1       1.836   3.318  19.260  0.00  0.00    +0.000 C 
ATOM     29  O   UNL     1       1.437   2.233  19.589  0.00  0.00    +0.000 OA
BRANCH  22  30
ATOM     30  C   UNL     1       5.337   6.292  16.067  0.00  0.00    +0.000 C 
ATOM     31  F   UNL     1       6.112   5.623  15.172  0.00  0.00    +0.000 F 
ATOM     32  F   UNL     1       4.646   7.209  15.336  0.00  0.00    +0.000 F 
ATOM     33  F   UNL     1       6.204   7.006  16.839  0.00  0.00    +0.000 F 
ENDBRANCH  22  30
ENDBRANCH  20  21
ENDBRANCH  18  20
ENDBRANCH   5  18
TORSDOF 7
ENDMDL
MODEL 2
REMARK VINA RESULT:      -8.6      2.235      3.382
REMARK  Name = 
REMARK  8 active torsions:
REMARK  status: ('A' for Active; 'I' for Inactive)
REMARK    1  A    between atoms: C_1  and  N_2
REMARK    2  A    between atoms: C_6  and  C_7
REMARK    3  A    between atoms: C_7  and  C_8
REMARK    4  A    between atoms: C_8  and  C_9
REMARK    5  A    between atoms: C_13  and  N_14
REMARK    6  A    between atoms: N_14  and  C_15
REMARK    7  A    between atoms: C_15  and  C_16
REMARK    8  A    between atoms: C_17  and  C_18
REMARK                            x       y       z     vdW  Elec       q    Type
REMARK                         _______ _______ _______ _____ _____    ______ ____
ROOT
ATOM      1  C   UNL     1      -0.156  10.537  19.089  0.00  0.00    +0.000 A 
ATOM      2  C   UNL     1      -0.129  10.076  20.416  0.00  0.00    +0.000 A 
ATOM      3  C   UNL     1       0.728   9.044  20.813  0.00  0.00    +0.000 A 
ATOM      4  C   UNL     1       1.559   8.420  19.880  0.00  0.00    +0.000 A 
ATOM      5  C   UNL     1       1.520   8.802  18.543  0.00  0.00    +0.000 A 
ATOM      6  C   UNL     1       0.723   9.900  18.197  0.00  0.00    +0.000 A 
ENDROOT
BRANCH   1   7
ATOM      7  C   UNL     1      -1.127  11.697  18.553  0.00  0.00    +0.000 C 
ATOM      8  C   UNL     1      -2.074  11.329  17.366  0.00  0.00    +0.000 C 
ATOM      9  O   UNL     1      -3.255  11.645  18.135  0.00  0.00    +0.000 OA
ATOM     10  C   UNL     1      -2.467  11.885  19.316  0.00  0.00    +0.000 C 
BRANCH   7  11
ATOM     11  C   UNL     1      -0.349  13.018  18.380  0.00  0.00    +0.000 C 
BRANCH  11  17
ATOM     12  C   UNL     1       2.823  12.966  18.262  0.00  0.00    +0.000 C 
ATOM     13  N   UNL     1       1.995  13.249  19.404  0.00  0.00    +0.000 N 
ATOM     14  C   UNL     1       2.462  13.510  20.655  0.00  0.00    +0.000 A 
ATOM     15  N   UNL     1       1.452  13.754  21.457  0.00  0.00    +0.000 NA
ATOM     16  N   UNL     1       0.300  13.625  20.722  0.00  0.00    +0.000 NA
ATOM     17  C   UNL     1       0.623  13.309  19.482  0.00  0.00    +0.000 A 
ENDBRANCH  11  17
ENDBRANCH   7  11
ENDBRANCH   1   7
BRANCH   5  18
ATOM     18  N   UNL     1       2.337   8.136  17.598  0.00  0.00    +0.000 N 
ATOM     19  H   UNL     1       1.745   7.475  17.093  0.00  0.00    +0.000 HD
BRANCH  18  20
ATOM     20  C   UNL     1       3.446   7.417  18.239  0.00  0.00    +0.000 C 
BRANCH  20  21
ATOM     21  C   UNL     1       3.511   5.951  17.911  0.00  0.00    +0.000 A 
ATOM     22  C   UNL     1       4.419   5.459  16.926  0.00  0.00    +0.000 A 
ATOM     23  C   UNL     1       4.481   4.059  16.643  0.00  0.00    +0.000 A 
ATOM     24  C   UNL     1       3.673   3.141  17.311  0.00  0.00    +0.000 A 
ATOM     25  C   UNL     1       2.814   3.681  18.231  0.00  0.00    +0.000 A 
ATOM     26  C   UNL     1       2.709   5.015  18.535  0.00  0.00    +0.000 A 
ATOM     27  C   UNL     1       1.607   4.805  19.543  0.00  0.00    +0.000 C 
ATOM     28  C   UNL     1       1.815   3.288  19.183  0.00  0.00    +0.000 C 
ATOM     29  O   UNL     1       1.421   2.193  19.484  0.00  0.00    +0.000 OA
BRANCH  22  30
ATOM     30  C   UNL     1       5.353   6.357  16.123  0.00  0.00    +0.000 C 
ATOM     31  F   UNL     1       6.152   7.172  16.862  0.00  0.00    +0.000 F 
ATOM     32  F   UNL     1       6.197   5.637  15.334  0.00  0.00    +0.000 F 
ATOM     33  F   UNL     1       4.668   7.182  15.282  0.00  0.00    +0.000 F 
ENDBRANCH  22  30
ENDBRANCH  20  21
ENDBRANCH  18  20
ENDBRANCH   5  18
TORSDOF 7
ENDMDL
MODEL 3
REMARK VINA RESULT:      -8.5      2.875      3.664
REMARK  Name = 
REMARK  8 active torsions:
REMARK  status: ('A' for Active; 'I' for Inactive)
REMARK    1  A    between atoms: C_1  and  N_2
REMARK    2  A    between atoms: C_6  and  C_7
REMARK    3  A    between atoms: C_7  and  C_8
REMARK    4  A    between atoms: C_8  and  C_9
REMARK    5  A    between atoms: C_13  and  N_14
REMARK    6  A    between atoms: N_14  and  C_15
REMARK    7  A    between atoms: C_15  and  C_16
REMARK    8  A    between atoms: C_17  and  C_18
REMARK                            x       y       z     vdW  Elec       q    Type
REMARK                         _______ _______ _______ _____ _____    ______ ____
ROOT
ATOM      1  C   UNL     1      -0.135  10.658  20.351  0.00  0.00    +0.000 A 
ATOM      2  C   UNL     1      -0.692  10.876  21.622  0.00  0.00    +0.000 A 
ATOM      3  C   UNL     1      -0.339  10.083  22.719  0.00  0.00    +0.000 A 
ATOM      4  C   UNL     1       0.557   9.023  22.564  0.00  0.00    +0.000 A 
ATOM      5  C   UNL     1       1.083   8.731  21.310  0.00  0.00    +0.000 A 
ATOM      6  C   UNL     1       0.785   9.601  20.254  0.00  0.00    +0.000 A 
ENDROOT
BRANCH   1   7
ATOM      7  C   UNL     1      -0.508  11.507  19.041  0.00  0.00    +0.000 C 
ATOM      8  C   UNL     1      -1.113  12.929  19.272  0.00  0.00    +0.000 C 
ATOM      9  O   UNL     1      -0.043  13.566  18.541  0.00  0.00    +0.000 OA
ATOM     10  C   UNL     1       0.648  12.312  18.387  0.00  0.00    +0.000 C 
BRANCH   7  11
ATOM     11  C   UNL     1      -1.272  10.631  18.027  0.00  0.00    +0.000 C 
BRANCH  11  17
ATOM     12  C   UNL     1      -2.884  10.650  15.292  0.00  0.00    +0.000 C 
ATOM     13  N   UNL     1      -3.349  11.077  16.584  0.00  0.00    +0.000 N 
ATOM     14  C   UNL     1      -4.579  11.604  16.831  0.00  0.00    +0.000 A 
ATOM     15  N   UNL     1      -4.697  11.860  18.113  0.00  0.00    +0.000 NA
ATOM     16  N   UNL     1      -3.511  11.518  18.713  0.00  0.00    +0.000 NA
ATOM     17  C   UNL     1      -2.689  11.054  17.792  0.00  0.00    +0.000 A 
ENDBRANCH  11  17
ENDBRANCH   7  11
ENDBRANCH   1   7
BRANCH   5  18
ATOM     18  N   UNL     1       1.960   7.629  21.155  0.00  0.00    +0.000 N 
ATOM     19  H   UNL     1       2.845   7.991  20.797  0.00  0.00    +0.000 HD
BRANCH  18  20
ATOM     20  C   UNL     1       1.423   6.626  20.226  0.00  0.00    +0.000 C 
BRANCH  20  21
ATOM     21  C   UNL     1       2.470   5.863  19.462  0.00  0.00    +0.000 A 
ATOM     22  C   UNL     1       2.752   4.498  19.767  0.00  0.00    +0.000 A 
ATOM     23  C   UNL     1       3.735   3.783  19.015  0.00  0.00    +0.000 A 
ATOM     24  C   UNL     1       4.438   4.383  17.972  0.00  0.00    +0.000 A 
ATOM     25  C   UNL     1       4.131   5.697  17.742  0.00  0.00    +0.000 A 
ATOM     26  C   UNL     1       3.202   6.431  18.438  0.00  0.00    +0.000 A 
ATOM     27  C   UNL     1       3.460   7.694  17.654  0.00  0.00    +0.000 C 
ATOM     28  C   UNL     1       4.471   6.782  16.866  0.00  0.00    +0.000 C 
ATOM     29  O   UNL     1       5.231   6.815  15.935  0.00  0.00    +0.000 OA
BRANCH  22  30
ATOM     30  C   UNL     1       2.058   3.727  20.884  0.00  0.00    +0.000 C 
ATOM     31  F   UNL     1       0.699   3.733  20.835  0.00  0.00    +0.000 F 
ATOM     32  F   UNL     1       2.415   2.414  20.895  0.00  0.00    +0.000 F 
ATOM     33  F   UNL     1       2.381   4.213  22.115  0.00  0.00    +0.000 F 
ENDBRANCH  22  30
ENDBRANCH  20  21
ENDBRANCH  18  20
ENDBRANCH   5  18
TORSDOF 7
ENDMDL
MODEL 4
REMARK VINA RESULT:      -8.4      3.598      4.710
REMARK  Name = 
REMARK  8 active torsions:
REMARK  status: ('A' for Active; 'I' for Inactive)
REMARK    1  A    between atoms: C_1  and  N_2
REMARK    2  A    between atoms: C_6  and  C_7
REMARK    3  A    between atoms: C_7  and  C_8
REMARK    4  A    between atoms: C_8  and  C_9
REMARK    5  A    between atoms: C_13  and  N_14
REMARK    6  A    between atoms: N_14  and  C_15
REMARK    7  A    between atoms: C_15  and  C_16
REMARK    8  A    between atoms: C_17  and  C_18
REMARK                            x       y       z     vdW  Elec       q    Type
REMARK                         _______ _______ _______ _____ _____    ______ ____
ROOT
ATOM      1  C   UNL     1      -0.023  10.569  20.224  0.00  0.00    +0.000 A 
ATOM      2  C   UNL     1      -0.242  10.190  21.559  0.00  0.00    +0.000 A 
ATOM      3  C   UNL     1       0.369   9.056  22.105  0.00  0.00    +0.000 A 
ATOM      4  C   UNL     1       1.190   8.248  21.316  0.00  0.00    +0.000 A 
ATOM      5  C   UNL     1       1.385   8.551  19.972  0.00  0.00    +0.000 A 
ATOM      6  C   UNL     1       0.838   9.743  19.482  0.00  0.00    +0.000 A 
ENDROOT
BRANCH   1   7
ATOM      7  C   UNL     1      -0.705  11.839  19.520  0.00  0.00    +0.000 C 
ATOM      8  C   UNL     1      -1.733  11.544  18.380  0.00  0.00    +0.000 C 
ATOM      9  O   UNL     1      -2.793  12.229  19.081  0.00  0.00    +0.000 OA
ATOM     10  C   UNL     1      -1.951  12.437  20.229  0.00  0.00    +0.000 C 
BRANCH   7  11
ATOM     11  C   UNL     1       0.357  12.905  19.180  0.00  0.00    +0.000 C 
BRANCH  11  17
ATOM     12  C   UNL     1      -0.562  15.897  19.711  0.00  0.00    +0.000 C 
ATOM     13  N   UNL     1       0.330  15.101  20.511  0.00  0.00    +0.000 N 
ATOM     14  C   UNL     1       0.962  15.537  21.634  0.00  0.00    +0.000 A 
ATOM     15  N   UNL     1       1.678  14.560  22.141  0.00  0.00    +0.000 NA
ATOM     16  N   UNL     1       1.529  13.470  21.320  0.00  0.00    +0.000 NA
ATOM     17  C   UNL     1       0.724  13.796  20.327  0.00  0.00    +0.000 A 
ENDBRANCH  11  17
ENDBRANCH   7  11
ENDBRANCH   1   7
BRANCH   5  18
ATOM     18  N   UNL     1       2.188   7.703  19.171  0.00  0.00    +0.000 N 
ATOM     19  H   UNL     1       1.619   7.403  18.378  0.00  0.00    +0.000 HD
BRANCH  18  20
ATOM     20  C   UNL     1       2.659   6.527  19.914  0.00  0.00    +0.000 C 
BRANCH  20  21
ATOM     21  C   UNL     1       2.955   5.327  19.058  0.00  0.00    +0.000 A 
ATOM     22  C   UNL     1       2.383   4.054  19.357  0.00  0.00    +0.000 A 
ATOM     23  C   UNL     1       2.659   2.929  18.519  0.00  0.00    +0.000 A 
ATOM     24  C   UNL     1       3.479   3.036  17.397  0.00  0.00    +0.000 A 
ATOM     25  C   UNL     1       4.007   4.280  17.177  0.00  0.00    +0.000 A 
ATOM     26  C   UNL     1       3.781   5.390  17.953  0.00  0.00    +0.000 A 
ATOM     27  C   UNL     1       4.673   6.280  17.124  0.00  0.00    +0.000 C 
ATOM     28  C   UNL     1       4.847   4.983  16.251  0.00  0.00    +0.000 C 
ATOM     29  O   UNL     1       5.381   4.598  15.244  0.00  0.00    +0.000 OA
BRANCH  22  30
ATOM     30  C   UNL     1       1.475   3.803  20.555  0.00  0.00    +0.000 C 
ATOM     31  F   UNL     1       1.047   2.520  20.700  0.00  0.00    +0.000 F 
ATOM     32  F   UNL     1       2.084   4.118  21.730  0.00  0.00    +0.000 F 
ATOM     33  F   UNL     1       0.343   4.561  20.505  0.00  0.00    +0.000 F 
ENDBRANCH  22  30
ENDBRANCH  20  21
ENDBRANCH  18  20
ENDBRANCH   5  18
TORSDOF 7
ENDMDL
MODEL 5
REMARK VINA RESULT:      -8.4      0.728      1.438
REMARK  Name = 
REMARK  8 active torsions:
REMARK  status: ('A' for Active; 'I' for Inactive)
REMARK    1  A    between atoms: C_1  and  N_2
REMARK    2  A    between atoms: C_6  and  C_7
REMARK    3  A    between atoms: C_7  and  C_8
REMARK    4  A    between atoms: C_8  and  C_9
REMARK    5  A    between atoms: C_13  and  N_14
REMARK    6  A    between atoms: N_14  and  C_15
REMARK    7  A    between atoms: C_15  and  C_16
REMARK    8  A    between atoms: C_17  and  C_18
REMARK                            x       y       z     vdW  Elec       q    Type
REMARK                         _______ _______ _______ _____ _____    ______ ____
ROOT
ATOM      1  C   UNL     1      -0.209   9.992  19.407  0.00  0.00    +0.000 A 
ATOM      2  C   UNL     1       0.026   9.557  20.722  0.00  0.00    +0.000 A 
ATOM      3  C   UNL     1       1.088   8.699  21.028  0.00  0.00    +0.000 A 
ATOM      4  C   UNL     1       1.925   8.224  20.015  0.00  0.00    +0.000 A 
ATOM      5  C   UNL     1       1.690   8.579  18.691  0.00  0.00    +0.000 A 
ATOM      6  C   UNL     1       0.680   9.513  18.431  0.00  0.00    +0.000 A 
ENDROOT
BRANCH   1   7
ATOM      7  C   UNL     1      -1.419  10.953  18.974  0.00  0.00    +0.000 C 
ATOM      8  C   UNL     1      -1.891  12.009  20.026  0.00  0.00    +0.000 C 
ATOM      9  O   UNL     1      -1.608  13.108  19.133  0.00  0.00    +0.000 OA
ATOM     10  C   UNL     1      -1.040  12.217  18.156  0.00  0.00    +0.000 C 
BRANCH   7  11
ATOM     11  C   UNL     1      -2.551  10.136  18.318  0.00  0.00    +0.000 C 
BRANCH  11  17
ATOM     12  C   UNL     1      -3.413  10.950  15.373  0.00  0.00    +0.000 C 
ATOM     13  N   UNL     1      -4.061  11.311  16.605  0.00  0.00    +0.000 N 
ATOM     14  C   UNL     1      -5.158  12.112  16.699  0.00  0.00    +0.000 A 
ATOM     15  N   UNL     1      -5.515  12.218  17.957  0.00  0.00    +0.000 NA
ATOM     16  N   UNL     1      -4.620  11.493  18.704  0.00  0.00    +0.000 NA
ATOM     17  C   UNL     1      -3.733  10.952  17.892  0.00  0.00    +0.000 A 
ENDBRANCH  11  17
ENDBRANCH   7  11
ENDBRANCH   1   7
BRANCH   5  18
ATOM     18  N   UNL     1       2.520   8.060  17.667  0.00  0.00    +0.000 N 
ATOM     19  H   UNL     1       1.944   7.450  17.086  0.00  0.00    +0.000 HD
BRANCH  18  20
ATOM     20  C   UNL     1       3.653   7.300  18.211  0.00  0.00    +0.000 C 
BRANCH  20  21
ATOM     21  C   UNL     1       3.649   5.838  17.858  0.00  0.00    +0.000 A 
ATOM     22  C   UNL     1       4.509   5.326  16.842  0.00  0.00    +0.000 A 
ATOM     23  C   UNL     1       4.505   3.929  16.536  0.00  0.00    +0.000 A 
ATOM     24  C   UNL     1       3.678   3.034  17.212  0.00  0.00    +0.000 A 
ATOM     25  C   UNL     1       2.868   3.594  18.164  0.00  0.00    +0.000 A 
ATOM     26  C   UNL     1       2.826   4.926  18.490  0.00  0.00    +0.000 A 
ATOM     27  C   UNL     1       1.743   4.745  19.525  0.00  0.00    +0.000 C 
ATOM     28  C   UNL     1       1.879   3.227  19.137  0.00  0.00    +0.000 C 
ATOM     29  O   UNL     1       1.448   2.145  19.432  0.00  0.00    +0.000 OA
BRANCH  22  30
ATOM     30  C   UNL     1       5.457   6.197  16.027  0.00  0.00    +0.000 C 
ATOM     31  F   UNL     1       6.323   6.951  16.756  0.00  0.00    +0.000 F 
ATOM     32  F   UNL     1       6.234   5.458  15.189  0.00  0.00    +0.000 F 
ATOM     33  F   UNL     1       4.785   7.078  15.233  0.00  0.00    +0.000 F 
ENDBRANCH  22  30
ENDBRANCH  20  21
ENDBRANCH  18  20
ENDBRANCH   5  18
TORSDOF 7
ENDMDL
MODEL 6
REMARK VINA RESULT:      -8.3      2.483      3.570
REMARK  Name = 
REMARK  8 active torsions:
REMARK  status: ('A' for Active; 'I' for Inactive)
REMARK    1  A    between atoms: C_1  and  N_2
REMARK    2  A    between atoms: C_6  and  C_7
REMARK    3  A    between atoms: C_7  and  C_8
REMARK    4  A    between atoms: C_8  and  C_9
REMARK    5  A    between atoms: C_13  and  N_14
REMARK    6  A    between atoms: N_14  and  C_15
REMARK    7  A    between atoms: C_15  and  C_16
REMARK    8  A    between atoms: C_17  and  C_18
REMARK                            x       y       z     vdW  Elec       q    Type
REMARK                         _______ _______ _______ _____ _____    ______ ____
ROOT
ATOM      1  C   UNL     1       0.404  10.433  19.846  0.00  0.00    +0.000 A 
ATOM      2  C   UNL     1       0.496   9.824  21.109  0.00  0.00    +0.000 A 
ATOM      3  C   UNL     1       1.191   8.623  21.291  0.00  0.00    +0.000 A 
ATOM      4  C   UNL     1       1.782   7.979  20.202  0.00  0.00    +0.000 A 
ATOM      5  C   UNL     1       1.661   8.513  18.924  0.00  0.00    +0.000 A 
ATOM      6  C   UNL     1       1.044   9.763  18.790  0.00  0.00    +0.000 A 
ENDROOT
BRANCH   1   7
ATOM      7  C   UNL     1      -0.395  11.794  19.554  0.00  0.00    +0.000 C 
ATOM      8  C   UNL     1      -1.673  11.683  18.662  0.00  0.00    +0.000 C 
ATOM      9  O   UNL     1      -2.516  12.221  19.704  0.00  0.00    +0.000 OA
ATOM     10  C   UNL     1      -1.417  12.242  20.633  0.00  0.00    +0.000 C 
BRANCH   7  11
ATOM     11  C   UNL     1       0.583  12.919  19.154  0.00  0.00    +0.000 C 
BRANCH  11  17
ATOM     12  C   UNL     1      -0.229  15.906  19.859  0.00  0.00    +0.000 C 
ATOM     13  N   UNL     1       0.704  15.065  20.560  0.00  0.00    +0.000 N 
ATOM     14  C   UNL     1       1.430  15.448  21.645  0.00  0.00    +0.000 A 
ATOM     15  N   UNL     1       2.161  14.439  22.061  0.00  0.00    +0.000 NA
ATOM     16  N   UNL     1       1.927  13.383  21.215  0.00  0.00    +0.000 NA
ATOM     17  C   UNL     1       1.055  13.760  20.300  0.00  0.00    +0.000 A 
ENDBRANCH  11  17
ENDBRANCH   7  11
ENDBRANCH   1   7
BRANCH   5  18
ATOM     18  N   UNL     1       2.231   7.832  17.821  0.00  0.00    +0.000 N 
ATOM     19  H   UNL     1       1.574   7.104  17.538  0.00  0.00    +0.000 HD
BRANCH  18  20
ATOM     20  C   UNL     1       3.526   7.225  18.158  0.00  0.00    +0.000 C 
BRANCH  20  21
ATOM     21  C   UNL     1       3.622   5.755  17.856  0.00  0.00    +0.000 A 
ATOM     22  C   UNL     1       4.519   5.269  16.858  0.00  0.00    +0.000 A 
ATOM     23  C   UNL     1       4.611   3.865  16.600  0.00  0.00    +0.000 A 
ATOM     24  C   UNL     1       3.846   2.939  17.306  0.00  0.00    +0.000 A 
ATOM     25  C   UNL     1       2.996   3.474  18.237  0.00  0.00    +0.000 A 
ATOM     26  C   UNL     1       2.862   4.811  18.518  0.00  0.00    +0.000 A 
ATOM     27  C   UNL     1       1.792   4.591  19.558  0.00  0.00    +0.000 C 
ATOM     28  C   UNL     1       2.032   3.074  19.222  0.00  0.00    +0.000 C 
ATOM     29  O   UNL     1       1.675   1.975  19.553  0.00  0.00    +0.000 OA
BRANCH  22  30
ATOM     30  C   UNL     1       5.407   6.175  16.014  0.00  0.00    +0.000 C 
ATOM     31  F   UNL     1       4.749   7.112  15.281  0.00  0.00    +0.000 F 
ATOM     32  F   UNL     1       6.297   6.868  16.777  0.00  0.00    +0.000 F 
ATOM     33  F   UNL     1       6.153   5.468  15.120  0.00  0.00    +0.000 F 
ENDBRANCH  22  30
ENDBRANCH  20  21
ENDBRANCH  18  20
ENDBRANCH   5  18
TORSDOF 7
ENDMDL
MODEL 7
REMARK VINA RESULT:      -8.3      2.955      3.785
REMARK  Name = 
REMARK  8 active torsions:
REMARK  status: ('A' for Active; 'I' for Inactive)
REMARK    1  A    between atoms: C_1  and  N_2
REMARK    2  A    between atoms: C_6  and  C_7
REMARK    3  A    between atoms: C_7  and  C_8
REMARK    4  A    between atoms: C_8  and  C_9
REMARK    5  A    between atoms: C_13  and  N_14
REMARK    6  A    between atoms: N_14  and  C_15
REMARK    7  A    between atoms: C_15  and  C_16
REMARK    8  A    between atoms: C_17  and  C_18
REMARK                            x       y       z     vdW  Elec       q    Type
REMARK                         _______ _______ _______ _____ _____    ______ ____
ROOT
ATOM      1  C   UNL     1       1.088   9.937  19.238  0.00  0.00    +0.000 A 
ATOM      2  C   UNL     1       1.813  10.003  18.037  0.00  0.00    +0.000 A 
ATOM      3  C   UNL     1       2.530   8.901  17.555  0.00  0.00    +0.000 A 
ATOM      4  C   UNL     1       2.567   7.711  18.284  0.00  0.00    +0.000 A 
ATOM      5  C   UNL     1       1.916   7.622  19.510  0.00  0.00    +0.000 A 
ATOM      6  C   UNL     1       1.131   8.708  19.917  0.00  0.00    +0.000 A 
ENDROOT
BRANCH   1   7
ATOM      7  C   UNL     1       0.266  11.162  19.867  0.00  0.00    +0.000 C 
ATOM      8  C   UNL     1      -0.567  10.864  21.156  0.00  0.00    +0.000 C 
ATOM      9  O   UNL     1       0.155  11.854  21.920  0.00  0.00    +0.000 OA
ATOM     10  C   UNL     1       1.050  12.105  20.820  0.00  0.00    +0.000 C 
BRANCH   7  11
ATOM     11  C   UNL     1      -0.494  11.928  18.763  0.00  0.00    +0.000 C 
BRANCH  11  17
ATOM     12  C   UNL     1      -3.536  12.401  19.536  0.00  0.00    +0.000 C 
ATOM     13  N   UNL     1      -3.008  11.427  18.619  0.00  0.00    +0.000 N 
ATOM     14  C   UNL     1      -3.755  10.508  17.949  0.00  0.00    +0.000 A 
ATOM     15  N   UNL     1      -2.975   9.791  17.173  0.00  0.00    +0.000 NA
ATOM     16  N   UNL     1      -1.689  10.234  17.358  0.00  0.00    +0.000 NA
ATOM     17  C   UNL     1      -1.703  11.216  18.240  0.00  0.00    +0.000 A 
ENDBRANCH  11  17
ENDBRANCH   7  11
ENDBRANCH   1   7
BRANCH   5  18
ATOM     18  N   UNL     1       1.993   6.424  20.261  0.00  0.00    +0.000 N 
ATOM     19  H   UNL     1       1.761   6.653  21.228  0.00  0.00    +0.000 HD
BRANCH  18  20
ATOM     20  C   UNL     1       3.332   5.823  20.202  0.00  0.00    +0.000 C 
BRANCH  20  21
ATOM     21  C   UNL     1       3.424   4.589  19.347  0.00  0.00    +0.000 A 
ATOM     22  C   UNL     1       2.696   3.408  19.682  0.00  0.00    +0.000 A 
ATOM     23  C   UNL     1       2.780   2.252  18.845  0.00  0.00    +0.000 A 
ATOM     24  C   UNL     1       3.558   2.241  17.689  0.00  0.00    +0.000 A 
ATOM     25  C   UNL     1       4.241   3.399  17.434  0.00  0.00    +0.000 A 
ATOM     26  C   UNL     1       4.203   4.533  18.208  0.00  0.00    +0.000 A 
ATOM     27  C   UNL     1       5.172   5.288  17.333  0.00  0.00    +0.000 C 
ATOM     28  C   UNL     1       5.131   3.975  16.467  0.00  0.00    +0.000 C 
ATOM     29  O   UNL     1       5.563   3.516  15.444  0.00  0.00    +0.000 OA
BRANCH  22  30
ATOM     30  C   UNL     1       1.813   3.290  20.919  0.00  0.00    +0.000 C 
ATOM     31  F   UNL     1       2.343   3.803  22.061  0.00  0.00    +0.000 F 
ATOM     32  F   UNL     1       0.619   3.923  20.755  0.00  0.00    +0.000 F 
ATOM     33  F   UNL     1       1.511   1.993  21.207  0.00  0.00    +0.000 F 
ENDBRANCH  22  30
ENDBRANCH  20  21
ENDBRANCH  18  20
ENDBRANCH   5  18
TORSDOF 7
ENDMDL
MODEL 8
REMARK VINA RESULT:      -8.3      3.703      4.741
REMARK  Name = 
REMARK  8 active torsions:
REMARK  status: ('A' for Active; 'I' for Inactive)
REMARK    1  A    between atoms: C_1  and  N_2
REMARK    2  A    between atoms: C_6  and  C_7
REMARK    3  A    between atoms: C_7  and  C_8
REMARK    4  A    between atoms: C_8  and  C_9
REMARK    5  A    between atoms: C_13  and  N_14
REMARK    6  A    between atoms: N_14  and  C_15
REMARK    7  A    between atoms: C_15  and  C_16
REMARK    8  A    between atoms: C_17  and  C_18
REMARK                            x       y       z     vdW  Elec       q    Type
REMARK                         _______ _______ _______ _____ _____    ______ ____
ROOT
ATOM      1  C   UNL     1      -0.131  10.782  20.592  0.00  0.00    +0.000 A 
ATOM      2  C   UNL     1      -0.278  10.367  21.926  0.00  0.00    +0.000 A 
ATOM      3  C   UNL     1       0.354   9.213  22.404  0.00  0.00    +0.000 A 
ATOM      4  C   UNL     1       1.122   8.423  21.547  0.00  0.00    +0.000 A 
ATOM      5  C   UNL     1       1.243   8.763  20.204  0.00  0.00    +0.000 A 
ATOM      6  C   UNL     1       0.679   9.972  19.779  0.00  0.00    +0.000 A 
ENDROOT
BRANCH   1   7
ATOM      7  C   UNL     1      -0.842  12.076  19.964  0.00  0.00    +0.000 C 
ATOM      8  C   UNL     1      -0.073  12.819  18.824  0.00  0.00    +0.000 C 
ATOM      9  O   UNL     1      -1.154  12.620  17.887  0.00  0.00    +0.000 OA
ATOM     10  C   UNL     1      -1.879  11.817  18.836  0.00  0.00    +0.000 C 
BRANCH   7  11
ATOM     11  C   UNL     1      -1.392  12.988  21.081  0.00  0.00    +0.000 C 
BRANCH  11  17
ATOM     12  C   UNL     1      -1.537  16.067  20.323  0.00  0.00    +0.000 C 
ATOM     13  N   UNL     1      -0.538  15.409  21.121  0.00  0.00    +0.000 N 
ATOM     14  C   UNL     1       0.551  16.022  21.661  0.00  0.00    +0.000 A 
ATOM     15  N   UNL     1       1.245  15.149  22.355  0.00  0.00    +0.000 NA
ATOM     16  N   UNL     1       0.611  13.937  22.247  0.00  0.00    +0.000 NA
ATOM     17  C   UNL     1      -0.461  14.087  21.493  0.00  0.00    +0.000 A 
ENDBRANCH  11  17
ENDBRANCH   7  11
ENDBRANCH   1   7
BRANCH   5  18
ATOM     18  N   UNL     1       1.992   7.933  19.334  0.00  0.00    +0.000 N 
ATOM     19  H   UNL     1       1.400   7.718  18.531  0.00  0.00    +0.000 HD
BRANCH  18  20
ATOM     20  C   UNL     1       2.411   6.687  19.988  0.00  0.00    +0.000 C 
BRANCH  20  21
ATOM     21  C   UNL     1       2.879   5.615  19.043  0.00  0.00    +0.000 A 
ATOM     22  C   UNL     1       2.449   4.263  19.196  0.00  0.00    +0.000 A 
ATOM     23  C   UNL     1       2.890   3.262  18.275  0.00  0.00    +0.000 A 
ATOM     24  C   UNL     1       3.735   3.568  17.210  0.00  0.00    +0.000 A 
ATOM     25  C   UNL     1       4.122   4.879  17.131  0.00  0.00    +0.000 A 
ATOM     26  C   UNL     1       3.736   5.876  17.992  0.00  0.00    +0.000 A 
ATOM     27  C   UNL     1       4.551   6.937  17.293  0.00  0.00    +0.000 C 
ATOM     28  C   UNL     1       4.911   5.758  16.316  0.00  0.00    +0.000 C 
ATOM     29  O   UNL     1       5.526   5.534  15.308  0.00  0.00    +0.000 OA
BRANCH  22  30
ATOM     30  C   UNL     1       1.529   3.797  20.318  0.00  0.00    +0.000 C 
ATOM     31  F   UNL     1       0.323   4.421  20.375  0.00  0.00    +0.000 F 
ATOM     32  F   UNL     1       1.247   2.468  20.226  0.00  0.00    +0.000 F 
ATOM     33  F   UNL     1       2.092   3.975  21.546  0.00  0.00    +0.000 F 
ENDBRANCH  22  30
ENDBRANCH  20  21
ENDBRANCH  18  20
ENDBRANCH   5  18
TORSDOF 7
ENDMDL
MODEL 9
REMARK VINA RESULT:      -8.3      2.675      3.437
REMARK  Name = 
REMARK  8 active torsions:
REMARK  status: ('A' for Active; 'I' for Inactive)
REMARK    1  A    between atoms: C_1  and  N_2
REMARK    2  A    between atoms: C_6  and  C_7
REMARK    3  A    between atoms: C_7  and  C_8
REMARK    4  A    between atoms: C_8  and  C_9
REMARK    5  A    between atoms: C_13  and  N_14
REMARK    6  A    between atoms: N_14  and  C_15
REMARK    7  A    between atoms: C_15  and  C_16
REMARK    8  A    between atoms: C_17  and  C_18
REMARK                            x       y       z     vdW  Elec       q    Type
REMARK                         _______ _______ _______ _____ _____    ______ ____
ROOT
ATOM      1  C   UNL     1      -0.032  10.236  19.794  0.00  0.00    +0.000 A 
ATOM      2  C   UNL     1      -0.264   9.920  21.142  0.00  0.00    +0.000 A 
ATOM      3  C   UNL     1       0.414   8.870  21.773  0.00  0.00    +0.000 A 
ATOM      4  C   UNL     1       1.317   8.083  21.056  0.00  0.00    +0.000 A 
ATOM      5  C   UNL     1       1.530   8.321  19.702  0.00  0.00    +0.000 A 
ATOM      6  C   UNL     1       0.910   9.437  19.126  0.00  0.00    +0.000 A 
ENDROOT
BRANCH   1   7
ATOM      7  C   UNL     1      -0.787  11.406  18.996  0.00  0.00    +0.000 C 
ATOM      8  C   UNL     1      -1.609  12.425  19.850  0.00  0.00    +0.000 C 
ATOM      9  O   UNL     1      -0.829  13.542  19.372  0.00  0.00    +0.000 OA
ATOM     10  C   UNL     1       0.056  12.664  18.652  0.00  0.00    +0.000 C 
BRANCH   7  11
ATOM     11  C   UNL     1      -1.530  10.834  17.771  0.00  0.00    +0.000 C 
BRANCH  11  17
ATOM     12  C   UNL     1      -3.409  10.868  15.212  0.00  0.00    +0.000 C 
ATOM     13  N   UNL     1      -3.752  11.254  16.555  0.00  0.00    +0.000 N 
ATOM     14  C   UNL     1      -4.965  11.740  16.936  0.00  0.00    +0.000 A 
ATOM     15  N   UNL     1      -4.959  11.966  18.229  0.00  0.00    +0.000 NA
ATOM     16  N   UNL     1      -3.710  11.643  18.699  0.00  0.00    +0.000 NA
ATOM     17  C   UNL     1      -2.974  11.223  17.689  0.00  0.00    +0.000 A 
ENDBRANCH  11  17
ENDBRANCH   7  11
ENDBRANCH   1   7
BRANCH   5  18
ATOM     18  N   UNL     1       2.419   7.493  18.974  0.00  0.00    +0.000 N 
ATOM     19  H   UNL     1       1.901   7.108  18.184  0.00  0.00    +0.000 HD
BRANCH  18  20
ATOM     20  C   UNL     1       2.949   6.398  19.798  0.00  0.00    +0.000 C 
BRANCH  20  21
ATOM     21  C   UNL     1       3.143   5.102  19.061  0.00  0.00    +0.000 A 
ATOM     22  C   UNL     1       2.459   3.917  19.469  0.00  0.00    +0.000 A 
ATOM     23  C   UNL     1       2.640   2.699  18.742  0.00  0.00    +0.000 A 
ATOM     24  C   UNL     1       3.472   2.629  17.627  0.00  0.00    +0.000 A 
ATOM     25  C   UNL     1       4.109   3.796  17.300  0.00  0.00    +0.000 A 
ATOM     26  C   UNL     1       3.978   4.988  17.967  0.00  0.00    +0.000 A 
ATOM     27  C   UNL     1       4.950   5.715  17.071  0.00  0.00    +0.000 C 
ATOM     28  C   UNL     1       5.015   4.332  16.325  0.00  0.00    +0.000 C 
ATOM     29  O   UNL     1       5.518   3.810  15.366  0.00  0.00    +0.000 OA
BRANCH  22  30
ATOM     30  C   UNL     1       1.525   3.860  20.671  0.00  0.00    +0.000 C 
ATOM     31  F   UNL     1       0.906   2.665  20.868  0.00  0.00    +0.000 F 
ATOM     32  F   UNL     1       2.177   4.128  21.835  0.00  0.00    +0.000 F 
ATOM     33  F   UNL     1       0.523   4.779  20.583  0.00  0.00    +0.000 F 
ENDBRANCH  22  30
ENDBRANCH  20  21
ENDBRANCH  18  20
ENDBRANCH   5  18
TORSDOF 7
ENDMDL
