MODEL 1
REMARK VINA RESULT:      -9.4      0.000      0.000
REMARK  Name = 
REMARK  5 active torsions:
REMARK  status: ('A' for Active; 'I' for Inactive)
REMARK    1  A    between atoms: C_2  and  C_3
REMARK    2  A    between atoms: C_3  and  C_4
REMARK    3  A    between atoms: N_13  and  C_14
REMARK    4  A    between atoms: C_18  and  C_19
REMARK    5  A    between atoms: C_19  and  N_20
REMARK                            x       y       z     vdW  Elec       q    Type
REMARK                         _______ _______ _______ _____ _____    ______ ____
ROOT
ATOM      1  C   UNL     1       1.964   7.484  19.783  0.00  0.00    +0.000 A 
ATOM      2  C   UNL     1       1.432   6.610  20.732  0.00  0.00    +0.000 A 
ATOM      3  C   UNL     1       1.829   5.272  20.774  0.00  0.00    +0.000 A 
ATOM      4  C   UNL     1       2.725   4.776  19.832  0.00  0.00    +0.000 A 
ATOM      5  C   UNL     1       3.196   5.607  18.808  0.00  0.00    +0.000 A 
ATOM      6  C   UNL     1       2.822   6.967  18.803  0.00  0.00    +0.000 A 
ENDROOT
BRANCH   1   9
ATOM      7  O   UNL     1      -0.308   8.908  20.999  0.00  0.00    +0.000 OA
ATOM      8  C   UNL     1       0.556   9.471  20.327  0.00  0.00    +0.000 C 
ATOM      9  N   UNL     1       1.665   8.867  19.753  0.00  0.00    +0.000 N 
ATOM     10  H   UNL     1       2.396   9.486  19.422  0.00  0.00    +0.000 HD
BRANCH   8  11
ATOM     11  C   UNL     1       0.423  10.958  20.020  0.00  0.00    +0.000 C 
BRANCH  11  12
ATOM     12  C   UNL     1      -0.955  11.384  19.624  0.00  0.00    +0.000 A 
ATOM     13  C   UNL     1      -1.735  12.318  20.281  0.00  0.00    +0.000 A 
ATOM     14  N   UNL     1      -2.908  12.464  19.591  0.00  0.00    +0.000 N 
ATOM     15  C   UNL     1      -2.921  11.635  18.495  0.00  0.00    +0.000 A 
ATOM     16  C   UNL     1      -3.913  11.444  17.524  0.00  0.00    +0.000 A 
ATOM     17  C   UNL     1      -3.651  10.528  16.502  0.00  0.00    +0.000 A 
ATOM     18  C   UNL     1      -2.435   9.850  16.442  0.00  0.00    +0.000 A 
ATOM     19  C   UNL     1      -1.451  10.061  17.417  0.00  0.00    +0.000 A 
ATOM     20  C   UNL     1      -1.700  10.959  18.476  0.00  0.00    +0.000 A 
ATOM     21  H   UNL     1      -3.659  13.092  19.841  0.00  0.00    +0.000 HD
ENDBRANCH  11  12
ENDBRANCH   8  11
ENDBRANCH   1   9
BRANCH   5  22
ATOM     22  C   UNL     1       4.054   5.042  17.701  0.00  0.00    +0.000 C 
BRANCH  22  23
ATOM     23  N   UNL     1       5.442   5.468  17.793  0.00  0.00    +0.000 N 
ATOM     24  N   UNL     1       6.149   4.992  18.910  0.00  0.00    +0.000 N 
ATOM     25  C   UNL     1       7.290   5.595  19.368  0.00  0.00    +0.000 A 
ATOM     26  O   UNL     1       7.800   5.317  20.445  0.00  0.00    +0.000 OA
ATOM     27  C   UNL     1       7.905   6.588  18.470  0.00  0.00    +0.000 A 
ATOM     28  C   UNL     1       7.309   6.942  17.328  0.00  0.00    +0.000 A 
ATOM     29  C   UNL     1       5.975   6.420  16.948  0.00  0.00    +0.000 A 
ATOM     30  O   UNL     1       5.409   6.879  15.968  0.00  0.00    +0.000 OA
ATOM     31  H   UNL     1       5.728   4.284  19.500  0.00  0.00    +0.000 HD
ENDBRANCH  22  23
ENDBRANCH   5  22
TORSDOF 5
ENDMDL
MODEL 2
REMARK VINA RESULT:      -9.2      2.940      9.177
REMARK  Name = 
REMARK  5 active torsions:
REMARK  status: ('A' for Active; 'I' for Inactive)
REMARK    1  A    between atoms: C_2  and  C_3
REMARK    2  A    between atoms: C_3  and  C_4
REMARK    3  A    between atoms: N_13  and  C_14
REMARK    4  A    between atoms: C_18  and  C_19
REMARK    5  A    between atoms: C_19  and  N_20
REMARK                            x       y       z     vdW  Elec       q    Type
REMARK                         _______ _______ _______ _____ _____    ______ ____
ROOT
ATOM      1  C   UNL     1       2.612   6.410  18.549  0.00  0.00    +0.000 A 
ATOM      2  C   UNL     1       2.346   6.149  19.894  0.00  0.00    +0.000 A 
ATOM      3  C   UNL     1       1.709   7.099  20.695  0.00  0.00    +0.000 A 
ATOM      4  C   UNL     1       1.379   8.347  20.174  0.00  0.00    +0.000 A 
ATOM      5  C   UNL     1       1.727   8.671  18.858  0.00  0.00    +0.000 A 
ATOM      6  C   UNL     1       2.328   7.687  18.046  0.00  0.00    +0.000 A 
ENDROOT
BRANCH   1   9
ATOM      7  O   UNL     1       5.034   4.775  18.905  0.00  0.00    +0.000 OA
ATOM      8  C   UNL     1       4.337   4.732  17.891  0.00  0.00    +0.000 C 
ATOM      9  N   UNL     1       3.172   5.451  17.672  0.00  0.00    +0.000 N 
ATOM     10  H   UNL     1       2.594   5.150  16.895  0.00  0.00    +0.000 HD
BRANCH   8  11
ATOM     11  C   UNL     1       4.772   3.867  16.713  0.00  0.00    +0.000 C 
BRANCH  11  12
ATOM     12  C   UNL     1       5.838   4.478  15.861  0.00  0.00    +0.000 A 
ATOM     13  C   UNL     1       6.800   5.376  16.287  0.00  0.00    +0.000 A 
ATOM     14  N   UNL     1       7.617   5.669  15.229  0.00  0.00    +0.000 N 
ATOM     15  C   UNL     1       7.207   4.987  14.109  0.00  0.00    +0.000 A 
ATOM     16  C   UNL     1       7.732   4.993  12.810  0.00  0.00    +0.000 A 
ATOM     17  C   UNL     1       7.108   4.187  11.855  0.00  0.00    +0.000 A 
ATOM     18  C   UNL     1       6.017   3.388  12.194  0.00  0.00    +0.000 A 
ATOM     19  C   UNL     1       5.511   3.389  13.500  0.00  0.00    +0.000 A 
ATOM     20  C   UNL     1       6.105   4.215  14.478  0.00  0.00    +0.000 A 
ATOM     21  H   UNL     1       8.413   6.290  15.260  0.00  0.00    +0.000 HD
ENDBRANCH  11  12
ENDBRANCH   8  11
ENDBRANCH   1   9
BRANCH   5  22
ATOM     22  C   UNL     1       1.501  10.069  18.331  0.00  0.00    +0.000 C 
BRANCH  22  23
ATOM     23  N   UNL     1       0.112  10.491  18.436  0.00  0.00    +0.000 N 
ATOM     24  N   UNL     1      -0.765   9.929  17.494  0.00  0.00    +0.000 N 
ATOM     25  C   UNL     1      -1.972  10.496  17.184  0.00  0.00    +0.000 A 
ATOM     26  O   UNL     1      -2.651  10.134  16.232  0.00  0.00    +0.000 OA
ATOM     27  C   UNL     1      -2.439  11.562  18.088  0.00  0.00    +0.000 A 
ATOM     28  C   UNL     1      -1.666  12.006  19.083  0.00  0.00    +0.000 A 
ATOM     29  C   UNL     1      -0.282  11.512  19.278  0.00  0.00    +0.000 A 
ATOM     30  O   UNL     1       0.433  12.046  20.110  0.00  0.00    +0.000 OA
ATOM     31  H   UNL     1      -0.441   9.173  16.902  0.00  0.00    +0.000 HD
ENDBRANCH  22  23
ENDBRANCH   5  22
TORSDOF 5
ENDMDL
MODEL 3
REMARK VINA RESULT:      -9.1      1.805      2.576
REMARK  Name = 
REMARK  5 active torsions:
REMARK  status: ('A' for Active; 'I' for Inactive)
REMARK    1  A    between atoms: C_2  and  C_3
REMARK    2  A    between atoms: C_3  and  C_4
REMARK    3  A    between atoms: N_13  and  C_14
REMARK    4  A    between atoms: C_18  and  C_19
REMARK    5  A    between atoms: C_19  and  N_20
REMARK                            x       y       z     vdW  Elec       q    Type
REMARK                         _______ _______ _______ _____ _____    ______ ____
ROOT
ATOM      1  C   UNL     1       2.161   6.497  20.206  0.00  0.00    +0.000 A 
ATOM      2  C   UNL     1       1.417   5.420  20.689  0.00  0.00    +0.000 A 
ATOM      3  C   UNL     1       1.618   4.130  20.193  0.00  0.00    +0.000 A 
ATOM      4  C   UNL     1       2.531   3.910  19.165  0.00  0.00    +0.000 A 
ATOM      5  C   UNL     1       3.216   4.988  18.593  0.00  0.00    +0.000 A 
ATOM      6  C   UNL     1       3.037   6.278  19.134  0.00  0.00    +0.000 A 
ENDROOT
BRANCH   1   9
ATOM      7  O   UNL     1      -0.204   7.871  21.295  0.00  0.00    +0.000 OA
ATOM      8  C   UNL     1       0.903   8.404  21.210  0.00  0.00    +0.000 C 
ATOM      9  N   UNL     1       2.061   7.806  20.736  0.00  0.00    +0.000 N 
ATOM     10  H   UNL     1       2.931   8.288  20.931  0.00  0.00    +0.000 HD
BRANCH   8  11
ATOM     11  C   UNL     1       1.066   9.869  21.597  0.00  0.00    +0.000 C 
BRANCH  11  12
ATOM     12  C   UNL     1       0.036  10.780  21.008  0.00  0.00    +0.000 A 
ATOM     13  C   UNL     1      -0.041  11.165  19.682  0.00  0.00    +0.000 A 
ATOM     14  N   UNL     1      -1.141  11.965  19.528  0.00  0.00    +0.000 N 
ATOM     15  C   UNL     1      -1.787  12.122  20.731  0.00  0.00    +0.000 A 
ATOM     16  C   UNL     1      -2.935  12.861  21.045  0.00  0.00    +0.000 A 
ATOM     17  C   UNL     1      -3.379  12.837  22.370  0.00  0.00    +0.000 A 
ATOM     18  C   UNL     1      -2.711  12.085  23.335  0.00  0.00    +0.000 A 
ATOM     19  C   UNL     1      -1.569  11.346  23.000  0.00  0.00    +0.000 A 
ATOM     20  C   UNL     1      -1.084  11.374  21.676  0.00  0.00    +0.000 A 
ATOM     21  H   UNL     1      -1.446  12.378  18.658  0.00  0.00    +0.000 HD
ENDBRANCH  11  12
ENDBRANCH   8  11
ENDBRANCH   1   9
BRANCH   5  22
ATOM     22  C   UNL     1       4.098   4.777  17.385  0.00  0.00    +0.000 C 
BRANCH  22  23
ATOM     23  N   UNL     1       5.439   5.314  17.569  0.00  0.00    +0.000 N 
ATOM     24  N   UNL     1       6.126   4.854  18.704  0.00  0.00    +0.000 N 
ATOM     25  C   UNL     1       7.186   5.530  19.245  0.00  0.00    +0.000 A 
ATOM     26  O   UNL     1       7.663   5.252  20.338  0.00  0.00    +0.000 OA
ATOM     27  C   UNL     1       7.759   6.607  18.418  0.00  0.00    +0.000 A 
ATOM     28  C   UNL     1       7.194   6.957  17.260  0.00  0.00    +0.000 A 
ATOM     29  C   UNL     1       5.930   6.341  16.789  0.00  0.00    +0.000 A 
ATOM     30  O   UNL     1       5.378   6.791  15.797  0.00  0.00    +0.000 OA
ATOM     31  H   UNL     1       5.738   4.089  19.244  0.00  0.00    +0.000 HD
ENDBRANCH  22  23
ENDBRANCH   5  22
TORSDOF 5
ENDMDL
MODEL 4
REMARK VINA RESULT:      -9.1      2.537      3.524
REMARK  Name = 
REMARK  5 active torsions:
REMARK  status: ('A' for Active; 'I' for Inactive)
REMARK    1  A    between atoms: C_2  and  C_3
REMARK    2  A    between atoms: C_3  and  C_4
REMARK    3  A    between atoms: N_13  and  C_14
REMARK    4  A    between atoms: C_18  and  C_19
REMARK    5  A    between atoms: C_19  and  N_20
REMARK                            x       y       z     vdW  Elec       q    Type
REMARK                         _______ _______ _______ _____ _____    ______ ____
ROOT
ATOM      1  C   UNL     1       2.250   5.186  17.862  0.00  0.00    +0.000 A 
ATOM      2  C   UNL     1       1.532   4.026  18.154  0.00  0.00    +0.000 A 
ATOM      3  C   UNL     1       2.133   2.768  18.057  0.00  0.00    +0.000 A 
ATOM      4  C   UNL     1       3.447   2.652  17.613  0.00  0.00    +0.000 A 
ATOM      5  C   UNL     1       4.156   3.792  17.216  0.00  0.00    +0.000 A 
ATOM      6  C   UNL     1       3.554   5.059  17.362  0.00  0.00    +0.000 A 
ENDROOT
BRANCH   1   9
ATOM      7  O   UNL     1       3.672   7.762  17.949  0.00  0.00    +0.000 OA
ATOM      8  C   UNL     1       2.453   7.662  18.090  0.00  0.00    +0.000 C 
ATOM      9  N   UNL     1       1.719   6.487  18.031  0.00  0.00    +0.000 N 
ATOM     10  H   UNL     1       0.714   6.585  17.944  0.00  0.00    +0.000 HD
BRANCH   8  11
ATOM     11  C   UNL     1       1.627   8.902  18.413  0.00  0.00    +0.000 C 
BRANCH  11  12
ATOM     12  C   UNL     1       1.200   9.001  19.843  0.00  0.00    +0.000 A 
ATOM     13  C   UNL     1       1.591   8.157  20.866  0.00  0.00    +0.000 A 
ATOM     14  N   UNL     1       1.024   8.597  22.031  0.00  0.00    +0.000 N 
ATOM     15  C   UNL     1       0.257   9.713  21.794  0.00  0.00    +0.000 A 
ATOM     16  C   UNL     1      -0.509  10.482  22.680  0.00  0.00    +0.000 A 
ATOM     17  C   UNL     1      -1.193  11.582  22.158  0.00  0.00    +0.000 A 
ATOM     18  C   UNL     1      -1.095  11.912  20.807  0.00  0.00    +0.000 A 
ATOM     19  C   UNL     1      -0.316  11.136  19.938  0.00  0.00    +0.000 A 
ATOM     20  C   UNL     1       0.363  10.004  20.434  0.00  0.00    +0.000 A 
ATOM     21  H   UNL     1       1.152   8.174  22.939  0.00  0.00    +0.000 HD
ENDBRANCH  11  12
ENDBRANCH   8  11
ENDBRANCH   1   9
BRANCH   5  22
ATOM     22  C   UNL     1       5.528   3.660  16.599  0.00  0.00    +0.000 C 
BRANCH  22  23
ATOM     23  N   UNL     1       6.465   4.658  17.095  0.00  0.00    +0.000 N 
ATOM     24  N   UNL     1       6.924   4.460  18.408  0.00  0.00    +0.000 N 
ATOM     25  C   UNL     1       7.460   5.471  19.159  0.00  0.00    +0.000 A 
ATOM     26  O   UNL     1       7.677   5.363  20.358  0.00  0.00    +0.000 OA
ATOM     27  C   UNL     1       7.801   6.707  18.433  0.00  0.00    +0.000 A 
ATOM     28  C   UNL     1       7.498   6.850  17.141  0.00  0.00    +0.000 A 
ATOM     29  C   UNL     1       6.739   5.816  16.396  0.00  0.00    +0.000 A 
ATOM     30  O   UNL     1       6.363   6.052  15.259  0.00  0.00    +0.000 OA
ATOM     31  H   UNL     1       6.712   3.590  18.882  0.00  0.00    +0.000 HD
ENDBRANCH  22  23
ENDBRANCH   5  22
TORSDOF 5
ENDMDL
MODEL 5
REMARK VINA RESULT:      -9.0      1.116      1.184
REMARK  Name = 
REMARK  5 active torsions:
REMARK  status: ('A' for Active; 'I' for Inactive)
REMARK    1  A    between atoms: C_2  and  C_3
REMARK    2  A    between atoms: C_3  and  C_4
REMARK    3  A    between atoms: N_13  and  C_14
REMARK    4  A    between atoms: C_18  and  C_19
REMARK    5  A    between atoms: C_19  and  N_20
REMARK                            x       y       z     vdW  Elec       q    Type
REMARK                         _______ _______ _______ _____ _____    ______ ____
ROOT
ATOM      1  C   UNL     1       2.134   6.779  19.843  0.00  0.00    +0.000 A 
ATOM      2  C   UNL     1       1.486   5.911  20.722  0.00  0.00    +0.000 A 
ATOM      3  C   UNL     1       1.855   4.565  20.802  0.00  0.00    +0.000 A 
ATOM      4  C   UNL     1       2.842   4.058  19.962  0.00  0.00    +0.000 A 
ATOM      5  C   UNL     1       3.436   4.884  19.001  0.00  0.00    +0.000 A 
ATOM      6  C   UNL     1       3.087   6.250  18.961  0.00  0.00    +0.000 A 
ENDROOT
BRANCH   1   9
ATOM      7  O   UNL     1       1.571   8.454  17.488  0.00  0.00    +0.000 OA
ATOM      8  C   UNL     1       1.631   8.902  18.633  0.00  0.00    +0.000 C 
ATOM      9  N   UNL     1       1.862   8.166  19.786  0.00  0.00    +0.000 N 
ATOM     10  H   UNL     1       1.666   8.630  20.665  0.00  0.00    +0.000 HD
BRANCH   8  11
ATOM     11  C   UNL     1       1.500  10.403  18.863  0.00  0.00    +0.000 C 
BRANCH  11  12
ATOM     12  C   UNL     1       0.105  10.863  19.143  0.00  0.00    +0.000 A 
ATOM     13  C   UNL     1      -0.289  11.659  20.203  0.00  0.00    +0.000 A 
ATOM     14  N   UNL     1      -1.632  11.896  20.091  0.00  0.00    +0.000 N 
ATOM     15  C   UNL     1      -2.135  11.263  18.979  0.00  0.00    +0.000 A 
ATOM     16  C   UNL     1      -3.446  11.218  18.486  0.00  0.00    +0.000 A 
ATOM     17  C   UNL     1      -3.673  10.493  17.315  0.00  0.00    +0.000 A 
ATOM     18  C   UNL     1      -2.624   9.857  16.651  0.00  0.00    +0.000 A 
ATOM     19  C   UNL     1      -1.319   9.920  17.155  0.00  0.00    +0.000 A 
ATOM     20  C   UNL     1      -1.066  10.623  18.352  0.00  0.00    +0.000 A 
ATOM     21  H   UNL     1      -2.181  12.460  20.725  0.00  0.00    +0.000 HD
ENDBRANCH  11  12
ENDBRANCH   8  11
ENDBRANCH   1   9
BRANCH   5  22
ATOM     22  C   UNL     1       4.403   4.309  17.993  0.00  0.00    +0.000 C 
BRANCH  22  23
ATOM     23  N   UNL     1       5.697   4.974  18.012  0.00  0.00    +0.000 N 
ATOM     24  N   UNL     1       6.499   4.709  19.135  0.00  0.00    +0.000 N 
ATOM     25  C   UNL     1       7.525   5.531  19.515  0.00  0.00    +0.000 A 
ATOM     26  O   UNL     1       8.098   5.423  20.591  0.00  0.00    +0.000 OA
ATOM     27  C   UNL     1       7.939   6.549  18.533  0.00  0.00    +0.000 A 
ATOM     28  C   UNL     1       7.267   6.713  17.390  0.00  0.00    +0.000 A 
ATOM     29  C   UNL     1       6.037   5.942  17.089  0.00  0.00    +0.000 A 
ATOM     30  O   UNL     1       5.381   6.225  16.099  0.00  0.00    +0.000 OA
ATOM     31  H   UNL     1       6.221   3.982  19.783  0.00  0.00    +0.000 HD
ENDBRANCH  22  23
ENDBRANCH   5  22
TORSDOF 5
ENDMDL
MODEL 6
REMARK VINA RESULT:      -9.0      1.981      2.925
REMARK  Name = 
REMARK  5 active torsions:
REMARK  status: ('A' for Active; 'I' for Inactive)
REMARK    1  A    between atoms: C_2  and  C_3
REMARK    2  A    between atoms: C_3  and  C_4
REMARK    3  A    between atoms: N_13  and  C_14
REMARK    4  A    between atoms: C_18  and  C_19
REMARK    5  A    between atoms: C_19  and  N_20
REMARK                            x       y       z     vdW  Elec       q    Type
REMARK                         _______ _______ _______ _____ _____    ______ ____
ROOT
ATOM      1  C   UNL     1       2.252   5.099  20.124  0.00  0.00    +0.000 A 
ATOM      2  C   UNL     1       1.859   3.812  20.491  0.00  0.00    +0.000 A 
ATOM      3  C   UNL     1       2.409   2.690  19.866  0.00  0.00    +0.000 A 
ATOM      4  C   UNL     1       3.321   2.844  18.825  0.00  0.00    +0.000 A 
ATOM      5  C   UNL     1       3.654   4.125  18.370  0.00  0.00    +0.000 A 
ATOM      6  C   UNL     1       3.127   5.249  19.039  0.00  0.00    +0.000 A 
ENDROOT
BRANCH   1   9
ATOM      7  O   UNL     1       2.315   7.892  19.195  0.00  0.00    +0.000 OA
ATOM      8  C   UNL     1       1.880   7.561  20.299  0.00  0.00    +0.000 C 
ATOM      9  N   UNL     1       1.795   6.265  20.785  0.00  0.00    +0.000 N 
ATOM     10  H   UNL     1       1.220   6.128  21.608  0.00  0.00    +0.000 HD
BRANCH   8  11
ATOM     11  C   UNL     1       1.430   8.632  21.285  0.00  0.00    +0.000 C 
BRANCH  11  12
ATOM     12  C   UNL     1       0.522   9.666  20.698  0.00  0.00    +0.000 A 
ATOM     13  C   UNL     1       0.384   9.953  19.352  0.00  0.00    +0.000 A 
ATOM     14  N   UNL     1      -0.569  10.925  19.213  0.00  0.00    +0.000 N 
ATOM     15  C   UNL     1      -1.057  11.292  20.444  0.00  0.00    +0.000 A 
ATOM     16  C   UNL     1      -2.023  12.249  20.780  0.00  0.00    +0.000 A 
ATOM     17  C   UNL     1      -2.333  12.411  22.132  0.00  0.00    +0.000 A 
ATOM     18  C   UNL     1      -1.716  11.629  23.107  0.00  0.00    +0.000 A 
ATOM     19  C   UNL     1      -0.758  10.670  22.752  0.00  0.00    +0.000 A 
ATOM     20  C   UNL     1      -0.407  10.505  21.395  0.00  0.00    +0.000 A 
ATOM     21  H   UNL     1      -0.880  11.317  18.335  0.00  0.00    +0.000 HD
ENDBRANCH  11  12
ENDBRANCH   8  11
ENDBRANCH   1   9
BRANCH   5  22
ATOM     22  C   UNL     1       4.529   4.298  17.151  0.00  0.00    +0.000 C 
BRANCH  22  23
ATOM     23  N   UNL     1       5.753   5.032  17.438  0.00  0.00    +0.000 N 
ATOM     24  N   UNL     1       6.405   4.682  18.633  0.00  0.00    +0.000 N 
ATOM     25  C   UNL     1       7.300   5.512  19.250  0.00  0.00    +0.000 A 
ATOM     26  O   UNL     1       7.721   5.310  20.382  0.00  0.00    +0.000 OA
ATOM     27  C   UNL     1       7.770   6.664  18.460  0.00  0.00    +0.000 A 
ATOM     28  C   UNL     1       7.258   6.923  17.255  0.00  0.00    +0.000 A 
ATOM     29  C   UNL     1       6.146   6.123  16.689  0.00  0.00    +0.000 A 
ATOM     30  O   UNL     1       5.617   6.483  15.649  0.00  0.00    +0.000 OA
ATOM     31  H   UNL     1       6.093   3.867  19.148  0.00  0.00    +0.000 HD
ENDBRANCH  22  23
ENDBRANCH   5  22
TORSDOF 5
ENDMDL
MODEL 7
REMARK VINA RESULT:      -8.9      3.529      5.024
REMARK  Name = 
REMARK  5 active torsions:
REMARK  status: ('A' for Active; 'I' for Inactive)
REMARK    1  A    between atoms: C_2  and  C_3
REMARK    2  A    between atoms: C_3  and  C_4
REMARK    3  A    between atoms: N_13  and  C_14
REMARK    4  A    between atoms: C_18  and  C_19
REMARK    5  A    between atoms: C_19  and  N_20
REMARK                            x       y       z     vdW  Elec       q    Type
REMARK                         _______ _______ _______ _____ _____    ______ ____
ROOT
ATOM      1  C   UNL     1       0.990   9.103  19.896  0.00  0.00    +0.000 A 
ATOM      2  C   UNL     1       1.315   9.747  18.702  0.00  0.00    +0.000 A 
ATOM      3  C   UNL     1       2.134   9.128  17.754  0.00  0.00    +0.000 A 
ATOM      4  C   UNL     1       2.684   7.876  18.014  0.00  0.00    +0.000 A 
ATOM      5  C   UNL     1       2.457   7.253  19.246  0.00  0.00    +0.000 A 
ATOM      6  C   UNL     1       1.593   7.868  20.176  0.00  0.00    +0.000 A 
ENDROOT
BRANCH   1   9
ATOM      7  O   UNL     1       1.489   9.795  22.713  0.00  0.00    +0.000 OA
ATOM      8  C   UNL     1       0.389   9.923  22.174  0.00  0.00    +0.000 C 
ATOM      9  N   UNL     1       0.094   9.645  20.848  0.00  0.00    +0.000 N 
ATOM     10  H   UNL     1      -0.785  10.004  20.495  0.00  0.00    +0.000 HD
BRANCH   8  11
ATOM     11  C   UNL     1      -0.808  10.375  23.002  0.00  0.00    +0.000 C 
BRANCH  11  12
ATOM     12  C   UNL     1      -1.174  11.814  22.819  0.00  0.00    +0.000 A 
ATOM     13  C   UNL     1      -0.426  12.761  22.144  0.00  0.00    +0.000 A 
ATOM     14  N   UNL     1      -1.112  13.945  22.159  0.00  0.00    +0.000 N 
ATOM     15  C   UNL     1      -2.297  13.800  22.840  0.00  0.00    +0.000 A 
ATOM     16  C   UNL     1      -3.297  14.741  23.114  0.00  0.00    +0.000 A 
ATOM     17  C   UNL     1      -4.414  14.308  23.834  0.00  0.00    +0.000 A 
ATOM     18  C   UNL     1      -4.533  12.981  24.242  0.00  0.00    +0.000 A 
ATOM     19  C   UNL     1      -3.525  12.052  23.952  0.00  0.00    +0.000 A 
ATOM     20  C   UNL     1      -2.374  12.468  23.250  0.00  0.00    +0.000 A 
ATOM     21  H   UNL     1      -0.803  14.805  21.727  0.00  0.00    +0.000 HD
ENDBRANCH  11  12
ENDBRANCH   8  11
ENDBRANCH   1   9
BRANCH   5  22
ATOM     22  C   UNL     1       3.165   5.964  19.592  0.00  0.00    +0.000 C 
BRANCH  22  23
ATOM     23  N   UNL     1       2.254   4.834  19.697  0.00  0.00    +0.000 N 
ATOM     24  N   UNL     1       2.023   4.359  20.999  0.00  0.00    +0.000 N 
ATOM     25  C   UNL     1       1.546   3.101  21.248  0.00  0.00    +0.000 A 
ATOM     26  O   UNL     1       1.530   2.608  22.368  0.00  0.00    +0.000 OA
ATOM     27  C   UNL     1       1.012   2.367  20.087  0.00  0.00    +0.000 A 
ATOM     28  C   UNL     1       1.096   2.877  18.856  0.00  0.00    +0.000 A 
ATOM     29  C   UNL     1       1.795   4.157  18.585  0.00  0.00    +0.000 A 
ATOM     30  O   UNL     1       1.969   4.511  17.430  0.00  0.00    +0.000 OA
ATOM     31  H   UNL     1       2.366   4.893  21.790  0.00  0.00    +0.000 HD
ENDBRANCH  22  23
ENDBRANCH   5  22
TORSDOF 5
ENDMDL
MODEL 8
REMARK VINA RESULT:      -8.8      1.415      1.912
REMARK  Name = 
REMARK  5 active torsions:
REMARK  status: ('A' for Active; 'I' for Inactive)
REMARK    1  A    between atoms: C_2  and  C_3
REMARK    2  A    between atoms: C_3  and  C_4
REMARK    3  A    between atoms: N_13  and  C_14
REMARK    4  A    between atoms: C_18  and  C_19
REMARK    5  A    between atoms: C_19  and  N_20
REMARK                            x       y       z     vdW  Elec       q    Type
REMARK                         _______ _______ _______ _____ _____    ______ ____
ROOT
ATOM      1  C   UNL     1       2.135   5.681  20.293  0.00  0.00    +0.000 A 
ATOM      2  C   UNL     1       1.775   4.418  20.763  0.00  0.00    +0.000 A 
ATOM      3  C   UNL     1       2.343   3.263  20.218  0.00  0.00    +0.000 A 
ATOM      4  C   UNL     1       3.239   3.356  19.157  0.00  0.00    +0.000 A 
ATOM      5  C   UNL     1       3.538   4.605  18.600  0.00  0.00    +0.000 A 
ATOM      6  C   UNL     1       2.994   5.766  19.188  0.00  0.00    +0.000 A 
ENDROOT
BRANCH   1   9
ATOM      7  O   UNL     1       1.865   8.338  19.055  0.00  0.00    +0.000 OA
ATOM      8  C   UNL     1       1.584   8.114  20.233  0.00  0.00    +0.000 C 
ATOM      9  N   UNL     1       1.660   6.884  20.869  0.00  0.00    +0.000 N 
ATOM     10  H   UNL     1       1.192   6.809  21.765  0.00  0.00    +0.000 HD
BRANCH   8  11
ATOM     11  C   UNL     1       1.159   9.264  21.139  0.00  0.00    +0.000 C 
BRANCH  11  12
ATOM     12  C   UNL     1       0.815  10.525  20.413  0.00  0.00    +0.000 A 
ATOM     13  C   UNL     1       1.506  11.720  20.494  0.00  0.00    +0.000 A 
ATOM     14  N   UNL     1       0.910  12.622  19.653  0.00  0.00    +0.000 N 
ATOM     15  C   UNL     1      -0.168  12.045  19.026  0.00  0.00    +0.000 A 
ATOM     16  C   UNL     1      -1.070  12.593  18.104  0.00  0.00    +0.000 A 
ATOM     17  C   UNL     1      -2.083  11.763  17.617  0.00  0.00    +0.000 A 
ATOM     18  C   UNL     1      -2.175  10.432  18.022  0.00  0.00    +0.000 A 
ATOM     19  C   UNL     1      -1.259   9.900  18.939  0.00  0.00    +0.000 A 
ATOM     20  C   UNL     1      -0.242  10.724  19.466  0.00  0.00    +0.000 A 
ATOM     21  H   UNL     1       1.217  13.573  19.505  0.00  0.00    +0.000 HD
ENDBRANCH  11  12
ENDBRANCH   8  11
ENDBRANCH   1   9
BRANCH   5  22
ATOM     22  C   UNL     1       4.395   4.702  17.360  0.00  0.00    +0.000 C 
BRANCH  22  23
ATOM     23  N   UNL     1       5.689   5.316  17.619  0.00  0.00    +0.000 N 
ATOM     24  N   UNL     1       6.369   4.845  18.754  0.00  0.00    +0.000 N 
ATOM     25  C   UNL     1       7.361   5.560  19.366  0.00  0.00    +0.000 A 
ATOM     26  O   UNL     1       7.820   5.258  20.460  0.00  0.00    +0.000 OA
ATOM     27  C   UNL     1       7.886   6.715  18.615  0.00  0.00    +0.000 A 
ATOM     28  C   UNL     1       7.337   7.086  17.456  0.00  0.00    +0.000 A 
ATOM     29  C   UNL     1       6.134   6.414  16.909  0.00  0.00    +0.000 A 
ATOM     30  O   UNL     1       5.586   6.877  15.922  0.00  0.00    +0.000 OA
ATOM     31  H   UNL     1       6.016   4.028  19.240  0.00  0.00    +0.000 HD
ENDBRANCH  22  23
ENDBRANCH   5  22
TORSDOF 5
ENDMDL
MODEL 9
REMARK VINA RESULT:      -8.8      2.071      3.130
REMARK  Name = 
REMARK  5 active torsions:
REMARK  status: ('A' for Active; 'I' for Inactive)
REMARK    1  A    between atoms: C_2  and  C_3
REMARK    2  A    between atoms: C_3  and  C_4
REMARK    3  A    between atoms: N_13  and  C_14
REMARK    4  A    between atoms: C_18  and  C_19
REMARK    5  A    between atoms: C_19  and  N_20
REMARK                            x       y       z     vdW  Elec       q    Type
REMARK                         _______ _______ _______ _____ _____    ______ ____
ROOT
ATOM      1  C   UNL     1       2.425   4.732  18.703  0.00  0.00    +0.000 A 
ATOM      2  C   UNL     1       1.693   3.544  18.693  0.00  0.00    +0.000 A 
ATOM      3  C   UNL     1       2.200   2.396  18.079  0.00  0.00    +0.000 A 
ATOM      4  C   UNL     1       3.424   2.437  17.418  0.00  0.00    +0.000 A 
ATOM      5  C   UNL     1       4.130   3.642  17.326  0.00  0.00    +0.000 A 
ATOM      6  C   UNL     1       3.630   4.782  17.988  0.00  0.00    +0.000 A 
ENDROOT
BRANCH   1   9
ATOM      7  O   UNL     1       3.005   7.551  18.083  0.00  0.00    +0.000 OA
ATOM      8  C   UNL     1       2.334   7.200  19.055  0.00  0.00    +0.000 C 
ATOM      9  N   UNL     1       2.000   5.896  19.387  0.00  0.00    +0.000 N 
ATOM     10  H   UNL     1       1.268   5.779  20.078  0.00  0.00    +0.000 HD
BRANCH   8  11
ATOM     11  C   UNL     1       1.843   8.246  20.049  0.00  0.00    +0.000 C 
BRANCH  11  12
ATOM     12  C   UNL     1       1.009   9.329  19.441  0.00  0.00    +0.000 A 
ATOM     13  C   UNL     1       0.763   9.501  18.091  0.00  0.00    +0.000 A 
ATOM     14  N   UNL     1      -0.076  10.572  17.937  0.00  0.00    +0.000 N 
ATOM     15  C   UNL     1      -0.381  11.116  19.162  0.00  0.00    +0.000 A 
ATOM     16  C   UNL     1      -1.182  12.220  19.480  0.00  0.00    +0.000 A 
ATOM     17  C   UNL     1      -1.324  12.551  20.830  0.00  0.00    +0.000 A 
ATOM     18  C   UNL     1      -0.704  11.791  21.822  0.00  0.00    +0.000 A 
ATOM     19  C   UNL     1       0.087  10.686  21.485  0.00  0.00    +0.000 A 
ATOM     20  C   UNL     1       0.268  10.346  20.127  0.00  0.00    +0.000 A 
ATOM     21  H   UNL     1      -0.429  10.914  17.055  0.00  0.00    +0.000 HD
ENDBRANCH  11  12
ENDBRANCH   8  11
ENDBRANCH   1   9
BRANCH   5  22
ATOM     22  C   UNL     1       5.385   3.729  16.490  0.00  0.00    +0.000 C 
BRANCH  22  23
ATOM     23  N   UNL     1       6.333   4.709  17.000  0.00  0.00    +0.000 N 
ATOM     24  N   UNL     1       6.849   4.445  18.280  0.00  0.00    +0.000 N 
ATOM     25  C   UNL     1       7.407   5.420  19.061  0.00  0.00    +0.000 A 
ATOM     26  O   UNL     1       7.676   5.250  20.243  0.00  0.00    +0.000 OA
ATOM     27  C   UNL     1       7.705   6.698  18.391  0.00  0.00    +0.000 A 
ATOM     28  C   UNL     1       7.346   6.908  17.122  0.00  0.00    +0.000 A 
ATOM     29  C   UNL     1       6.566   5.907  16.355  0.00  0.00    +0.000 A 
ATOM     30  O   UNL     1       6.140   6.199  15.249  0.00  0.00    +0.000 OA
ATOM     31  H   UNL     1       6.665   3.548  18.714  0.00  0.00    +0.000 HD
ENDBRANCH  22  23
ENDBRANCH   5  22
TORSDOF 5
ENDMDL
