MODEL 1
REMARK VINA RESULT:      -9.4      0.000      0.000
REMARK  Name = 
REMARK  5 active torsions:
REMARK  status: ('A' for Active; 'I' for Inactive)
REMARK    1  A    between atoms: C_2  and  C_3
REMARK    2  A    between atoms: C_3  and  C_4
REMARK    3  A    between atoms: C_8  and  C_9
REMARK    4  A    between atoms: N_14  and  C_15
REMARK    5  A    between atoms: C_18  and  N_19
REMARK                            x       y       z     vdW  Elec       q    Type
REMARK                         _______ _______ _______ _____ _____    ______ ____
ROOT
ATOM      1  C   UNL     1       2.758   7.014  18.633  0.00  0.00    +0.000 A 
ATOM      2  C   UNL     1       2.266   7.046  19.939  0.00  0.00    +0.000 A 
ATOM      3  C   UNL     1       1.533   8.151  20.400  0.00  0.00    +0.000 A 
ATOM      4  C   UNL     1       1.273   9.239  19.554  0.00  0.00    +0.000 A 
ATOM      5  C   UNL     1       1.797   9.218  18.258  0.00  0.00    +0.000 A 
ATOM      6  C   UNL     1       2.542   8.120  17.809  0.00  0.00    +0.000 A 
ENDROOT
BRANCH   4   7
ATOM      7  N   UNL     1       0.482  10.330  20.029  0.00  0.00    +0.000 N 
ATOM      8  N   UNL     1       0.843  10.996  21.176  0.00  0.00    +0.000 NA
ATOM      9  C   UNL     1      -0.081  11.947  21.333  0.00  0.00    +0.000 A 
ATOM     10  C   UNL     1      -1.042  11.913  20.328  0.00  0.00    +0.000 A 
ATOM     11  C   UNL     1      -2.222  12.677  20.038  0.00  0.00    +0.000 A 
ATOM     12  O   UNL     1      -2.613  13.630  20.701  0.00  0.00    +0.000 OA
ATOM     13  N   UNL     1      -2.884  12.224  18.915  0.00  0.00    +0.000 N 
ATOM     14  C   UNL     1      -2.443  11.161  18.156  0.00  0.00    +0.000 A 
ATOM     15  N   UNL     1      -1.375  10.467  18.392  0.00  0.00    +0.000 NA
ATOM     16  C   UNL     1      -0.689  10.873  19.498  0.00  0.00    +0.000 A 
ATOM     17  H   UNL     1      -3.724  12.722  18.664  0.00  0.00    +0.000 HD
ENDBRANCH   4   7
BRANCH   1  20
ATOM     18  O   UNL     1       1.779   4.440  17.565  0.00  0.00    +0.000 OA
ATOM     19  C   UNL     1       2.971   4.722  17.665  0.00  0.00    +0.000 C 
ATOM     20  N   UNL     1       3.486   5.934  18.092  0.00  0.00    +0.000 N 
ATOM     21  H   UNL     1       4.464   6.107  17.898  0.00  0.00    +0.000 HD
BRANCH  19  22
ATOM     22  C   UNL     1       4.045   3.707  17.307  0.00  0.00    +0.000 C 
BRANCH  22  23
ATOM     23  C   UNL     1       5.056   4.132  16.264  0.00  0.00    +0.000 A 
ATOM     24  C   UNL     1       6.212   4.807  16.686  0.00  0.00    +0.000 A 
ATOM     25  C   UNL     1       7.233   5.118  15.787  0.00  0.00    +0.000 A 
ATOM     26  C   UNL     1       7.122   4.743  14.451  0.00  0.00    +0.000 A 
ATOM     27  C   UNL     1       5.987   4.053  14.001  0.00  0.00    +0.000 A 
ATOM     28  C   UNL     1       4.956   3.760  14.914  0.00  0.00    +0.000 A 
BRANCH  27  29
ATOM     29  C   UNL     1       5.882   3.595  12.565  0.00  0.00    +0.000 C 
ATOM     30  F   UNL     1       4.664   3.847  12.004  0.00  0.00    +0.000 F 
ATOM     31  F   UNL     1       6.792   4.201  11.754  0.00  0.00    +0.000 F 
ATOM     32  F   UNL     1       6.083   2.256  12.425  0.00  0.00    +0.000 F 
ENDBRANCH  27  29
ENDBRANCH  22  23
ENDBRANCH  19  22
ENDBRANCH   1  20
TORSDOF 5
ENDMDL
MODEL 2
REMARK VINA RESULT:      -9.1      2.677      3.271
REMARK  Name = 
REMARK  5 active torsions:
REMARK  status: ('A' for Active; 'I' for Inactive)
REMARK    1  A    between atoms: C_2  and  C_3
REMARK    2  A    between atoms: C_3  and  C_4
REMARK    3  A    between atoms: C_8  and  C_9
REMARK    4  A    between atoms: N_14  and  C_15
REMARK    5  A    between atoms: C_18  and  N_19
REMARK                            x       y       z     vdW  Elec       q    Type
REMARK                         _______ _______ _______ _____ _____    ______ ____
ROOT
ATOM      1  C   UNL     1       2.389   7.071  18.582  0.00  0.00    +0.000 A 
ATOM      2  C   UNL     1       2.090   8.142  17.738  0.00  0.00    +0.000 A 
ATOM      3  C   UNL     1       1.451   9.289  18.237  0.00  0.00    +0.000 A 
ATOM      4  C   UNL     1       1.110   9.383  19.594  0.00  0.00    +0.000 A 
ATOM      5  C   UNL     1       1.380   8.294  20.428  0.00  0.00    +0.000 A 
ATOM      6  C   UNL     1       2.002   7.145  19.921  0.00  0.00    +0.000 A 
ENDROOT
BRANCH   4   7
ATOM      7  N   UNL     1       0.506  10.579  20.089  0.00  0.00    +0.000 N 
ATOM      8  N   UNL     1       1.112  11.293  21.095  0.00  0.00    +0.000 NA
ATOM      9  C   UNL     1       0.310  12.338  21.313  0.00  0.00    +0.000 A 
ATOM     10  C   UNL     1      -0.808  12.322  20.485  0.00  0.00    +0.000 A 
ATOM     11  C   UNL     1      -1.951  13.173  20.322  0.00  0.00    +0.000 A 
ATOM     12  O   UNL     1      -2.142  14.207  20.949  0.00  0.00    +0.000 OA
ATOM     13  N   UNL     1      -2.831  12.702  19.368  0.00  0.00    +0.000 N 
ATOM     14  C   UNL     1      -2.616  11.546  18.649  0.00  0.00    +0.000 A 
ATOM     15  N   UNL     1      -1.585  10.771  18.770  0.00  0.00    +0.000 NA
ATOM     16  C   UNL     1      -0.689  11.192  19.708  0.00  0.00    +0.000 A 
ATOM     17  H   UNL     1      -3.657  13.259  19.213  0.00  0.00    +0.000 HD
ENDBRANCH   4   7
BRANCH   1  20
ATOM     18  O   UNL     1       1.244   4.563  17.521  0.00  0.00    +0.000 OA
ATOM     19  C   UNL     1       2.444   4.724  17.729  0.00  0.00    +0.000 C 
ATOM     20  N   UNL     1       3.044   5.895  18.160  0.00  0.00    +0.000 N 
ATOM     21  H   UNL     1       4.050   5.956  18.060  0.00  0.00    +0.000 HD
BRANCH  19  22
ATOM     22  C   UNL     1       3.431   3.586  17.522  0.00  0.00    +0.000 C 
BRANCH  22  23
ATOM     23  C   UNL     1       4.869   3.979  17.261  0.00  0.00    +0.000 A 
ATOM     24  C   UNL     1       5.347   3.938  15.941  0.00  0.00    +0.000 A 
ATOM     25  C   UNL     1       6.624   4.401  15.623  0.00  0.00    +0.000 A 
ATOM     26  C   UNL     1       7.441   4.930  16.619  0.00  0.00    +0.000 A 
ATOM     27  C   UNL     1       6.988   4.999  17.944  0.00  0.00    +0.000 A 
ATOM     28  C   UNL     1       5.702   4.513  18.256  0.00  0.00    +0.000 A 
BRANCH  27  29
ATOM     29  C   UNL     1       7.846   5.620  19.021  0.00  0.00    +0.000 C 
ATOM     30  F   UNL     1       7.187   5.799  20.202  0.00  0.00    +0.000 F 
ATOM     31  F   UNL     1       8.938   4.865  19.321  0.00  0.00    +0.000 F 
ATOM     32  F   UNL     1       8.319   6.848  18.673  0.00  0.00    +0.000 F 
ENDBRANCH  27  29
ENDBRANCH  22  23
ENDBRANCH  19  22
ENDBRANCH   1  20
TORSDOF 5
ENDMDL
MODEL 3
REMARK VINA RESULT:      -9.0      2.698      3.175
REMARK  Name = 
REMARK  5 active torsions:
REMARK  status: ('A' for Active; 'I' for Inactive)
REMARK    1  A    between atoms: C_2  and  C_3
REMARK    2  A    between atoms: C_3  and  C_4
REMARK    3  A    between atoms: C_8  and  C_9
REMARK    4  A    between atoms: N_14  and  C_15
REMARK    5  A    between atoms: C_18  and  N_19
REMARK                            x       y       z     vdW  Elec       q    Type
REMARK                         _______ _______ _______ _____ _____    ______ ____
ROOT
ATOM      1  C   UNL     1       2.333   7.005  19.181  0.00  0.00    +0.000 A 
ATOM      2  C   UNL     1       1.840   7.138  20.480  0.00  0.00    +0.000 A 
ATOM      3  C   UNL     1       1.174   8.309  20.875  0.00  0.00    +0.000 A 
ATOM      4  C   UNL     1       0.982   9.362  19.969  0.00  0.00    +0.000 A 
ATOM      5  C   UNL     1       1.507   9.237  18.679  0.00  0.00    +0.000 A 
ATOM      6  C   UNL     1       2.186   8.074  18.296  0.00  0.00    +0.000 A 
ENDROOT
BRANCH   4   7
ATOM      7  N   UNL     1       0.257  10.524  20.378  0.00  0.00    +0.000 N 
ATOM      8  N   UNL     1       0.660  11.234  21.483  0.00  0.00    +0.000 NA
ATOM      9  C   UNL     1      -0.208  12.244  21.583  0.00  0.00    +0.000 A 
ATOM     10  C   UNL     1      -1.172  12.207  20.582  0.00  0.00    +0.000 A 
ATOM     11  C   UNL     1      -2.307  13.019  20.247  0.00  0.00    +0.000 A 
ATOM     12  O   UNL     1      -2.640  14.030  20.852  0.00  0.00    +0.000 OA
ATOM     13  N   UNL     1      -2.997  12.539  19.152  0.00  0.00    +0.000 N 
ATOM     14  C   UNL     1      -2.621  11.410  18.458  0.00  0.00    +0.000 A 
ATOM     15  N   UNL     1      -1.594  10.670  18.735  0.00  0.00    +0.000 NA
ATOM     16  C   UNL     1      -0.883  11.101  19.815  0.00  0.00    +0.000 A 
ATOM     17  H   UNL     1      -3.809  13.069  18.872  0.00  0.00    +0.000 HD
ENDBRANCH   4   7
BRANCH   1  20
ATOM     18  O   UNL     1       1.269   4.742  17.609  0.00  0.00    +0.000 OA
ATOM     19  C   UNL     1       2.424   4.793  18.024  0.00  0.00    +0.000 C 
ATOM     20  N   UNL     1       2.996   5.854  18.705  0.00  0.00    +0.000 N 
ATOM     21  H   UNL     1       4.006   5.860  18.774  0.00  0.00    +0.000 HD
BRANCH  19  22
ATOM     22  C   UNL     1       3.380   3.629  17.816  0.00  0.00    +0.000 C 
BRANCH  22  23
ATOM     23  C   UNL     1       4.812   3.984  17.477  0.00  0.00    +0.000 A 
ATOM     24  C   UNL     1       5.228   3.892  16.139  0.00  0.00    +0.000 A 
ATOM     25  C   UNL     1       6.498   4.318  15.749  0.00  0.00    +0.000 A 
ATOM     26  C   UNL     1       7.369   4.861  16.690  0.00  0.00    +0.000 A 
ATOM     27  C   UNL     1       6.979   4.982  18.031  0.00  0.00    +0.000 A 
ATOM     28  C   UNL     1       5.700   4.533  18.416  0.00  0.00    +0.000 A 
BRANCH  27  29
ATOM     29  C   UNL     1       7.897   5.619  19.048  0.00  0.00    +0.000 C 
ATOM     30  F   UNL     1       8.349   6.851  18.673  0.00  0.00    +0.000 F 
ATOM     31  F   UNL     1       7.295   5.800  20.255  0.00  0.00    +0.000 F 
ATOM     32  F   UNL     1       9.011   4.875  19.288  0.00  0.00    +0.000 F 
ENDBRANCH  27  29
ENDBRANCH  22  23
ENDBRANCH  19  22
ENDBRANCH   1  20
TORSDOF 5
ENDMDL
MODEL 4
REMARK VINA RESULT:      -9.0      1.034      1.651
REMARK  Name = 
REMARK  5 active torsions:
REMARK  status: ('A' for Active; 'I' for Inactive)
REMARK    1  A    between atoms: C_2  and  C_3
REMARK    2  A    between atoms: C_3  and  C_4
REMARK    3  A    between atoms: C_8  and  C_9
REMARK    4  A    between atoms: N_14  and  C_15
REMARK    5  A    between atoms: C_18  and  N_19
REMARK                            x       y       z     vdW  Elec       q    Type
REMARK                         _______ _______ _______ _____ _____    ______ ____
ROOT
ATOM      1  C   UNL     1       2.364   7.248  19.345  0.00  0.00    +0.000 A 
ATOM      2  C   UNL     1       2.123   8.305  18.466  0.00  0.00    +0.000 A 
ATOM      3  C   UNL     1       1.358   9.410  18.870  0.00  0.00    +0.000 A 
ATOM      4  C   UNL     1       0.831   9.478  20.168  0.00  0.00    +0.000 A 
ATOM      5  C   UNL     1       1.047   8.401  21.034  0.00  0.00    +0.000 A 
ATOM      6  C   UNL     1       1.796   7.293  20.619  0.00  0.00    +0.000 A 
ENDROOT
BRANCH   4   7
ATOM      7  N   UNL     1       0.098  10.636  20.574  0.00  0.00    +0.000 N 
ATOM      8  N   UNL     1       0.493  11.350  21.679  0.00  0.00    +0.000 NA
ATOM      9  C   UNL     1      -0.380  12.355  21.775  0.00  0.00    +0.000 A 
ATOM     10  C   UNL     1      -1.342  12.311  20.771  0.00  0.00    +0.000 A 
ATOM     11  C   UNL     1      -2.480  13.116  20.431  0.00  0.00    +0.000 A 
ATOM     12  O   UNL     1      -2.821  14.126  21.034  0.00  0.00    +0.000 OA
ATOM     13  N   UNL     1      -3.165  12.630  19.336  0.00  0.00    +0.000 N 
ATOM     14  C   UNL     1      -2.780  11.502  18.645  0.00  0.00    +0.000 A 
ATOM     15  N   UNL     1      -1.750  10.769  18.925  0.00  0.00    +0.000 NA
ATOM     16  C   UNL     1      -1.044  11.205  20.007  0.00  0.00    +0.000 A 
ATOM     17  H   UNL     1      -3.978  13.156  19.053  0.00  0.00    +0.000 HD
ENDBRANCH   4   7
BRANCH   1  20
ATOM     18  O   UNL     1       1.493   4.479  18.798  0.00  0.00    +0.000 OA
ATOM     19  C   UNL     1       2.672   4.822  18.835  0.00  0.00    +0.000 C 
ATOM     20  N   UNL     1       3.137   6.113  19.019  0.00  0.00    +0.000 N 
ATOM     21  H   UNL     1       4.108   6.285  18.790  0.00  0.00    +0.000 HD
BRANCH  19  22
ATOM     22  C   UNL     1       3.787   3.801  18.675  0.00  0.00    +0.000 C 
BRANCH  22  23
ATOM     23  C   UNL     1       4.962   4.214  17.816  0.00  0.00    +0.000 A 
ATOM     24  C   UNL     1       6.164   4.570  18.448  0.00  0.00    +0.000 A 
ATOM     25  C   UNL     1       7.314   4.845  17.707  0.00  0.00    +0.000 A 
ATOM     26  C   UNL     1       7.286   4.749  16.318  0.00  0.00    +0.000 A 
ATOM     27  C   UNL     1       6.107   4.380  15.657  0.00  0.00    +0.000 A 
ATOM     28  C   UNL     1       4.947   4.122  16.415  0.00  0.00    +0.000 A 
BRANCH  27  29
ATOM     29  C   UNL     1       6.081   4.223  14.154  0.00  0.00    +0.000 C 
ATOM     30  F   UNL     1       6.986   5.016  13.511  0.00  0.00    +0.000 F 
ATOM     31  F   UNL     1       6.359   2.951  13.757  0.00  0.00    +0.000 F 
ATOM     32  F   UNL     1       4.870   4.532  13.614  0.00  0.00    +0.000 F 
ENDBRANCH  27  29
ENDBRANCH  22  23
ENDBRANCH  19  22
ENDBRANCH   1  20
TORSDOF 5
ENDMDL
MODEL 5
REMARK VINA RESULT:      -8.9      1.260      2.050
REMARK  Name = 
REMARK  5 active torsions:
REMARK  status: ('A' for Active; 'I' for Inactive)
REMARK    1  A    between atoms: C_2  and  C_3
REMARK    2  A    between atoms: C_3  and  C_4
REMARK    3  A    between atoms: C_8  and  C_9
REMARK    4  A    between atoms: N_14  and  C_15
REMARK    5  A    between atoms: C_18  and  N_19
REMARK                            x       y       z     vdW  Elec       q    Type
REMARK                         _______ _______ _______ _____ _____    ______ ____
ROOT
ATOM      1  C   UNL     1       2.876   7.091  18.227  0.00  0.00    +0.000 A 
ATOM      2  C   UNL     1       2.556   8.201  17.445  0.00  0.00    +0.000 A 
ATOM      3  C   UNL     1       1.843   9.280  17.990  0.00  0.00    +0.000 A 
ATOM      4  C   UNL     1       1.446   9.266  19.336  0.00  0.00    +0.000 A 
ATOM      5  C   UNL     1       1.738   8.136  20.106  0.00  0.00    +0.000 A 
ATOM      6  C   UNL     1       2.435   7.056  19.552  0.00  0.00    +0.000 A 
ENDROOT
BRANCH   4   7
ATOM      7  N   UNL     1       0.764  10.396  19.883  0.00  0.00    +0.000 N 
ATOM      8  N   UNL     1       0.732  11.583  19.192  0.00  0.00    +0.000 NA
ATOM      9  C   UNL     1       0.022  12.414  19.960  0.00  0.00    +0.000 A 
ATOM     10  C   UNL     1      -0.400  11.807  21.138  0.00  0.00    +0.000 A 
ATOM     11  C   UNL     1      -1.155  12.239  22.278  0.00  0.00    +0.000 A 
ATOM     12  O   UNL     1      -1.642  13.356  22.406  0.00  0.00    +0.000 OA
ATOM     13  N   UNL     1      -1.283  11.253  23.235  0.00  0.00    +0.000 N 
ATOM     14  C   UNL     1      -0.751   9.990  23.092  0.00  0.00    +0.000 A 
ATOM     15  N   UNL     1      -0.077   9.574  22.066  0.00  0.00    +0.000 NA
ATOM     16  C   UNL     1       0.082  10.518  21.095  0.00  0.00    +0.000 A 
ATOM     17  H   UNL     1      -1.803  11.502  24.062  0.00  0.00    +0.000 HD
ENDBRANCH   4   7
BRANCH   1  20
ATOM     18  O   UNL     1       1.953   4.339  17.680  0.00  0.00    +0.000 OA
ATOM     19  C   UNL     1       3.126   4.692  17.579  0.00  0.00    +0.000 C 
ATOM     20  N   UNL     1       3.605   5.979  17.756  0.00  0.00    +0.000 N 
ATOM     21  H   UNL     1       4.537   6.169  17.412  0.00  0.00    +0.000 HD
BRANCH  19  22
ATOM     22  C   UNL     1       4.215   3.689  17.233  0.00  0.00    +0.000 C 
BRANCH  22  23
ATOM     23  C   UNL     1       5.194   4.101  16.155  0.00  0.00    +0.000 A 
ATOM     24  C   UNL     1       6.375   4.758  16.536  0.00  0.00    +0.000 A 
ATOM     25  C   UNL     1       7.367   5.055  15.601  0.00  0.00    +0.000 A 
ATOM     26  C   UNL     1       7.202   4.684  14.269  0.00  0.00    +0.000 A 
ATOM     27  C   UNL     1       6.042   4.013  13.859  0.00  0.00    +0.000 A 
ATOM     28  C   UNL     1       5.040   3.733  14.809  0.00  0.00    +0.000 A 
BRANCH  27  29
ATOM     29  C   UNL     1       5.878   3.559  12.427  0.00  0.00    +0.000 C 
ATOM     30  F   UNL     1       5.986   2.208  12.272  0.00  0.00    +0.000 F 
ATOM     31  F   UNL     1       4.665   3.892  11.908  0.00  0.00    +0.000 F 
ATOM     32  F   UNL     1       6.808   4.102  11.595  0.00  0.00    +0.000 F 
ENDBRANCH  27  29
ENDBRANCH  22  23
ENDBRANCH  19  22
ENDBRANCH   1  20
TORSDOF 5
ENDMDL
MODEL 6
REMARK VINA RESULT:      -8.8      6.162     11.169
REMARK  Name = 
REMARK  5 active torsions:
REMARK  status: ('A' for Active; 'I' for Inactive)
REMARK    1  A    between atoms: C_2  and  C_3
REMARK    2  A    between atoms: C_3  and  C_4
REMARK    3  A    between atoms: C_8  and  C_9
REMARK    4  A    between atoms: N_14  and  C_15
REMARK    5  A    between atoms: C_18  and  N_19
REMARK                            x       y       z     vdW  Elec       q    Type
REMARK                         _______ _______ _______ _____ _____    ______ ____
ROOT
ATOM      1  C   UNL     1       1.157   9.212  19.526  0.00  0.00    +0.000 A 
ATOM      2  C   UNL     1       1.778   8.844  18.331  0.00  0.00    +0.000 A 
ATOM      3  C   UNL     1       2.430   7.606  18.216  0.00  0.00    +0.000 A 
ATOM      4  C   UNL     1       2.462   6.712  19.297  0.00  0.00    +0.000 A 
ATOM      5  C   UNL     1       1.869   7.100  20.502  0.00  0.00    +0.000 A 
ATOM      6  C   UNL     1       1.235   8.343  20.617  0.00  0.00    +0.000 A 
ENDROOT
BRANCH   4   7
ATOM      7  N   UNL     1       3.088   5.437  19.140  0.00  0.00    +0.000 N 
ATOM      8  N   UNL     1       4.458   5.338  19.131  0.00  0.00    +0.000 NA
ATOM      9  C   UNL     1       4.713   4.036  18.980  0.00  0.00    +0.000 A 
ATOM     10  C   UNL     1       3.547   3.283  18.879  0.00  0.00    +0.000 A 
ATOM     11  C   UNL     1       3.263   1.889  18.699  0.00  0.00    +0.000 A 
ATOM     12  O   UNL     1       4.113   1.010  18.623  0.00  0.00    +0.000 OA
ATOM     13  N   UNL     1       1.910   1.630  18.620  0.00  0.00    +0.000 N 
ATOM     14  C   UNL     1       0.946   2.610  18.719  0.00  0.00    +0.000 A 
ATOM     15  N   UNL     1       1.180   3.872  18.894  0.00  0.00    +0.000 NA
ATOM     16  C   UNL     1       2.506   4.179  18.971  0.00  0.00    +0.000 A 
ATOM     17  H   UNL     1       1.650   0.663  18.490  0.00  0.00    +0.000 HD
ENDBRANCH   4   7
BRANCH   1  20
ATOM     18  O   UNL     1      -1.569   9.972  18.683  0.00  0.00    +0.000 OA
ATOM     19  C   UNL     1      -0.792  10.746  19.236  0.00  0.00    +0.000 C 
ATOM     20  N   UNL     1       0.468  10.428  19.713  0.00  0.00    +0.000 N 
ATOM     21  H   UNL     1       0.894  11.090  20.351  0.00  0.00    +0.000 HD
BRANCH  19  22
ATOM     22  C   UNL     1      -1.168  12.203  19.457  0.00  0.00    +0.000 C 
BRANCH  22  23
ATOM     23  C   UNL     1      -2.502  12.463  20.121  0.00  0.00    +0.000 A 
ATOM     24  C   UNL     1      -3.662  12.437  19.330  0.00  0.00    +0.000 A 
ATOM     25  C   UNL     1      -4.929  12.551  19.905  0.00  0.00    +0.000 A 
ATOM     26  C   UNL     1      -5.058  12.676  21.286  0.00  0.00    +0.000 A 
ATOM     27  C   UNL     1      -3.920  12.689  22.105  0.00  0.00    +0.000 A 
ATOM     28  C   UNL     1      -2.646  12.590  21.512  0.00  0.00    +0.000 A 
BRANCH  27  29
ATOM     29  C   UNL     1      -4.053  12.770  23.608  0.00  0.00    +0.000 C 
ATOM     30  F   UNL     1      -5.346  12.727  24.041  0.00  0.00    +0.000 F 
ATOM     31  F   UNL     1      -3.418  11.749  24.245  0.00  0.00    +0.000 F 
ATOM     32  F   UNL     1      -3.531  13.919  24.120  0.00  0.00    +0.000 F 
ENDBRANCH  27  29
ENDBRANCH  22  23
ENDBRANCH  19  22
ENDBRANCH   1  20
TORSDOF 5
ENDMDL
MODEL 7
REMARK VINA RESULT:      -8.8      2.897      3.637
REMARK  Name = 
REMARK  5 active torsions:
REMARK  status: ('A' for Active; 'I' for Inactive)
REMARK    1  A    between atoms: C_2  and  C_3
REMARK    2  A    between atoms: C_3  and  C_4
REMARK    3  A    between atoms: C_8  and  C_9
REMARK    4  A    between atoms: N_14  and  C_15
REMARK    5  A    between atoms: C_18  and  N_19
REMARK                            x       y       z     vdW  Elec       q    Type
REMARK                         _______ _______ _______ _____ _____    ______ ____
ROOT
ATOM      1  C   UNL     1       2.432   7.047  18.498  0.00  0.00    +0.000 A 
ATOM      2  C   UNL     1       2.093   8.098  17.645  0.00  0.00    +0.000 A 
ATOM      3  C   UNL     1       1.485   9.260  18.148  0.00  0.00    +0.000 A 
ATOM      4  C   UNL     1       1.215   9.388  19.518  0.00  0.00    +0.000 A 
ATOM      5  C   UNL     1       1.524   8.319  20.363  0.00  0.00    +0.000 A 
ATOM      6  C   UNL     1       2.115   7.156  19.854  0.00  0.00    +0.000 A 
ENDROOT
BRANCH   4   7
ATOM      7  N   UNL     1       0.641  10.599  20.014  0.00  0.00    +0.000 N 
ATOM      8  N   UNL     1       0.767  11.766  19.300  0.00  0.00    +0.000 NA
ATOM      9  C   UNL     1       0.124  12.688  20.020  0.00  0.00    +0.000 A 
ATOM     10  C   UNL     1      -0.409  12.158  21.191  0.00  0.00    +0.000 A 
ATOM     11  C   UNL     1      -1.157  12.699  22.290  0.00  0.00    +0.000 A 
ATOM     12  O   UNL     1      -1.522  13.865  22.376  0.00  0.00    +0.000 OA
ATOM     13  N   UNL     1      -1.431  11.755  23.259  0.00  0.00    +0.000 N 
ATOM     14  C   UNL     1      -1.036  10.438  23.164  0.00  0.00    +0.000 A 
ATOM     15  N   UNL     1      -0.372   9.927  22.176  0.00  0.00    +0.000 NA
ATOM     16  C   UNL     1      -0.071  10.824  21.194  0.00  0.00    +0.000 A 
ATOM     17  H   UNL     1      -1.953  12.079  24.059  0.00  0.00    +0.000 HD
ENDBRANCH   4   7
BRANCH   1  20
ATOM     18  O   UNL     1       1.227   4.532  17.525  0.00  0.00    +0.000 OA
ATOM     19  C   UNL     1       2.435   4.685  17.685  0.00  0.00    +0.000 C 
ATOM     20  N   UNL     1       3.060   5.858  18.072  0.00  0.00    +0.000 N 
ATOM     21  H   UNL     1       4.062   5.908  17.932  0.00  0.00    +0.000 HD
BRANCH  19  22
ATOM     22  C   UNL     1       3.403   3.535  17.460  0.00  0.00    +0.000 C 
BRANCH  22  23
ATOM     23  C   UNL     1       4.848   3.909  17.209  0.00  0.00    +0.000 A 
ATOM     24  C   UNL     1       5.347   3.822  15.900  0.00  0.00    +0.000 A 
ATOM     25  C   UNL     1       6.633   4.265  15.588  0.00  0.00    +0.000 A 
ATOM     26  C   UNL     1       7.437   4.820  16.579  0.00  0.00    +0.000 A 
ATOM     27  C   UNL     1       6.964   4.935  17.894  0.00  0.00    +0.000 A 
ATOM     28  C   UNL     1       5.670   4.469  18.200  0.00  0.00    +0.000 A 
BRANCH  27  29
ATOM     29  C   UNL     1       7.810   5.583  18.965  0.00  0.00    +0.000 C 
ATOM     30  F   UNL     1       8.273   6.818  18.616  0.00  0.00    +0.000 F 
ATOM     31  F   UNL     1       7.132   5.761  20.131  0.00  0.00    +0.000 F 
ATOM     32  F   UNL     1       8.914   4.851  19.277  0.00  0.00    +0.000 F 
ENDBRANCH  27  29
ENDBRANCH  22  23
ENDBRANCH  19  22
ENDBRANCH   1  20
TORSDOF 5
ENDMDL
MODEL 8
REMARK VINA RESULT:      -8.7      6.247     11.165
REMARK  Name = 
REMARK  5 active torsions:
REMARK  status: ('A' for Active; 'I' for Inactive)
REMARK    1  A    between atoms: C_2  and  C_3
REMARK    2  A    between atoms: C_3  and  C_4
REMARK    3  A    between atoms: C_8  and  C_9
REMARK    4  A    between atoms: N_14  and  C_15
REMARK    5  A    between atoms: C_18  and  N_19
REMARK                            x       y       z     vdW  Elec       q    Type
REMARK                         _______ _______ _______ _____ _____    ______ ____
ROOT
ATOM      1  C   UNL     1       1.328   7.821  20.418  0.00  0.00    +0.000 A 
ATOM      2  C   UNL     1       1.809   8.385  19.236  0.00  0.00    +0.000 A 
ATOM      3  C   UNL     1       2.644   7.650  18.380  0.00  0.00    +0.000 A 
ATOM      4  C   UNL     1       3.002   6.330  18.692  0.00  0.00    +0.000 A 
ATOM      5  C   UNL     1       2.545   5.781  19.894  0.00  0.00    +0.000 A 
ATOM      6  C   UNL     1       1.727   6.525  20.753  0.00  0.00    +0.000 A 
ENDROOT
BRANCH   4   7
ATOM      7  N   UNL     1       3.812   5.583  17.782  0.00  0.00    +0.000 N 
ATOM      8  N   UNL     1       3.365   4.382  17.287  0.00  0.00    +0.000 NA
ATOM      9  C   UNL     1       4.335   3.957  16.474  0.00  0.00    +0.000 A 
ATOM     10  C   UNL     1       5.408   4.841  16.433  0.00  0.00    +0.000 A 
ATOM     11  C   UNL     1       6.672   4.859  15.753  0.00  0.00    +0.000 A 
ATOM     12  O   UNL     1       7.051   3.997  14.970  0.00  0.00    +0.000 OA
ATOM     13  N   UNL     1       7.430   5.967  16.074  0.00  0.00    +0.000 N 
ATOM     14  C   UNL     1       7.004   6.947  16.943  0.00  0.00    +0.000 A 
ATOM     15  N   UNL     1       5.863   6.958  17.557  0.00  0.00    +0.000 NA
ATOM     16  C   UNL     1       5.079   5.878  17.277  0.00  0.00    +0.000 A 
ATOM     17  H   UNL     1       8.332   6.031  15.627  0.00  0.00    +0.000 HD
ENDBRANCH   4   7
BRANCH   1  20
ATOM     18  O   UNL     1       2.002   9.555  22.712  0.00  0.00    +0.000 OA
ATOM     19  C   UNL     1       0.852   9.240  22.417  0.00  0.00    +0.000 C 
ATOM     20  N   UNL     1       0.472   8.489  21.318  0.00  0.00    +0.000 N 
ATOM     21  H   UNL     1      -0.510   8.509  21.070  0.00  0.00    +0.000 HD
BRANCH  19  22
ATOM     22  C   UNL     1      -0.320   9.671  23.284  0.00  0.00    +0.000 C 
BRANCH  22  23
ATOM     23  C   UNL     1      -1.005  10.965  22.898  0.00  0.00    +0.000 A 
ATOM     24  C   UNL     1      -0.479  11.711  21.832  0.00  0.00    +0.000 A 
ATOM     25  C   UNL     1      -1.134  12.847  21.355  0.00  0.00    +0.000 A 
ATOM     26  C   UNL     1      -2.340  13.246  21.927  0.00  0.00    +0.000 A 
ATOM     27  C   UNL     1      -2.900  12.514  22.982  0.00  0.00    +0.000 A 
ATOM     28  C   UNL     1      -2.220  11.378  23.466  0.00  0.00    +0.000 A 
BRANCH  27  29
ATOM     29  C   UNL     1      -4.234  12.909  23.573  0.00  0.00    +0.000 C 
ATOM     30  F   UNL     1      -5.277  12.752  22.708  0.00  0.00    +0.000 F 
ATOM     31  F   UNL     1      -4.556  12.176  24.674  0.00  0.00    +0.000 F 
ATOM     32  F   UNL     1      -4.270  14.213  23.962  0.00  0.00    +0.000 F 
ENDBRANCH  27  29
ENDBRANCH  22  23
ENDBRANCH  19  22
ENDBRANCH   1  20
TORSDOF 5
ENDMDL
MODEL 9
REMARK VINA RESULT:      -8.7      1.535      2.015
REMARK  Name = 
REMARK  5 active torsions:
REMARK  status: ('A' for Active; 'I' for Inactive)
REMARK    1  A    between atoms: C_2  and  C_3
REMARK    2  A    between atoms: C_3  and  C_4
REMARK    3  A    between atoms: C_8  and  C_9
REMARK    4  A    between atoms: N_14  and  C_15
REMARK    5  A    between atoms: C_18  and  N_19
REMARK                            x       y       z     vdW  Elec       q    Type
REMARK                         _______ _______ _______ _____ _____    ______ ____
ROOT
ATOM      1  C   UNL     1       2.625   6.719  18.533  0.00  0.00    +0.000 A 
ATOM      2  C   UNL     1       2.194   6.819  19.856  0.00  0.00    +0.000 A 
ATOM      3  C   UNL     1       1.629   8.011  20.337  0.00  0.00    +0.000 A 
ATOM      4  C   UNL     1       1.479   9.121  19.492  0.00  0.00    +0.000 A 
ATOM      5  C   UNL     1       1.943   9.027  18.176  0.00  0.00    +0.000 A 
ATOM      6  C   UNL     1       2.521   7.841  17.708  0.00  0.00    +0.000 A 
ENDROOT
BRANCH   4   7
ATOM      7  N   UNL     1       0.855  10.307  19.988  0.00  0.00    +0.000 N 
ATOM      8  N   UNL     1       0.938  11.479  19.276  0.00  0.00    +0.000 NA
ATOM      9  C   UNL     1       0.256  12.374  19.995  0.00  0.00    +0.000 A 
ATOM     10  C   UNL     1      -0.260  11.821  21.163  0.00  0.00    +0.000 A 
ATOM     11  C   UNL     1      -1.033  12.329  22.260  0.00  0.00    +0.000 A 
ATOM     12  O   UNL     1      -1.444  13.480  22.347  0.00  0.00    +0.000 OA
ATOM     13  N   UNL     1      -1.273  11.373  23.226  0.00  0.00    +0.000 N 
ATOM     14  C   UNL     1      -0.826  10.073  23.130  0.00  0.00    +0.000 A 
ATOM     15  N   UNL     1      -0.139   9.591  22.143  0.00  0.00    +0.000 NA
ATOM     16  C   UNL     1       0.130  10.501  21.165  0.00  0.00    +0.000 A 
ATOM     17  H   UNL     1      -1.811  11.675  24.025  0.00  0.00    +0.000 HD
ENDBRANCH   4   7
BRANCH   1  20
ATOM     18  O   UNL     1       4.983   5.167  19.401  0.00  0.00    +0.000 OA
ATOM     19  C   UNL     1       4.335   4.904  18.392  0.00  0.00    +0.000 C 
ATOM     20  N   UNL     1       3.185   5.551  17.973  0.00  0.00    +0.000 N 
ATOM     21  H   UNL     1       2.629   5.083  17.268  0.00  0.00    +0.000 HD
BRANCH  19  22
ATOM     22  C   UNL     1       4.763   3.781  17.460  0.00  0.00    +0.000 C 
BRANCH  22  23
ATOM     23  C   UNL     1       5.561   4.185  16.239  0.00  0.00    +0.000 A 
ATOM     24  C   UNL     1       6.748   4.911  16.422  0.00  0.00    +0.000 A 
ATOM     25  C   UNL     1       7.585   5.208  15.345  0.00  0.00    +0.000 A 
ATOM     26  C   UNL     1       7.256   4.766  14.066  0.00  0.00    +0.000 A 
ATOM     27  C   UNL     1       6.086   4.024  13.852  0.00  0.00    +0.000 A 
ATOM     28  C   UNL     1       5.240   3.746  14.945  0.00  0.00    +0.000 A 
BRANCH  27  29
ATOM     29  C   UNL     1       5.748   3.496  12.477  0.00  0.00    +0.000 C 
ATOM     30  F   UNL     1       5.869   2.141  12.374  0.00  0.00    +0.000 F 
ATOM     31  F   UNL     1       4.470   3.780  12.107  0.00  0.00    +0.000 F 
ATOM     32  F   UNL     1       6.548   4.013  11.505  0.00  0.00    +0.000 F 
ENDBRANCH  27  29
ENDBRANCH  22  23
ENDBRANCH  19  22
ENDBRANCH   1  20
TORSDOF 5
ENDMDL
