MODEL 1
REMARK VINA RESULT:      -8.9      0.000      0.000
REMARK  Name = 
REMARK  3 active torsions:
REMARK  status: ('A' for Active; 'I' for Inactive)
REMARK    1  A    between atoms: C_2  and  C_22
REMARK    2  A    between atoms: N_3  and  C_4
REMARK    3  A    between atoms: C_4  and  C_5
REMARK                            x       y       z     vdW  Elec       q    Type
REMARK                         _______ _______ _______ _____ _____    ______ ____
ROOT
ATOM      1  C   UNL     1       6.861   5.551  17.129  0.00  0.00    +0.000 C 
ATOM      2  C   UNL     1       7.059   7.020  16.698  0.00  0.00    +0.000 C 
ATOM      3  C   UNL     1       7.958   7.709  17.728  0.00  0.00    +0.000 C 
ATOM      4  C   UNL     1       8.091   6.796  18.928  0.00  0.00    +0.000 C 
ATOM      5  C   UNL     1       7.276   5.540  18.617  0.00  0.00    +0.000 C 
ATOM      6  C   UNL     1       5.961   5.639  19.424  0.00  0.00    +0.000 C 
ATOM      7  N   UNL     1       4.920   5.141  18.555  0.00  0.00    +0.000 N 
ATOM      8  C   UNL     1       3.747   4.511  18.955  0.00  0.00    +0.000 A 
ATOM      9  C   UNL     1       3.252   4.676  20.375  0.00  0.00    +0.000 A 
ATOM     10  C   UNL     1       2.119   4.061  20.755  0.00  0.00    +0.000 A 
ATOM     11  C   UNL     1       1.431   3.295  19.803  0.00  0.00    +0.000 A 
ATOM     12  N   UNL     1       0.317   2.600  19.830  0.00  0.00    +0.000 NA
ATOM     13  N   UNL     1       0.192   2.065  18.566  0.00  0.00    +0.000 NA
ATOM     14  N   UNL     1       1.199   2.433  17.784  0.00  0.00    +0.000 NA
ATOM     15  N   UNL     1       1.981   3.211  18.548  0.00  0.00    +0.000 N 
ATOM     16  N   UNL     1       3.108   3.787  18.080  0.00  0.00    +0.000 NA
ATOM     17  C   UNL     1       5.421   4.978  17.201  0.00  0.00    +0.000 C 
ENDROOT
BRANCH   1  18
ATOM     18  C   UNL     1       7.481   4.633  16.044  0.00  0.00    +0.000 C 
BRANCH  18  21
ATOM     19  O   UNL     1       7.585   5.398  13.389  0.00  0.00    +0.000 OA
ATOM     20  C   UNL     1       6.846   4.478  13.716  0.00  0.00    +0.000 C 
ATOM     21  N   UNL     1       6.620   4.110  15.022  0.00  0.00    +0.000 N 
ATOM     22  H   UNL     1       6.239   3.181  15.184  0.00  0.00    +0.000 HD
BRANCH  20  23
ATOM     23  C   UNL     1       6.195   3.636  12.693  0.00  0.00    +0.000 A 
ATOM     24  C   UNL     1       4.859   3.909  12.386  0.00  0.00    +0.000 A 
ATOM     25  C   UNL     1       4.184   3.123  11.458  0.00  0.00    +0.000 A 
ATOM     26  C   UNL     1       4.843   2.063  10.837  0.00  0.00    +0.000 A 
ATOM     27  C   UNL     1       6.183   1.796  11.128  0.00  0.00    +0.000 A 
ATOM     28  C   UNL     1       6.864   2.584  12.056  0.00  0.00    +0.000 A 
ENDBRANCH  20  23
ENDBRANCH  18  21
ENDBRANCH   1  18
TORSDOF 3
ENDMDL
MODEL 2
REMARK VINA RESULT:      -8.6      4.184      8.135
REMARK  Name = 
REMARK  3 active torsions:
REMARK  status: ('A' for Active; 'I' for Inactive)
REMARK    1  A    between atoms: C_2  and  C_22
REMARK    2  A    between atoms: N_3  and  C_4
REMARK    3  A    between atoms: C_4  and  C_5
REMARK                            x       y       z     vdW  Elec       q    Type
REMARK                         _______ _______ _______ _____ _____    ______ ____
ROOT
ATOM      1  C   UNL     1       6.426   6.619  17.151  0.00  0.00    +0.000 C 
ATOM      2  C   UNL     1       7.026   5.570  16.189  0.00  0.00    +0.000 C 
ATOM      3  C   UNL     1       7.543   4.393  17.020  0.00  0.00    +0.000 C 
ATOM      4  C   UNL     1       7.539   4.802  18.477  0.00  0.00    +0.000 C 
ATOM      5  C   UNL     1       7.005   6.234  18.531  0.00  0.00    +0.000 C 
ATOM      6  C   UNL     1       8.219   7.166  18.754  0.00  0.00    +0.000 C 
ATOM      7  N   UNL     1       7.989   8.328  17.928  0.00  0.00    +0.000 N 
ATOM      8  C   UNL     1       8.437   9.619  18.184  0.00  0.00    +0.000 A 
ATOM      9  C   UNL     1       9.584   9.839  19.145  0.00  0.00    +0.000 A 
ATOM     10  C   UNL     1      10.009  11.091  19.390  0.00  0.00    +0.000 A 
ATOM     11  C   UNL     1       9.371  12.149  18.725  0.00  0.00    +0.000 A 
ATOM     12  N   UNL     1       9.543  13.450  18.714  0.00  0.00    +0.000 NA
ATOM     13  N   UNL     1       8.578  13.937  17.859  0.00  0.00    +0.000 NA
ATOM     14  N   UNL     1       7.844  12.956  17.350  0.00  0.00    +0.000 NA
ATOM     15  N   UNL     1       8.337  11.826  17.881  0.00  0.00    +0.000 N 
ATOM     16  N   UNL     1       7.842  10.608  17.579  0.00  0.00    +0.000 NA
ATOM     17  C   UNL     1       6.876   8.099  17.023  0.00  0.00    +0.000 C 
ENDROOT
BRANCH   1  18
ATOM     18  C   UNL     1       4.910   6.753  16.848  0.00  0.00    +0.000 C 
BRANCH  18  21
ATOM     19  O   UNL     1       3.944   4.162  16.812  0.00  0.00    +0.000 OA
ATOM     20  C   UNL     1       3.662   4.891  17.755  0.00  0.00    +0.000 C 
ATOM     21  N   UNL     1       3.977   6.229  17.804  0.00  0.00    +0.000 N 
ATOM     22  H   UNL     1       3.968   6.676  18.718  0.00  0.00    +0.000 HD
BRANCH  20  23
ATOM     23  C   UNL     1       3.015   4.342  18.963  0.00  0.00    +0.000 A 
ATOM     24  C   UNL     1       3.667   3.299  19.628  0.00  0.00    +0.000 A 
ATOM     25  C   UNL     1       3.084   2.718  20.748  0.00  0.00    +0.000 A 
ATOM     26  C   UNL     1       1.849   3.176  21.206  0.00  0.00    +0.000 A 
ATOM     27  C   UNL     1       1.201   4.228  20.554  0.00  0.00    +0.000 A 
ATOM     28  C   UNL     1       1.784   4.817  19.431  0.00  0.00    +0.000 A 
ENDBRANCH  20  23
ENDBRANCH  18  21
ENDBRANCH   1  18
TORSDOF 3
ENDMDL
MODEL 3
REMARK VINA RESULT:      -8.2      4.376      8.185
REMARK  Name = 
REMARK  3 active torsions:
REMARK  status: ('A' for Active; 'I' for Inactive)
REMARK    1  A    between atoms: C_2  and  C_22
REMARK    2  A    between atoms: N_3  and  C_4
REMARK    3  A    between atoms: C_4  and  C_5
REMARK                            x       y       z     vdW  Elec       q    Type
REMARK                         _______ _______ _______ _____ _____    ______ ____
ROOT
ATOM      1  C   UNL     1       6.493   6.696  17.383  0.00  0.00    +0.000 C 
ATOM      2  C   UNL     1       6.998   5.672  16.345  0.00  0.00    +0.000 C 
ATOM      3  C   UNL     1       7.686   4.526  17.093  0.00  0.00    +0.000 C 
ATOM      4  C   UNL     1       7.871   4.944  18.536  0.00  0.00    +0.000 C 
ATOM      5  C   UNL     1       7.282   6.349  18.666  0.00  0.00    +0.000 C 
ATOM      6  C   UNL     1       8.468   7.339  18.713  0.00  0.00    +0.000 C 
ATOM      7  N   UNL     1       8.066   8.484  17.929  0.00  0.00    +0.000 N 
ATOM      8  C   UNL     1       8.482   9.796  18.118  0.00  0.00    +0.000 A 
ATOM      9  C   UNL     1       9.744  10.078  18.905  0.00  0.00    +0.000 A 
ATOM     10  C   UNL     1      10.138  11.351  19.086  0.00  0.00    +0.000 A 
ATOM     11  C   UNL     1       9.361  12.372  18.520  0.00  0.00    +0.000 A 
ATOM     12  N   UNL     1       9.466  13.679  18.485  0.00  0.00    +0.000 NA
ATOM     13  N   UNL     1       8.366  14.114  17.777  0.00  0.00    +0.000 NA
ATOM     14  N   UNL     1       7.615  13.096  17.379  0.00  0.00    +0.000 NA
ATOM     15  N   UNL     1       8.233  11.994  17.834  0.00  0.00    +0.000 N 
ATOM     16  N   UNL     1       7.759  10.752  17.605  0.00  0.00    +0.000 NA
ATOM     17  C   UNL     1       6.847   8.195  17.193  0.00  0.00    +0.000 C 
ENDROOT
BRANCH   1  18
ATOM     18  C   UNL     1       4.944   6.755  17.301  0.00  0.00    +0.000 C 
BRANCH  18  21
ATOM     19  O   UNL     1       2.292   7.133  17.985  0.00  0.00    +0.000 OA
ATOM     20  C   UNL     1       2.842   6.080  18.285  0.00  0.00    +0.000 C 
ATOM     21  N   UNL     1       4.186   5.846  18.112  0.00  0.00    +0.000 N 
ATOM     22  H   UNL     1       4.493   4.876  18.113  0.00  0.00    +0.000 HD
BRANCH  20  23
ATOM     23  C   UNL     1       2.054   4.939  18.794  0.00  0.00    +0.000 A 
ATOM     24  C   UNL     1       1.725   4.936  20.153  0.00  0.00    +0.000 A 
ATOM     25  C   UNL     1       1.019   3.868  20.693  0.00  0.00    +0.000 A 
ATOM     26  C   UNL     1       0.641   2.801  19.879  0.00  0.00    +0.000 A 
ATOM     27  C   UNL     1       0.954   2.807  18.517  0.00  0.00    +0.000 A 
ATOM     28  C   UNL     1       1.660   3.878  17.970  0.00  0.00    +0.000 A 
ENDBRANCH  20  23
ENDBRANCH  18  21
ENDBRANCH   1  18
TORSDOF 3
ENDMDL
MODEL 4
REMARK VINA RESULT:      -7.8      8.874     11.038
REMARK  Name = 
REMARK  3 active torsions:
REMARK  status: ('A' for Active; 'I' for Inactive)
REMARK    1  A    between atoms: C_2  and  C_22
REMARK    2  A    between atoms: N_3  and  C_4
REMARK    3  A    between atoms: C_4  and  C_5
REMARK                            x       y       z     vdW  Elec       q    Type
REMARK                         _______ _______ _______ _____ _____    ______ ____
ROOT
ATOM      1  C   UNL     1      -1.556  12.210  22.293  0.00  0.00    +0.000 C 
ATOM      2  C   UNL     1      -0.993  13.568  22.763  0.00  0.00    +0.000 C 
ATOM      3  C   UNL     1      -1.993  14.192  23.741  0.00  0.00    +0.000 C 
ATOM      4  C   UNL     1      -3.280  13.399  23.675  0.00  0.00    +0.000 C 
ATOM      5  C   UNL     1      -3.056  12.280  22.657  0.00  0.00    +0.000 C 
ATOM      6  C   UNL     1      -3.787  12.691  21.358  0.00  0.00    +0.000 C 
ATOM      7  N   UNL     1      -2.923  12.297  20.270  0.00  0.00    +0.000 N 
ATOM      8  C   UNL     1      -3.328  11.927  18.992  0.00  0.00    +0.000 A 
ATOM      9  C   UNL     1      -4.701  12.323  18.495  0.00  0.00    +0.000 A 
ATOM     10  C   UNL     1      -5.085  11.959  17.259  0.00  0.00    +0.000 A 
ATOM     11  C   UNL     1      -4.182  11.231  16.472  0.00  0.00    +0.000 A 
ATOM     12  N   UNL     1      -4.224  10.749  15.252  0.00  0.00    +0.000 NA
ATOM     13  N   UNL     1      -3.014  10.116  15.069  0.00  0.00    +0.000 NA
ATOM     14  N   UNL     1      -2.247  10.218  16.147  0.00  0.00    +0.000 NA
ATOM     15  N   UNL     1      -2.967  10.922  17.034  0.00  0.00    +0.000 N 
ATOM     16  N   UNL     1      -2.498  11.240  18.259  0.00  0.00    +0.000 NA
ATOM     17  C   UNL     1      -1.616  11.908  20.772  0.00  0.00    +0.000 C 
ENDROOT
BRANCH   1  18
ATOM     18  C   UNL     1      -0.595  11.089  22.769  0.00  0.00    +0.000 C 
BRANCH  18  21
ATOM     19  O   UNL     1      -0.533   8.458  21.921  0.00  0.00    +0.000 OA
ATOM     20  C   UNL     1       0.217   9.272  21.396  0.00  0.00    +0.000 C 
ATOM     21  N   UNL     1       0.360  10.568  21.834  0.00  0.00    +0.000 N 
ATOM     22  H   UNL     1       0.766  11.237  21.183  0.00  0.00    +0.000 HD
BRANCH  20  23
ATOM     23  C   UNL     1       0.976   8.921  20.179  0.00  0.00    +0.000 A 
ATOM     24  C   UNL     1       1.741   7.751  20.210  0.00  0.00    +0.000 A 
ATOM     25  C   UNL     1       2.507   7.393  19.106  0.00  0.00    +0.000 A 
ATOM     26  C   UNL     1       2.510   8.202  17.970  0.00  0.00    +0.000 A 
ATOM     27  C   UNL     1       1.735   9.363  17.929  0.00  0.00    +0.000 A 
ATOM     28  C   UNL     1       0.963   9.725  19.033  0.00  0.00    +0.000 A 
ENDBRANCH  20  23
ENDBRANCH  18  21
ENDBRANCH   1  18
TORSDOF 3
ENDMDL
MODEL 5
REMARK VINA RESULT:      -7.8      9.439     11.821
REMARK  Name = 
REMARK  3 active torsions:
REMARK  status: ('A' for Active; 'I' for Inactive)
REMARK    1  A    between atoms: C_2  and  C_22
REMARK    2  A    between atoms: N_3  and  C_4
REMARK    3  A    between atoms: C_4  and  C_5
REMARK                            x       y       z     vdW  Elec       q    Type
REMARK                         _______ _______ _______ _____ _____    ______ ____
ROOT
ATOM      1  C   UNL     1      -2.461  12.876  22.485  0.00  0.00    +0.000 C 
ATOM      2  C   UNL     1      -2.284  14.339  22.942  0.00  0.00    +0.000 C 
ATOM      3  C   UNL     1      -3.484  14.722  23.813  0.00  0.00    +0.000 C 
ATOM      4  C   UNL     1      -4.533  13.639  23.678  0.00  0.00    +0.000 C 
ATOM      5  C   UNL     1      -3.960  12.587  22.727  0.00  0.00    +0.000 C 
ATOM      6  C   UNL     1      -4.654  12.782  21.359  0.00  0.00    +0.000 C 
ATOM      7  N   UNL     1      -3.630  12.586  20.359  0.00  0.00    +0.000 N 
ATOM      8  C   UNL     1      -3.823  12.103  19.070  0.00  0.00    +0.000 A 
ATOM      9  C   UNL     1      -5.203  12.143  18.451  0.00  0.00    +0.000 A 
ATOM     10  C   UNL     1      -5.381  11.671  17.205  0.00  0.00    +0.000 A 
ATOM     11  C   UNL     1      -4.265  11.168  16.522  0.00  0.00    +0.000 A 
ATOM     12  N   UNL     1      -4.085  10.666  15.322  0.00  0.00    +0.000 NA
ATOM     13  N   UNL     1      -2.747  10.341  15.261  0.00  0.00    +0.000 NA
ATOM     14  N   UNL     1      -2.123  10.649  16.391  0.00  0.00    +0.000 NA
ATOM     15  N   UNL     1      -3.065  11.176  17.189  0.00  0.00    +0.000 N 
ATOM     16  N   UNL     1      -2.793  11.622  18.432  0.00  0.00    +0.000 NA
ATOM     17  C   UNL     1      -2.316  12.537  20.977  0.00  0.00    +0.000 C 
ENDROOT
BRANCH   1  18
ATOM     18  C   UNL     1      -1.304  12.032  23.081  0.00  0.00    +0.000 C 
BRANCH  18  21
ATOM     19  O   UNL     1      -0.401   9.423  23.239  0.00  0.00    +0.000 OA
ATOM     20  C   UNL     1      -0.067  10.113  22.284  0.00  0.00    +0.000 C 
ATOM     21  N   UNL     1      -0.348  11.455  22.178  0.00  0.00    +0.000 N 
ATOM     22  H   UNL     1      -0.294  11.870  21.251  0.00  0.00    +0.000 HD
BRANCH  20  23
ATOM     23  C   UNL     1       0.612   9.509  21.120  0.00  0.00    +0.000 A 
ATOM     24  C   UNL     1       0.518  10.180  19.897  0.00  0.00    +0.000 A 
ATOM     25  C   UNL     1       1.105   9.636  18.760  0.00  0.00    +0.000 A 
ATOM     26  C   UNL     1       1.785   8.421  18.842  0.00  0.00    +0.000 A 
ATOM     27  C   UNL     1       1.895   7.755  20.065  0.00  0.00    +0.000 A 
ATOM     28  C   UNL     1       1.311   8.299  21.209  0.00  0.00    +0.000 A 
ENDBRANCH  20  23
ENDBRANCH  18  21
ENDBRANCH   1  18
TORSDOF 3
ENDMDL
MODEL 6
REMARK VINA RESULT:      -7.7      9.754     12.233
REMARK  Name = 
REMARK  3 active torsions:
REMARK  status: ('A' for Active; 'I' for Inactive)
REMARK    1  A    between atoms: C_2  and  C_22
REMARK    2  A    between atoms: N_3  and  C_4
REMARK    3  A    between atoms: C_4  and  C_5
REMARK                            x       y       z     vdW  Elec       q    Type
REMARK                         _______ _______ _______ _____ _____    ______ ____
ROOT
ATOM      1  C   UNL     1      -2.736  13.359  22.629  0.00  0.00    +0.000 C 
ATOM      2  C   UNL     1      -2.913  14.831  23.061  0.00  0.00    +0.000 C 
ATOM      3  C   UNL     1      -4.131  14.920  23.984  0.00  0.00    +0.000 C 
ATOM      4  C   UNL     1      -4.879  13.606  23.912  0.00  0.00    +0.000 C 
ATOM      5  C   UNL     1      -4.102  12.710  22.946  0.00  0.00    +0.000 C 
ATOM      6  C   UNL     1      -4.882  12.694  21.611  0.00  0.00    +0.000 C 
ATOM      7  N   UNL     1      -3.886  12.738  20.565  0.00  0.00    +0.000 N 
ATOM      8  C   UNL     1      -4.007  12.193  19.292  0.00  0.00    +0.000 A 
ATOM      9  C   UNL     1      -5.379  11.873  18.739  0.00  0.00    +0.000 A 
ATOM     10  C   UNL     1      -5.487  11.343  17.508  0.00  0.00    +0.000 A 
ATOM     11  C   UNL     1      -4.311  11.120  16.778  0.00  0.00    +0.000 A 
ATOM     12  N   UNL     1      -4.062  10.652  15.577  0.00  0.00    +0.000 NA
ATOM     13  N   UNL     1      -2.690  10.671  15.455  0.00  0.00    +0.000 NA
ATOM     14  N   UNL     1      -2.115  11.151  16.551  0.00  0.00    +0.000 NA
ATOM     15  N   UNL     1      -3.123  11.443  17.387  0.00  0.00    +0.000 N 
ATOM     16  N   UNL     1      -2.918  11.972  18.611  0.00  0.00    +0.000 NA
ATOM     17  C   UNL     1      -2.576  13.034  21.120  0.00  0.00    +0.000 C 
ENDROOT
BRANCH   1  18
ATOM     18  C   UNL     1      -1.379  12.846  23.178  0.00  0.00    +0.000 C 
BRANCH  18  21
ATOM     19  O   UNL     1      -0.652  10.197  23.500  0.00  0.00    +0.000 OA
ATOM     20  C   UNL     1      -0.316  10.789  22.482  0.00  0.00    +0.000 C 
ATOM     21  N   UNL     1      -0.509  12.136  22.285  0.00  0.00    +0.000 N 
ATOM     22  H   UNL     1      -0.469  12.477  21.327  0.00  0.00    +0.000 HD
BRANCH  20  23
ATOM     23  C   UNL     1       0.265  10.052  21.341  0.00  0.00    +0.000 A 
ATOM     24  C   UNL     1       0.959   8.872  21.620  0.00  0.00    +0.000 A 
ATOM     25  C   UNL     1       1.559   8.159  20.589  0.00  0.00    +0.000 A 
ATOM     26  C   UNL     1       1.468   8.624  19.277  0.00  0.00    +0.000 A 
ATOM     27  C   UNL     1       0.762   9.795  18.991  0.00  0.00    +0.000 A 
ATOM     28  C   UNL     1       0.155  10.512  20.023  0.00  0.00    +0.000 A 
ENDBRANCH  20  23
ENDBRANCH  18  21
ENDBRANCH   1  18
TORSDOF 3
ENDMDL
MODEL 7
REMARK VINA RESULT:      -7.6      7.357      9.829
REMARK  Name = 
REMARK  3 active torsions:
REMARK  status: ('A' for Active; 'I' for Inactive)
REMARK    1  A    between atoms: C_2  and  C_22
REMARK    2  A    between atoms: N_3  and  C_4
REMARK    3  A    between atoms: C_4  and  C_5
REMARK                            x       y       z     vdW  Elec       q    Type
REMARK                         _______ _______ _______ _____ _____    ______ ____
ROOT
ATOM      1  C   UNL     1       1.102  10.471  18.919  0.00  0.00    +0.000 C 
ATOM      2  C   UNL     1      -0.378  10.706  18.546  0.00  0.00    +0.000 C 
ATOM      3  C   UNL     1      -1.169  10.942  19.836  0.00  0.00    +0.000 C 
ATOM      4  C   UNL     1      -0.283  10.582  21.009  0.00  0.00    +0.000 C 
ATOM      5  C   UNL     1       1.058  10.134  20.427  0.00  0.00    +0.000 C 
ATOM      6  C   UNL     1       1.104   8.592  20.516  0.00  0.00    +0.000 C 
ATOM      7  N   UNL     1       1.720   8.137  19.292  0.00  0.00    +0.000 N 
ATOM      8  C   UNL     1       2.475   6.981  19.132  0.00  0.00    +0.000 A 
ATOM      9  C   UNL     1       2.359   5.862  20.143  0.00  0.00    +0.000 A 
ATOM     10  C   UNL     1       3.095   4.748  19.983  0.00  0.00    +0.000 A 
ATOM     11  C   UNL     1       3.939   4.668  18.866  0.00  0.00    +0.000 A 
ATOM     12  N   UNL     1       4.754   3.746  18.408  0.00  0.00    +0.000 NA
ATOM     13  N   UNL     1       5.307   4.284  17.266  0.00  0.00    +0.000 NA
ATOM     14  N   UNL     1       4.832   5.500  17.026  0.00  0.00    +0.000 NA
ATOM     15  N   UNL     1       3.967   5.750  18.021  0.00  0.00    +0.000 N 
ATOM     16  N   UNL     1       3.271   6.903  18.103  0.00  0.00    +0.000 NA
ATOM     17  C   UNL     1       1.833   9.230  18.341  0.00  0.00    +0.000 C 
ENDROOT
BRANCH   1  18
ATOM     18  C   UNL     1       1.951  11.615  18.305  0.00  0.00    +0.000 C 
BRANCH  18  21
ATOM     19  O   UNL     1       1.935  13.609  20.222  0.00  0.00    +0.000 OA
ATOM     20  C   UNL     1       1.495  13.851  19.105  0.00  0.00    +0.000 C 
ATOM     21  N   UNL     1       1.334  12.898  18.126  0.00  0.00    +0.000 N 
ATOM     22  H   UNL     1       1.244  13.227  17.167  0.00  0.00    +0.000 HD
BRANCH  20  23
ATOM     23  C   UNL     1       1.175  15.237  18.707  0.00  0.00    +0.000 A 
ATOM     24  C   UNL     1      -0.173  15.606  18.679  0.00  0.00    +0.000 A 
ATOM     25  C   UNL     1      -0.535  16.886  18.275  0.00  0.00    +0.000 A 
ATOM     26  C   UNL     1       0.449  17.799  17.897  0.00  0.00    +0.000 A 
ATOM     27  C   UNL     1       1.799  17.440  17.938  0.00  0.00    +0.000 A 
ATOM     28  C   UNL     1       2.166  16.158  18.347  0.00  0.00    +0.000 A 
ENDBRANCH  20  23
ENDBRANCH  18  21
ENDBRANCH   1  18
TORSDOF 3
ENDMDL
MODEL 8
REMARK VINA RESULT:      -7.5      3.646      5.106
REMARK  Name = 
REMARK  3 active torsions:
REMARK  status: ('A' for Active; 'I' for Inactive)
REMARK    1  A    between atoms: C_2  and  C_22
REMARK    2  A    between atoms: N_3  and  C_4
REMARK    3  A    between atoms: C_4  and  C_5
REMARK                            x       y       z     vdW  Elec       q    Type
REMARK                         _______ _______ _______ _____ _____    ______ ____
ROOT
ATOM      1  C   UNL     1       3.410   4.303  18.623  0.00  0.00    +0.000 C 
ATOM      2  C   UNL     1       4.747   3.779  19.190  0.00  0.00    +0.000 C 
ATOM      3  C   UNL     1       4.440   2.698  20.230  0.00  0.00    +0.000 C 
ATOM      4  C   UNL     1       2.957   2.734  20.529  0.00  0.00    +0.000 C 
ATOM      5  C   UNL     1       2.359   3.837  19.656  0.00  0.00    +0.000 C 
ATOM      6  C   UNL     1       2.100   5.055  20.572  0.00  0.00    +0.000 C 
ATOM      7  N   UNL     1       2.462   6.222  19.802  0.00  0.00    +0.000 N 
ATOM      8  C   UNL     1       1.912   7.492  19.925  0.00  0.00    +0.000 A 
ATOM      9  C   UNL     1       1.174   7.871  21.191  0.00  0.00    +0.000 A 
ATOM     10  C   UNL     1       0.642   9.101  21.301  0.00  0.00    +0.000 A 
ATOM     11  C   UNL     1       0.808   9.992  20.232  0.00  0.00    +0.000 A 
ATOM     12  N   UNL     1       0.447  11.237  20.023  0.00  0.00    +0.000 NA
ATOM     13  N   UNL     1       0.903  11.541  18.759  0.00  0.00    +0.000 NA
ATOM     14  N   UNL     1       1.537  10.510  18.213  0.00  0.00    +0.000 NA
ATOM     15  N   UNL     1       1.489   9.533  19.132  0.00  0.00    +0.000 N 
ATOM     16  N   UNL     1       2.051   8.323  18.931  0.00  0.00    +0.000 NA
ATOM     17  C   UNL     1       3.157   5.833  18.586  0.00  0.00    +0.000 C 
ENDROOT
BRANCH   1  18
ATOM     18  C   UNL     1       3.353   3.966  17.109  0.00  0.00    +0.000 C 
BRANCH  18  21
ATOM     19  O   UNL     1       5.450   2.450  16.137  0.00  0.00    +0.000 OA
ATOM     20  C   UNL     1       5.313   3.601  15.742  0.00  0.00    +0.000 C 
ATOM     21  N   UNL     1       4.389   4.479  16.260  0.00  0.00    +0.000 N 
ATOM     22  H   UNL     1       4.150   5.290  15.694  0.00  0.00    +0.000 HD
BRANCH  20  23
ATOM     23  C   UNL     1       6.103   4.104  14.600  0.00  0.00    +0.000 A 
ATOM     24  C   UNL     1       5.835   3.562  13.340  0.00  0.00    +0.000 A 
ATOM     25  C   UNL     1       6.575   3.970  12.237  0.00  0.00    +0.000 A 
ATOM     26  C   UNL     1       7.585   4.920  12.390  0.00  0.00    +0.000 A 
ATOM     27  C   UNL     1       7.846   5.476  13.645  0.00  0.00    +0.000 A 
ATOM     28  C   UNL     1       7.103   5.072  14.754  0.00  0.00    +0.000 A 
ENDBRANCH  20  23
ENDBRANCH  18  21
ENDBRANCH   1  18
TORSDOF 3
ENDMDL
MODEL 9
REMARK VINA RESULT:      -7.5      9.944     11.854
REMARK  Name = 
REMARK  3 active torsions:
REMARK  status: ('A' for Active; 'I' for Inactive)
REMARK    1  A    between atoms: C_2  and  C_22
REMARK    2  A    between atoms: N_3  and  C_4
REMARK    3  A    between atoms: C_4  and  C_5
REMARK                            x       y       z     vdW  Elec       q    Type
REMARK                         _______ _______ _______ _____ _____    ______ ____
ROOT
ATOM      1  C   UNL     1      -2.685  11.202  17.864  0.00  0.00    +0.000 C 
ATOM      2  C   UNL     1      -2.536   9.708  17.505  0.00  0.00    +0.000 C 
ATOM      3  C   UNL     1      -3.033   9.504  16.071  0.00  0.00    +0.000 C 
ATOM      4  C   UNL     1      -3.745  10.766  15.631  0.00  0.00    +0.000 C 
ATOM      5  C   UNL     1      -3.669  11.745  16.803  0.00  0.00    +0.000 C 
ATOM      6  C   UNL     1      -5.058  11.754  17.481  0.00  0.00    +0.000 C 
ATOM      7  N   UNL     1      -4.810  11.813  18.903  0.00  0.00    +0.000 N 
ATOM      8  C   UNL     1      -5.637  12.392  19.858  0.00  0.00    +0.000 A 
ATOM      9  C   UNL     1      -7.096  12.636  19.539  0.00  0.00    +0.000 A 
ATOM     10  C   UNL     1      -7.890  13.199  20.468  0.00  0.00    +0.000 A 
ATOM     11  C   UNL     1      -7.326  13.526  21.709  0.00  0.00    +0.000 A 
ATOM     12  N   UNL     1      -7.804  14.051  22.813  0.00  0.00    +0.000 NA
ATOM     13  N   UNL     1      -6.730  14.130  23.674  0.00  0.00    +0.000 NA
ATOM     14  N   UNL     1      -5.626  13.654  23.113  0.00  0.00    +0.000 NA
ATOM     15  N   UNL     1      -5.989  13.265  21.880  0.00  0.00    +0.000 N 
ATOM     16  N   UNL     1      -5.119  12.710  21.010  0.00  0.00    +0.000 NA
ATOM     17  C   UNL     1      -3.402  11.589  19.184  0.00  0.00    +0.000 C 
ENDROOT
BRANCH   1  18
ATOM     18  C   UNL     1      -1.272  11.789  18.122  0.00  0.00    +0.000 C 
BRANCH  18  21
ATOM     19  O   UNL     1       0.125  10.876  20.327  0.00  0.00    +0.000 OA
ATOM     20  C   UNL     1       0.394  10.423  19.221  0.00  0.00    +0.000 C 
ATOM     21  N   UNL     1      -0.145  10.904  18.050  0.00  0.00    +0.000 N 
ATOM     22  H   UNL     1      -0.096  10.299  17.233  0.00  0.00    +0.000 HD
BRANCH  20  23
ATOM     23  C   UNL     1       1.279   9.249  19.083  0.00  0.00    +0.000 A 
ATOM     24  C   UNL     1       1.961   9.093  17.873  0.00  0.00    +0.000 A 
ATOM     25  C   UNL     1       2.778   7.985  17.674  0.00  0.00    +0.000 A 
ATOM     26  C   UNL     1       2.914   7.033  18.683  0.00  0.00    +0.000 A 
ATOM     27  C   UNL     1       2.247   7.193  19.900  0.00  0.00    +0.000 A 
ATOM     28  C   UNL     1       1.429   8.304  20.105  0.00  0.00    +0.000 A 
ENDBRANCH  20  23
ENDBRANCH  18  21
ENDBRANCH   1  18
TORSDOF 3
ENDMDL
