MODEL 1
REMARK VINA RESULT:      -9.5      0.000      0.000
REMARK  Name = 
REMARK  3 active torsions:
REMARK  status: ('A' for Active; 'I' for Inactive)
REMARK    1  A    between atoms: C_2  and  C_12
REMARK    2  A    between atoms: C_7  and  C_8
REMARK    3  A    between atoms: C_14  and  C_15
REMARK                            x       y       z     vdW  Elec       q    Type
REMARK                         _______ _______ _______ _____ _____    ______ ____
ROOT
ATOM      1  C   UNL     1       2.949   6.100  18.959  0.00  0.00    +0.000 A 
ATOM      2  C   UNL     1       3.816   6.101  17.865  0.00  0.00    +0.000 A 
ATOM      3  C   UNL     1       4.504   4.942  17.554  0.00  0.00    +0.000 A 
ATOM      4  N   UNL     1       4.383   3.824  18.304  0.00  0.00    +0.000 NA
ATOM      5  C   UNL     1       3.570   3.825  19.374  0.00  0.00    +0.000 A 
ATOM      6  C   UNL     1       3.484   2.651  20.122  0.00  0.00    +0.000 A 
ATOM      7  C   UNL     1       2.677   2.553  21.254  0.00  0.00    +0.000 A 
ATOM      8  C   UNL     1       1.918   3.643  21.650  0.00  0.00    +0.000 A 
ATOM      9  C   UNL     1       1.974   4.821  20.908  0.00  0.00    +0.000 A 
ATOM     10  C   UNL     1       2.807   4.940  19.763  0.00  0.00    +0.000 A 
ENDROOT
BRANCH   1  12
ATOM     11  O   UNL     1       1.950   8.126  18.354  0.00  0.00    +0.000 OA
ATOM     12  C   UNL     1       2.248   7.378  19.274  0.00  0.00    +0.000 C 
ATOM     13  N   UNL     1       2.011   7.599  20.617  0.00  0.00    +0.000 N 
ATOM     14  C   UNL     1       1.343   8.682  21.139  0.00  0.00    +0.000 A 
ATOM     15  N   UNL     1       1.322   8.955  22.427  0.00  0.00    +0.000 NA
ATOM     16  N   UNL     1       0.669  10.149  22.689  0.00  0.00    +0.000 NA
ATOM     17  C   UNL     1       0.197  10.692  21.587  0.00  0.00    +0.000 A 
ATOM     18  S   UNL     1       0.438   9.760  20.179  0.00  0.00    +0.000 S 
ATOM     19  H   UNL     1       2.453   7.026  21.323  0.00  0.00    +0.000 HD
BRANCH  17  20
ATOM     20  C   UNL     1      -0.491  12.051  21.539  0.00  0.00    +0.000 C 
ATOM     21  C   UNL     1      -1.956  12.127  21.919  0.00  0.00    +0.000 C 
ATOM     22  C   UNL     1      -1.556  12.292  20.494  0.00  0.00    +0.000 C 
ENDBRANCH  17  20
ENDBRANCH   1  12
BRANCH   3  23
ATOM     23  C   UNL     1       5.392   4.842  16.379  0.00  0.00    +0.000 A 
ATOM     24  C   UNL     1       4.957   4.219  15.196  0.00  0.00    +0.000 A 
ATOM     25  C   UNL     1       5.776   4.162  14.064  0.00  0.00    +0.000 A 
ATOM     26  C   UNL     1       7.048   4.725  14.093  0.00  0.00    +0.000 A 
ATOM     27  C   UNL     1       7.509   5.332  15.256  0.00  0.00    +0.000 A 
ATOM     28  C   UNL     1       6.689   5.389  16.386  0.00  0.00    +0.000 A 
ENDBRANCH   3  23
TORSDOF 3
ENDMDL
MODEL 2
REMARK VINA RESULT:      -9.2      0.423      1.147
REMARK  Name = 
REMARK  3 active torsions:
REMARK  status: ('A' for Active; 'I' for Inactive)
REMARK    1  A    between atoms: C_2  and  C_12
REMARK    2  A    between atoms: C_7  and  C_8
REMARK    3  A    between atoms: C_14  and  C_15
REMARK                            x       y       z     vdW  Elec       q    Type
REMARK                         _______ _______ _______ _____ _____    ______ ____
ROOT
ATOM      1  C   UNL     1       2.929   6.171  18.881  0.00  0.00    +0.000 A 
ATOM      2  C   UNL     1       3.806   6.182  17.795  0.00  0.00    +0.000 A 
ATOM      3  C   UNL     1       4.524   5.036  17.503  0.00  0.00    +0.000 A 
ATOM      4  N   UNL     1       4.422   3.923  18.263  0.00  0.00    +0.000 NA
ATOM      5  C   UNL     1       3.599   3.915  19.325  0.00  0.00    +0.000 A 
ATOM      6  C   UNL     1       3.533   2.748  20.084  0.00  0.00    +0.000 A 
ATOM      7  C   UNL     1       2.718   2.641  21.210  0.00  0.00    +0.000 A 
ATOM      8  C   UNL     1       1.930   3.717  21.587  0.00  0.00    +0.000 A 
ATOM      9  C   UNL     1       1.965   4.889  20.834  0.00  0.00    +0.000 A 
ATOM     10  C   UNL     1       2.807   5.017  19.696  0.00  0.00    +0.000 A 
ENDROOT
BRANCH   1  12
ATOM     11  O   UNL     1       1.900   8.173  18.247  0.00  0.00    +0.000 OA
ATOM     12  C   UNL     1       2.196   7.435  19.176  0.00  0.00    +0.000 C 
ATOM     13  N   UNL     1       1.927   7.657  20.514  0.00  0.00    +0.000 N 
ATOM     14  C   UNL     1       1.226   8.728  21.017  0.00  0.00    +0.000 A 
ATOM     15  N   UNL     1       1.173   9.004  22.303  0.00  0.00    +0.000 NA
ATOM     16  N   UNL     1       0.490  10.185  22.547  0.00  0.00    +0.000 NA
ATOM     17  C   UNL     1       0.030  10.715  21.433  0.00  0.00    +0.000 A 
ATOM     18  S   UNL     1       0.318   9.783  20.035  0.00  0.00    +0.000 S 
ATOM     19  H   UNL     1       2.366   7.096  21.230  0.00  0.00    +0.000 HD
BRANCH  17  20
ATOM     20  C   UNL     1      -0.686  12.059  21.367  0.00  0.00    +0.000 C 
ATOM     21  C   UNL     1       0.149  13.308  21.174  0.00  0.00    +0.000 C 
ATOM     22  C   UNL     1      -0.488  13.046  22.494  0.00  0.00    +0.000 C 
ENDBRANCH  17  20
ENDBRANCH   1  12
BRANCH   3  23
ATOM     23  C   UNL     1       5.425   4.945  16.337  0.00  0.00    +0.000 A 
ATOM     24  C   UNL     1       6.619   5.685  16.287  0.00  0.00    +0.000 A 
ATOM     25  C   UNL     1       7.499   5.567  15.207  0.00  0.00    +0.000 A 
ATOM     26  C   UNL     1       7.202   4.707  14.154  0.00  0.00    +0.000 A 
ATOM     27  C   UNL     1       6.020   3.977  14.171  0.00  0.00    +0.000 A 
ATOM     28  C   UNL     1       5.141   4.095  15.250  0.00  0.00    +0.000 A 
ENDBRANCH   3  23
TORSDOF 3
ENDMDL
MODEL 3
REMARK VINA RESULT:      -9.1      2.743      8.108
REMARK  Name = 
REMARK  3 active torsions:
REMARK  status: ('A' for Active; 'I' for Inactive)
REMARK    1  A    between atoms: C_2  and  C_12
REMARK    2  A    between atoms: C_7  and  C_8
REMARK    3  A    between atoms: C_14  and  C_15
REMARK                            x       y       z     vdW  Elec       q    Type
REMARK                         _______ _______ _______ _____ _____    ______ ____
ROOT
ATOM      1  C   UNL     1       3.291   5.208  18.503  0.00  0.00    +0.000 A 
ATOM      2  C   UNL     1       2.803   6.515  18.552  0.00  0.00    +0.000 A 
ATOM      3  C   UNL     1       2.097   6.925  19.669  0.00  0.00    +0.000 A 
ATOM      4  N   UNL     1       1.841   6.081  20.694  0.00  0.00    +0.000 NA
ATOM      5  C   UNL     1       2.285   4.814  20.640  0.00  0.00    +0.000 A 
ATOM      6  C   UNL     1       1.989   3.979  21.717  0.00  0.00    +0.000 A 
ATOM      7  C   UNL     1       2.396   2.647  21.753  0.00  0.00    +0.000 A 
ATOM      8  C   UNL     1       3.134   2.128  20.701  0.00  0.00    +0.000 A 
ATOM      9  C   UNL     1       3.458   2.948  19.622  0.00  0.00    +0.000 A 
ATOM     10  C   UNL     1       3.031   4.303  19.564  0.00  0.00    +0.000 A 
ENDROOT
BRANCH   1  12
ATOM     11  O   UNL     1       3.586   3.868  16.609  0.00  0.00    +0.000 OA
ATOM     12  C   UNL     1       4.022   4.800  17.269  0.00  0.00    +0.000 C 
ATOM     13  N   UNL     1       5.160   5.534  16.995  0.00  0.00    +0.000 N 
ATOM     14  C   UNL     1       5.966   5.370  15.892  0.00  0.00    +0.000 A 
ATOM     15  N   UNL     1       7.145   5.945  15.778  0.00  0.00    +0.000 NA
ATOM     16  N   UNL     1       7.802   5.545  14.625  0.00  0.00    +0.000 NA
ATOM     17  C   UNL     1       7.065   4.720  13.911  0.00  0.00    +0.000 A 
ATOM     18  S   UNL     1       5.506   4.440  14.541  0.00  0.00    +0.000 S 
ATOM     19  H   UNL     1       5.553   6.160  17.685  0.00  0.00    +0.000 HD
BRANCH  17  20
ATOM     20  C   UNL     1       7.548   4.040  12.636  0.00  0.00    +0.000 C 
ATOM     21  C   UNL     1       7.020   4.544  11.309  0.00  0.00    +0.000 C 
ATOM     22  C   UNL     1       6.565   3.224  11.828  0.00  0.00    +0.000 C 
ENDBRANCH  17  20
ENDBRANCH   1  12
BRANCH   3  23
ATOM     23  C   UNL     1       1.601   8.307  19.827  0.00  0.00    +0.000 A 
ATOM     24  C   UNL     1       1.527   9.178  18.726  0.00  0.00    +0.000 A 
ATOM     25  C   UNL     1       1.014  10.471  18.859  0.00  0.00    +0.000 A 
ATOM     26  C   UNL     1       0.566  10.921  20.098  0.00  0.00    +0.000 A 
ATOM     27  C   UNL     1       0.644  10.085  21.206  0.00  0.00    +0.000 A 
ATOM     28  C   UNL     1       1.157   8.793  21.071  0.00  0.00    +0.000 A 
ENDBRANCH   3  23
TORSDOF 3
ENDMDL
MODEL 4
REMARK VINA RESULT:      -8.3      1.524      1.619
REMARK  Name = 
REMARK  3 active torsions:
REMARK  status: ('A' for Active; 'I' for Inactive)
REMARK    1  A    between atoms: C_2  and  C_12
REMARK    2  A    between atoms: C_7  and  C_8
REMARK    3  A    between atoms: C_14  and  C_15
REMARK                            x       y       z     vdW  Elec       q    Type
REMARK                         _______ _______ _______ _____ _____    ______ ____
ROOT
ATOM      1  C   UNL     1       2.890   5.761  19.359  0.00  0.00    +0.000 A 
ATOM      2  C   UNL     1       3.737   5.861  18.255  0.00  0.00    +0.000 A 
ATOM      3  C   UNL     1       4.485   4.758  17.882  0.00  0.00    +0.000 A 
ATOM      4  N   UNL     1       4.440   3.603  18.582  0.00  0.00    +0.000 NA
ATOM      5  C   UNL     1       3.646   3.509  19.662  0.00  0.00    +0.000 A 
ATOM      6  C   UNL     1       3.640   2.300  20.357  0.00  0.00    +0.000 A 
ATOM      7  C   UNL     1       2.858   2.105  21.494  0.00  0.00    +0.000 A 
ATOM      8  C   UNL     1       2.045   3.131  21.950  0.00  0.00    +0.000 A 
ATOM      9  C   UNL     1       2.021   4.342  21.262  0.00  0.00    +0.000 A 
ATOM     10  C   UNL     1       2.828   4.560  20.112  0.00  0.00    +0.000 A 
ENDROOT
BRANCH   1  12
ATOM     11  O   UNL     1       1.489   6.973  20.787  0.00  0.00    +0.000 OA
ATOM     12  C   UNL     1       2.123   6.981  19.742  0.00  0.00    +0.000 C 
ATOM     13  N   UNL     1       2.201   8.026  18.841  0.00  0.00    +0.000 N 
ATOM     14  C   UNL     1       1.617   9.261  19.003  0.00  0.00    +0.000 A 
ATOM     15  N   UNL     1       1.544  10.149  18.033  0.00  0.00    +0.000 NA
ATOM     16  N   UNL     1       0.823  11.269  18.415  0.00  0.00    +0.000 NA
ATOM     17  C   UNL     1       0.426  11.183  19.667  0.00  0.00    +0.000 A 
ATOM     18  S   UNL     1       0.965   9.788  20.486  0.00  0.00    +0.000 S 
ATOM     19  H   UNL     1       2.589   7.888  17.918  0.00  0.00    +0.000 HD
BRANCH  17  20
ATOM     20  C   UNL     1      -0.461  12.219  20.347  0.00  0.00    +0.000 C 
ATOM     21  C   UNL     1      -1.956  12.147  20.115  0.00  0.00    +0.000 C 
ATOM     22  C   UNL     1      -1.167  13.247  19.493  0.00  0.00    +0.000 C 
ENDBRANCH  17  20
ENDBRANCH   1  12
BRANCH   3  23
ATOM     23  C   UNL     1       5.358   4.761  16.691  0.00  0.00    +0.000 A 
ATOM     24  C   UNL     1       4.890   4.293  15.451  0.00  0.00    +0.000 A 
ATOM     25  C   UNL     1       5.696   4.337  14.310  0.00  0.00    +0.000 A 
ATOM     26  C   UNL     1       6.987   4.849  14.386  0.00  0.00    +0.000 A 
ATOM     27  C   UNL     1       7.480   5.304  15.603  0.00  0.00    +0.000 A 
ATOM     28  C   UNL     1       6.674   5.260  16.743  0.00  0.00    +0.000 A 
ENDBRANCH   3  23
TORSDOF 3
ENDMDL
MODEL 5
REMARK VINA RESULT:      -8.3      1.463      1.865
REMARK  Name = 
REMARK  3 active torsions:
REMARK  status: ('A' for Active; 'I' for Inactive)
REMARK    1  A    between atoms: C_2  and  C_12
REMARK    2  A    between atoms: C_7  and  C_8
REMARK    3  A    between atoms: C_14  and  C_15
REMARK                            x       y       z     vdW  Elec       q    Type
REMARK                         _______ _______ _______ _____ _____    ______ ____
ROOT
ATOM      1  C   UNL     1       2.827   5.844  19.398  0.00  0.00    +0.000 A 
ATOM      2  C   UNL     1       3.667   5.981  18.291  0.00  0.00    +0.000 A 
ATOM      3  C   UNL     1       4.419   4.894  17.883  0.00  0.00    +0.000 A 
ATOM      4  N   UNL     1       4.386   3.719  18.550  0.00  0.00    +0.000 NA
ATOM      5  C   UNL     1       3.600   3.589  19.632  0.00  0.00    +0.000 A 
ATOM      6  C   UNL     1       3.605   2.362  20.293  0.00  0.00    +0.000 A 
ATOM      7  C   UNL     1       2.832   2.129  21.429  0.00  0.00    +0.000 A 
ATOM      8  C   UNL     1       2.016   3.136  21.918  0.00  0.00    +0.000 A 
ATOM      9  C   UNL     1       1.980   4.366  21.265  0.00  0.00    +0.000 A 
ATOM     10  C   UNL     1       2.778   4.622  20.117  0.00  0.00    +0.000 A 
ENDROOT
BRANCH   1  12
ATOM     11  O   UNL     1       1.472   7.025  20.894  0.00  0.00    +0.000 OA
ATOM     12  C   UNL     1       2.055   7.048  19.820  0.00  0.00    +0.000 C 
ATOM     13  N   UNL     1       2.069   8.096  18.919  0.00  0.00    +0.000 N 
ATOM     14  C   UNL     1       1.468   9.318  19.112  0.00  0.00    +0.000 A 
ATOM     15  N   UNL     1       1.331  10.206  18.149  0.00  0.00    +0.000 NA
ATOM     16  N   UNL     1       0.607  11.311  18.567  0.00  0.00    +0.000 NA
ATOM     17  C   UNL     1       0.272  11.215  19.837  0.00  0.00    +0.000 A 
ATOM     18  S   UNL     1       0.877   9.830  20.625  0.00  0.00    +0.000 S 
ATOM     19  H   UNL     1       2.416   7.967  17.978  0.00  0.00    +0.000 HD
BRANCH  17  20
ATOM     20  C   UNL     1      -0.602  12.231  20.561  0.00  0.00    +0.000 C 
ATOM     21  C   UNL     1       0.079  13.312  21.376  0.00  0.00    +0.000 C 
ATOM     22  C   UNL     1      -0.644  12.210  22.072  0.00  0.00    +0.000 C 
ENDBRANCH  17  20
ENDBRANCH   1  12
BRANCH   3  23
ATOM     23  C   UNL     1       5.284   4.937  16.687  0.00  0.00    +0.000 A 
ATOM     24  C   UNL     1       6.433   5.746  16.655  0.00  0.00    +0.000 A 
ATOM     25  C   UNL     1       7.282   5.755  15.544  0.00  0.00    +0.000 A 
ATOM     26  C   UNL     1       6.997   4.956  14.441  0.00  0.00    +0.000 A 
ATOM     27  C   UNL     1       5.858   4.159  14.440  0.00  0.00    +0.000 A 
ATOM     28  C   UNL     1       5.011   4.151  15.551  0.00  0.00    +0.000 A 
ENDBRANCH   3  23
TORSDOF 3
ENDMDL
MODEL 6
REMARK VINA RESULT:      -8.3      2.862      8.581
REMARK  Name = 
REMARK  3 active torsions:
REMARK  status: ('A' for Active; 'I' for Inactive)
REMARK    1  A    between atoms: C_2  and  C_12
REMARK    2  A    between atoms: C_7  and  C_8
REMARK    3  A    between atoms: C_14  and  C_15
REMARK                            x       y       z     vdW  Elec       q    Type
REMARK                         _______ _______ _______ _____ _____    ______ ____
ROOT
ATOM      1  C   UNL     1       0.876   9.102  18.783  0.00  0.00    +0.000 A 
ATOM      2  C   UNL     1      -0.155   9.519  17.940  0.00  0.00    +0.000 A 
ATOM      3  C   UNL     1      -1.262  10.139  18.492  0.00  0.00    +0.000 A 
ATOM      4  N   UNL     1      -1.382  10.316  19.827  0.00  0.00    +0.000 NA
ATOM      5  C   UNL     1      -0.404   9.893  20.646  0.00  0.00    +0.000 A 
ATOM      6  C   UNL     1      -0.576  10.090  22.015  0.00  0.00    +0.000 A 
ATOM      7  C   UNL     1       0.375   9.679  22.947  0.00  0.00    +0.000 A 
ATOM      8  C   UNL     1       1.540   9.068  22.511  0.00  0.00    +0.000 A 
ATOM      9  C   UNL     1       1.743   8.876  21.146  0.00  0.00    +0.000 A 
ATOM     10  C   UNL     1       0.772   9.273  20.187  0.00  0.00    +0.000 A 
ENDROOT
BRANCH   1  12
ATOM     11  O   UNL     1       2.814   9.075  17.474  0.00  0.00    +0.000 OA
ATOM     12  C   UNL     1       2.037   8.414  18.149  0.00  0.00    +0.000 C 
ATOM     13  N   UNL     1       2.113   7.054  18.386  0.00  0.00    +0.000 N 
ATOM     14  C   UNL     1       3.116   6.225  17.943  0.00  0.00    +0.000 A 
ATOM     15  N   UNL     1       3.040   4.912  18.015  0.00  0.00    +0.000 NA
ATOM     16  N   UNL     1       4.129   4.301  17.415  0.00  0.00    +0.000 NA
ATOM     17  C   UNL     1       4.989   5.187  16.958  0.00  0.00    +0.000 A 
ATOM     18  S   UNL     1       4.580   6.807  17.295  0.00  0.00    +0.000 S 
ATOM     19  H   UNL     1       1.335   6.556  18.794  0.00  0.00    +0.000 HD
BRANCH  17  20
ATOM     20  C   UNL     1       6.241   4.824  16.170  0.00  0.00    +0.000 C 
ATOM     21  C   UNL     1       6.257   5.098  14.680  0.00  0.00    +0.000 C 
ATOM     22  C   UNL     1       6.171   3.693  15.169  0.00  0.00    +0.000 C 
ENDBRANCH  17  20
ENDBRANCH   1  12
BRANCH   3  23
ATOM     23  C   UNL     1      -2.367  10.665  17.666  0.00  0.00    +0.000 A 
ATOM     24  C   UNL     1      -2.390  10.460  16.276  0.00  0.00    +0.000 A 
ATOM     25  C   UNL     1      -3.457  10.914  15.494  0.00  0.00    +0.000 A 
ATOM     26  C   UNL     1      -4.521  11.585  16.088  0.00  0.00    +0.000 A 
ATOM     27  C   UNL     1      -4.515  11.816  17.459  0.00  0.00    +0.000 A 
ATOM     28  C   UNL     1      -3.449  11.361  18.239  0.00  0.00    +0.000 A 
ENDBRANCH   3  23
TORSDOF 3
ENDMDL
MODEL 7
REMARK VINA RESULT:      -8.1      4.700      7.348
REMARK  Name = 
REMARK  3 active torsions:
REMARK  status: ('A' for Active; 'I' for Inactive)
REMARK    1  A    between atoms: C_2  and  C_12
REMARK    2  A    between atoms: C_7  and  C_8
REMARK    3  A    between atoms: C_14  and  C_15
REMARK                            x       y       z     vdW  Elec       q    Type
REMARK                         _______ _______ _______ _____ _____    ______ ____
ROOT
ATOM      1  C   UNL     1       6.113   5.825  17.502  0.00  0.00    +0.000 A 
ATOM      2  C   UNL     1       5.005   5.498  18.286  0.00  0.00    +0.000 A 
ATOM      3  C   UNL     1       4.079   4.596  17.794  0.00  0.00    +0.000 A 
ATOM      4  N   UNL     1       4.204   4.055  16.562  0.00  0.00    +0.000 NA
ATOM      5  C   UNL     1       5.254   4.386  15.792  0.00  0.00    +0.000 A 
ATOM      6  C   UNL     1       5.336   3.809  14.525  0.00  0.00    +0.000 A 
ATOM      7  C   UNL     1       6.380   4.095  13.648  0.00  0.00    +0.000 A 
ATOM      8  C   UNL     1       7.384   4.966  14.040  0.00  0.00    +0.000 A 
ATOM      9  C   UNL     1       7.334   5.541  15.308  0.00  0.00    +0.000 A 
ATOM     10  C   UNL     1       6.264   5.273  16.205  0.00  0.00    +0.000 A 
ENDROOT
BRANCH   1  12
ATOM     11  O   UNL     1       7.809   6.480  18.973  0.00  0.00    +0.000 OA
ATOM     12  C   UNL     1       7.071   6.822  18.061  0.00  0.00    +0.000 C 
ATOM     13  N   UNL     1       7.017   8.075  17.479  0.00  0.00    +0.000 N 
ATOM     14  C   UNL     1       7.833   9.135  17.798  0.00  0.00    +0.000 A 
ATOM     15  N   UNL     1       7.612  10.360  17.369  0.00  0.00    +0.000 NA
ATOM     16  N   UNL     1       8.514  11.264  17.906  0.00  0.00    +0.000 NA
ATOM     17  C   UNL     1       9.393  10.665  18.681  0.00  0.00    +0.000 A 
ATOM     18  S   UNL     1       9.240   8.968  18.744  0.00  0.00    +0.000 S 
ATOM     19  H   UNL     1       6.257   8.328  16.864  0.00  0.00    +0.000 HD
BRANCH  17  20
ATOM     20  C   UNL     1      10.457  11.403  19.484  0.00  0.00    +0.000 C 
ATOM     21  C   UNL     1      10.084  11.934  20.853  0.00  0.00    +0.000 C 
ATOM     22  C   UNL     1      10.288  12.886  19.726  0.00  0.00    +0.000 C 
ENDBRANCH  17  20
ENDBRANCH   1  12
BRANCH   3  23
ATOM     23  C   UNL     1       2.914   4.150  18.583  0.00  0.00    +0.000 A 
ATOM     24  C   UNL     1       2.022   3.189  18.076  0.00  0.00    +0.000 A 
ATOM     25  C   UNL     1       0.944   2.728  18.837  0.00  0.00    +0.000 A 
ATOM     26  C   UNL     1       0.734   3.221  20.121  0.00  0.00    +0.000 A 
ATOM     27  C   UNL     1       1.591   4.184  20.640  0.00  0.00    +0.000 A 
ATOM     28  C   UNL     1       2.669   4.643  19.879  0.00  0.00    +0.000 A 
ENDBRANCH   3  23
TORSDOF 3
ENDMDL
MODEL 8
REMARK VINA RESULT:      -7.9      3.106      8.432
REMARK  Name = 
REMARK  3 active torsions:
REMARK  status: ('A' for Active; 'I' for Inactive)
REMARK    1  A    between atoms: C_2  and  C_12
REMARK    2  A    between atoms: C_7  and  C_8
REMARK    3  A    between atoms: C_14  and  C_15
REMARK                            x       y       z     vdW  Elec       q    Type
REMARK                         _______ _______ _______ _____ _____    ______ ____
ROOT
ATOM      1  C   UNL     1       1.246  10.153  19.678  0.00  0.00    +0.000 A 
ATOM      2  C   UNL     1       1.636  11.315  19.010  0.00  0.00    +0.000 A 
ATOM      3  C   UNL     1       1.281  12.543  19.541  0.00  0.00    +0.000 A 
ATOM      4  N   UNL     1       0.539  12.640  20.666  0.00  0.00    +0.000 NA
ATOM      5  C   UNL     1       0.138  11.524  21.298  0.00  0.00    +0.000 A 
ATOM      6  C   UNL     1      -0.633  11.675  22.450  0.00  0.00    +0.000 A 
ATOM      7  C   UNL     1      -1.105  10.580  23.173  0.00  0.00    +0.000 A 
ATOM      8  C   UNL     1      -0.792   9.298  22.753  0.00  0.00    +0.000 A 
ATOM      9  C   UNL     1      -0.008   9.122  21.615  0.00  0.00    +0.000 A 
ATOM     10  C   UNL     1       0.463  10.229  20.858  0.00  0.00    +0.000 A 
ENDROOT
BRANCH   1  12
ATOM     11  O   UNL     1       1.566   8.741  17.841  0.00  0.00    +0.000 OA
ATOM     12  C   UNL     1       1.626   8.851  19.057  0.00  0.00    +0.000 C 
ATOM     13  N   UNL     1       2.009   7.867  19.949  0.00  0.00    +0.000 N 
ATOM     14  C   UNL     1       2.443   6.608  19.605  0.00  0.00    +0.000 A 
ATOM     15  N   UNL     1       2.598   5.642  20.487  0.00  0.00    +0.000 NA
ATOM     16  N   UNL     1       2.947   4.446  19.881  0.00  0.00    +0.000 NA
ATOM     17  C   UNL     1       3.076   4.584  18.578  0.00  0.00    +0.000 A 
ATOM     18  S   UNL     1       2.867   6.178  18.012  0.00  0.00    +0.000 S 
ATOM     19  H   UNL     1       1.853   7.978  20.941  0.00  0.00    +0.000 HD
BRANCH  17  20
ATOM     20  C   UNL     1       3.366   3.428  17.628  0.00  0.00    +0.000 C 
ATOM     21  C   UNL     1       2.326   2.336  17.489  0.00  0.00    +0.000 C 
ATOM     22  C   UNL     1       3.600   2.051  18.207  0.00  0.00    +0.000 C 
ENDBRANCH  17  20
ENDBRANCH   1  12
BRANCH   3  23
ATOM     23  C   UNL     1       1.706  13.818  18.931  0.00  0.00    +0.000 A 
ATOM     24  C   UNL     1       0.929  14.982  19.075  0.00  0.00    +0.000 A 
ATOM     25  C   UNL     1       1.349  16.203  18.541  0.00  0.00    +0.000 A 
ATOM     26  C   UNL     1       2.554  16.286  17.848  0.00  0.00    +0.000 A 
ATOM     27  C   UNL     1       3.332  15.147  17.677  0.00  0.00    +0.000 A 
ATOM     28  C   UNL     1       2.912  13.927  18.212  0.00  0.00    +0.000 A 
ENDBRANCH   3  23
TORSDOF 3
ENDMDL
MODEL 9
REMARK VINA RESULT:      -7.9      3.135      9.528
REMARK  Name = 
REMARK  3 active torsions:
REMARK  status: ('A' for Active; 'I' for Inactive)
REMARK    1  A    between atoms: C_2  and  C_12
REMARK    2  A    between atoms: C_7  and  C_8
REMARK    3  A    between atoms: C_14  and  C_15
REMARK                            x       y       z     vdW  Elec       q    Type
REMARK                         _______ _______ _______ _____ _____    ______ ____
ROOT
ATOM      1  C   UNL     1       0.573  10.816  18.431  0.00  0.00    +0.000 A 
ATOM      2  C   UNL     1      -0.807  10.664  18.578  0.00  0.00    +0.000 A 
ATOM      3  C   UNL     1      -1.588  11.790  18.766  0.00  0.00    +0.000 A 
ATOM      4  N   UNL     1      -1.044  13.025  18.846  0.00  0.00    +0.000 NA
ATOM      5  C   UNL     1       0.287  13.174  18.731  0.00  0.00    +0.000 A 
ATOM      6  C   UNL     1       0.803  14.466  18.828  0.00  0.00    +0.000 A 
ATOM      7  C   UNL     1       2.169  14.726  18.731  0.00  0.00    +0.000 A 
ATOM      8  C   UNL     1       3.051  13.678  18.516  0.00  0.00    +0.000 A 
ATOM      9  C   UNL     1       2.557  12.381  18.398  0.00  0.00    +0.000 A 
ATOM     10  C   UNL     1       1.168  12.100  18.514  0.00  0.00    +0.000 A 
ENDROOT
BRANCH   1  12
ATOM     11  O   UNL     1       1.956   9.391  17.195  0.00  0.00    +0.000 OA
ATOM     12  C   UNL     1       1.379   9.574  18.258  0.00  0.00    +0.000 C 
ATOM     13  N   UNL     1       1.383   8.723  19.347  0.00  0.00    +0.000 N 
ATOM     14  C   UNL     1       2.090   7.546  19.433  0.00  0.00    +0.000 A 
ATOM     15  N   UNL     1       1.903   6.671  20.399  0.00  0.00    +0.000 NA
ATOM     16  N   UNL     1       2.661   5.526  20.210  0.00  0.00    +0.000 NA
ATOM     17  C   UNL     1       3.410   5.617  19.132  0.00  0.00    +0.000 A 
ATOM     18  S   UNL     1       3.311   7.117  18.326  0.00  0.00    +0.000 S 
ATOM     19  H   UNL     1       0.735   8.855  20.110  0.00  0.00    +0.000 HD
BRANCH  17  20
ATOM     20  C   UNL     1       4.287   4.485  18.611  0.00  0.00    +0.000 C 
ATOM     21  C   UNL     1       3.685   3.509  17.621  0.00  0.00    +0.000 C 
ATOM     22  C   UNL     1       3.960   3.065  19.016  0.00  0.00    +0.000 C 
ENDBRANCH  17  20
ENDBRANCH   1  12
BRANCH   3  23
ATOM     23  C   UNL     1      -3.060  11.722  18.869  0.00  0.00    +0.000 A 
ATOM     24  C   UNL     1      -3.751  12.466  19.842  0.00  0.00    +0.000 A 
ATOM     25  C   UNL     1      -5.147  12.442  19.914  0.00  0.00    +0.000 A 
ATOM     26  C   UNL     1      -5.880  11.673  19.016  0.00  0.00    +0.000 A 
ATOM     27  C   UNL     1      -5.220  10.916  18.055  0.00  0.00    +0.000 A 
ATOM     28  C   UNL     1      -3.826  10.940  17.983  0.00  0.00    +0.000 A 
ENDBRANCH   3  23
TORSDOF 3
ENDMDL
