MODEL 1
REMARK VINA RESULT:      -8.6      0.000      0.000
REMARK  Name = 
REMARK  9 active torsions:
REMARK  status: ('A' for Active; 'I' for Inactive)
REMARK    1  A    between atoms: C_1  and  C_2
REMARK    2  A    between atoms: C_2  and  C_3
REMARK    3  A    between atoms: C_7  and  C_8
REMARK    4  A    between atoms: N_14  and  C_15
REMARK    5  A    between atoms: C_19  and  N_20
REMARK    6  A    between atoms: N_20  and  C_21
REMARK    7  A    between atoms: N_20  and  C_22
REMARK    8  A    between atoms: C_22  and  C_23
REMARK    9  A    between atoms: N_27  and  C_28
REMARK                            x       y       z     vdW  Elec       q    Type
REMARK                         _______ _______ _______ _____ _____    ______ ____
ROOT
ATOM      1  C   UNL     1       0.367   9.241  21.920  0.00  0.00    +0.000 A 
ATOM      2  C   UNL     1       0.784   7.906  21.876  0.00  0.00    +0.000 A 
ATOM      3  C   UNL     1       1.330   7.444  20.694  0.00  0.00    +0.000 A 
ATOM      4  C   UNL     1       1.489   8.252  19.571  0.00  0.00    +0.000 A 
ATOM      5  C   UNL     1       1.044   9.568  19.572  0.00  0.00    +0.000 A 
ATOM      6  C   UNL     1       0.478  10.051  20.766  0.00  0.00    +0.000 A 
ATOM      7  C   UNL     1       2.205   7.485  18.511  0.00  0.00    +0.000 C 
ATOM      8  N   UNL     1       2.379   6.168  19.105  0.00  0.00    +0.000 N 
ATOM      9  C   UNL     1       1.853   6.104  20.394  0.00  0.00    +0.000 C 
ATOM     10  O   UNL     1       1.808   5.186  21.188  0.00  0.00    +0.000 OA
ENDROOT
BRANCH   8  11
ATOM     11  C   UNL     1       2.935   5.099  18.367  0.00  0.00    +0.000 A 
ATOM     12  C   UNL     1       2.305   3.857  18.296  0.00  0.00    +0.000 A 
ATOM     13  C   UNL     1       2.830   2.850  17.488  0.00  0.00    +0.000 A 
ATOM     14  C   UNL     1       4.007   3.069  16.769  0.00  0.00    +0.000 A 
ATOM     15  C   UNL     1       4.693   4.288  16.848  0.00  0.00    +0.000 A 
ATOM     16  C   UNL     1       4.130   5.290  17.649  0.00  0.00    +0.000 A 
BRANCH  15  17
ATOM     17  N   UNL     1       5.899   4.459  16.174  0.00  0.00    +0.000 N 
ATOM     18  C   UNL     1       6.089   3.836  14.862  0.00  0.00    +0.000 C 
BRANCH  17  19
ATOM     19  C   UNL     1       7.118   4.592  16.994  0.00  0.00    +0.000 C 
BRANCH  19  20
ATOM     20  C   UNL     1       7.528   5.985  17.375  0.00  0.00    +0.000 A 
ATOM     21  N   UNL     1       7.552   7.036  16.575  0.00  0.00    +0.000 NA
ATOM     22  N   UNL     1       7.923   8.134  17.312  0.00  0.00    +0.000 NA
ATOM     23  C   UNL     1       8.121   7.734  18.545  0.00  0.00    +0.000 A 
ATOM     24  N   UNL     1       7.910   6.390  18.627  0.00  0.00    +0.000 N 
ATOM     25  C   UNL     1       8.042   5.592  19.815  0.00  0.00    +0.000 C 
ENDBRANCH  19  20
ENDBRANCH  17  19
ENDBRANCH  15  17
ENDBRANCH   8  11
BRANCH   5  26
ATOM     26  C   UNL     1       1.156  10.468  18.368  0.00  0.00    +0.000 C 
ATOM     27  F   UNL     1       2.424  10.576  17.883  0.00  0.00    +0.000 F 
ATOM     28  F   UNL     1       0.398  10.032  17.325  0.00  0.00    +0.000 F 
ATOM     29  F   UNL     1       0.747  11.738  18.629  0.00  0.00    +0.000 F 
ENDBRANCH   5  26
BRANCH   1  31
ATOM     30  C   UNL     1      -1.042  11.018  22.952  0.00  0.00    +0.000 C 
ATOM     31  C   UNL     1      -0.120   9.836  23.217  0.00  0.00    +0.000 C 
ENDBRANCH   1  31
TORSDOF 6
ENDMDL
MODEL 2
REMARK VINA RESULT:      -8.5      2.302      3.057
REMARK  Name = 
REMARK  9 active torsions:
REMARK  status: ('A' for Active; 'I' for Inactive)
REMARK    1  A    between atoms: C_1  and  C_2
REMARK    2  A    between atoms: C_2  and  C_3
REMARK    3  A    between atoms: C_7  and  C_8
REMARK    4  A    between atoms: N_14  and  C_15
REMARK    5  A    between atoms: C_19  and  N_20
REMARK    6  A    between atoms: N_20  and  C_21
REMARK    7  A    between atoms: N_20  and  C_22
REMARK    8  A    between atoms: C_22  and  C_23
REMARK    9  A    between atoms: N_27  and  C_28
REMARK                            x       y       z     vdW  Elec       q    Type
REMARK                         _______ _______ _______ _____ _____    ______ ____
ROOT
ATOM      1  C   UNL     1       0.176  11.727  19.478  0.00  0.00    +0.000 A 
ATOM      2  C   UNL     1       0.928  10.866  18.672  0.00  0.00    +0.000 A 
ATOM      3  C   UNL     1       1.282   9.640  19.199  0.00  0.00    +0.000 A 
ATOM      4  C   UNL     1       0.909   9.235  20.479  0.00  0.00    +0.000 A 
ATOM      5  C   UNL     1       0.201  10.086  21.318  0.00  0.00    +0.000 A 
ATOM      6  C   UNL     1      -0.161  11.341  20.796  0.00  0.00    +0.000 A 
ATOM      7  C   UNL     1       1.352   7.827  20.696  0.00  0.00    +0.000 C 
ATOM      8  N   UNL     1       2.054   7.497  19.465  0.00  0.00    +0.000 N 
ATOM      9  C   UNL     1       2.047   8.559  18.562  0.00  0.00    +0.000 C 
ATOM     10  O   UNL     1       2.527   8.658  17.451  0.00  0.00    +0.000 OA
ENDROOT
BRANCH   8  11
ATOM     11  C   UNL     1       2.724   6.263  19.311  0.00  0.00    +0.000 A 
ATOM     12  C   UNL     1       2.508   5.201  20.189  0.00  0.00    +0.000 A 
ATOM     13  C   UNL     1       3.114   3.968  19.959  0.00  0.00    +0.000 A 
ATOM     14  C   UNL     1       3.965   3.797  18.865  0.00  0.00    +0.000 A 
ATOM     15  C   UNL     1       4.242   4.851  17.985  0.00  0.00    +0.000 A 
ATOM     16  C   UNL     1       3.601   6.073  18.228  0.00  0.00    +0.000 A 
BRANCH  15  17
ATOM     17  N   UNL     1       5.146   4.674  16.942  0.00  0.00    +0.000 N 
ATOM     18  C   UNL     1       4.776   3.838  15.798  0.00  0.00    +0.000 C 
BRANCH  17  19
ATOM     19  C   UNL     1       6.581   4.681  17.283  0.00  0.00    +0.000 C 
BRANCH  19  20
ATOM     20  C   UNL     1       7.220   6.023  17.496  0.00  0.00    +0.000 A 
ATOM     21  N   UNL     1       7.228   7.026  16.636  0.00  0.00    +0.000 NA
ATOM     22  N   UNL     1       7.855   8.097  17.224  0.00  0.00    +0.000 NA
ATOM     23  C   UNL     1       8.221   7.728  18.429  0.00  0.00    +0.000 A 
ATOM     24  N   UNL     1       7.866   6.428  18.634  0.00  0.00    +0.000 N 
ATOM     25  C   UNL     1       8.110   5.672  19.831  0.00  0.00    +0.000 C 
ENDBRANCH  19  20
ENDBRANCH  17  19
ENDBRANCH  15  17
ENDBRANCH   8  11
BRANCH   5  26
ATOM     26  C   UNL     1      -0.188   9.708  22.724  0.00  0.00    +0.000 C 
ATOM     27  F   UNL     1      -0.922  10.661  23.362  0.00  0.00    +0.000 F 
ATOM     28  F   UNL     1      -0.939   8.574  22.765  0.00  0.00    +0.000 F 
ATOM     29  F   UNL     1       0.892   9.476  23.517  0.00  0.00    +0.000 F 
ENDBRANCH   5  26
BRANCH   1  31
ATOM     30  C   UNL     1      -0.492  14.067  20.013  0.00  0.00    +0.000 C 
ATOM     31  C   UNL     1      -0.346  13.025  18.914  0.00  0.00    +0.000 C 
ENDBRANCH   1  31
TORSDOF 6
ENDMDL
MODEL 3
REMARK VINA RESULT:      -8.5      4.357      9.023
REMARK  Name = 
REMARK  9 active torsions:
REMARK  status: ('A' for Active; 'I' for Inactive)
REMARK    1  A    between atoms: C_1  and  C_2
REMARK    2  A    between atoms: C_2  and  C_3
REMARK    3  A    between atoms: C_7  and  C_8
REMARK    4  A    between atoms: N_14  and  C_15
REMARK    5  A    between atoms: C_19  and  N_20
REMARK    6  A    between atoms: N_20  and  C_21
REMARK    7  A    between atoms: N_20  and  C_22
REMARK    8  A    between atoms: C_22  and  C_23
REMARK    9  A    between atoms: N_27  and  C_28
REMARK                            x       y       z     vdW  Elec       q    Type
REMARK                         _______ _______ _______ _____ _____    ______ ____
ROOT
ATOM      1  C   UNL     1       3.837   5.705  17.746  0.00  0.00    +0.000 A 
ATOM      2  C   UNL     1       3.351   7.015  17.819  0.00  0.00    +0.000 A 
ATOM      3  C   UNL     1       2.492   7.323  18.855  0.00  0.00    +0.000 A 
ATOM      4  C   UNL     1       2.112   6.394  19.820  0.00  0.00    +0.000 A 
ATOM      5  C   UNL     1       2.542   5.075  19.748  0.00  0.00    +0.000 A 
ATOM      6  C   UNL     1       3.413   4.744  18.693  0.00  0.00    +0.000 A 
ATOM      7  C   UNL     1       1.274   7.071  20.851  0.00  0.00    +0.000 C 
ATOM      8  N   UNL     1       1.165   8.435  20.358  0.00  0.00    +0.000 N 
ATOM      9  C   UNL     1       1.861   8.614  19.164  0.00  0.00    +0.000 C 
ATOM     10  O   UNL     1       1.994   9.597  18.463  0.00  0.00    +0.000 OA
ENDROOT
BRANCH   8  11
ATOM     11  C   UNL     1       0.351   9.389  21.011  0.00  0.00    +0.000 A 
ATOM     12  C   UNL     1       0.145   9.349  22.389  0.00  0.00    +0.000 A 
ATOM     13  C   UNL     1      -0.588  10.355  23.017  0.00  0.00    +0.000 A 
ATOM     14  C   UNL     1      -1.147  11.390  22.264  0.00  0.00    +0.000 A 
ATOM     15  C   UNL     1      -1.000  11.441  20.872  0.00  0.00    +0.000 A 
ATOM     16  C   UNL     1      -0.239  10.430  20.271  0.00  0.00    +0.000 A 
BRANCH  15  17
ATOM     17  N   UNL     1      -1.623  12.446  20.137  0.00  0.00    +0.000 N 
ATOM     18  C   UNL     1      -1.338  13.849  20.445  0.00  0.00    +0.000 C 
BRANCH  17  19
ATOM     19  C   UNL     1      -2.982  12.171  19.634  0.00  0.00    +0.000 C 
BRANCH  19  20
ATOM     20  C   UNL     1      -3.093  11.688  18.216  0.00  0.00    +0.000 A 
ATOM     21  N   UNL     1      -2.108  11.618  17.338  0.00  0.00    +0.000 NA
ATOM     22  N   UNL     1      -2.599  11.068  16.179  0.00  0.00    +0.000 NA
ATOM     23  C   UNL     1      -3.872  10.817  16.369  0.00  0.00    +0.000 A 
ATOM     24  N   UNL     1      -4.232  11.211  17.623  0.00  0.00    +0.000 N 
ATOM     25  C   UNL     1      -5.549  11.106  18.189  0.00  0.00    +0.000 C 
ENDBRANCH  19  20
ENDBRANCH  17  19
ENDBRANCH  15  17
ENDBRANCH   8  11
BRANCH   5  26
ATOM     26  C   UNL     1       2.124   4.024  20.744  0.00  0.00    +0.000 C 
ATOM     27  F   UNL     1       0.782   3.796  20.765  0.00  0.00    +0.000 F 
ATOM     28  F   UNL     1       2.699   2.816  20.492  0.00  0.00    +0.000 F 
ATOM     29  F   UNL     1       2.468   4.349  22.018  0.00  0.00    +0.000 F 
ENDBRANCH   5  26
BRANCH   1  31
ATOM     30  C   UNL     1       4.948   3.832  16.536  0.00  0.00    +0.000 C 
ATOM     31  C   UNL     1       4.874   5.342  16.713  0.00  0.00    +0.000 C 
ENDBRANCH   1  31
TORSDOF 6
ENDMDL
MODEL 4
REMARK VINA RESULT:      -8.4      2.364      3.745
REMARK  Name = 
REMARK  9 active torsions:
REMARK  status: ('A' for Active; 'I' for Inactive)
REMARK    1  A    between atoms: C_1  and  C_2
REMARK    2  A    between atoms: C_2  and  C_3
REMARK    3  A    between atoms: C_7  and  C_8
REMARK    4  A    between atoms: N_14  and  C_15
REMARK    5  A    between atoms: C_19  and  N_20
REMARK    6  A    between atoms: N_20  and  C_21
REMARK    7  A    between atoms: N_20  and  C_22
REMARK    8  A    between atoms: C_22  and  C_23
REMARK    9  A    between atoms: N_27  and  C_28
REMARK                            x       y       z     vdW  Elec       q    Type
REMARK                         _______ _______ _______ _____ _____    ______ ____
ROOT
ATOM      1  C   UNL     1      -0.240  11.095  18.931  0.00  0.00    +0.000 A 
ATOM      2  C   UNL     1       0.645  10.287  18.209  0.00  0.00    +0.000 A 
ATOM      3  C   UNL     1       1.241   9.235  18.876  0.00  0.00    +0.000 A 
ATOM      4  C   UNL     1       0.984   8.948  20.214  0.00  0.00    +0.000 A 
ATOM      5  C   UNL     1       0.145   9.760  20.968  0.00  0.00    +0.000 A 
ATOM      6  C   UNL     1      -0.464  10.840  20.304  0.00  0.00    +0.000 A 
ATOM      7  C   UNL     1       1.696   7.693  20.593  0.00  0.00    +0.000 C 
ATOM      8  N   UNL     1       2.418   7.334  19.383  0.00  0.00    +0.000 N 
ATOM      9  C   UNL     1       2.185   8.239  18.350  0.00  0.00    +0.000 C 
ATOM     10  O   UNL     1       2.611   8.271  17.212  0.00  0.00    +0.000 OA
ENDROOT
BRANCH   8  11
ATOM     11  C   UNL     1       3.311   6.238  19.360  0.00  0.00    +0.000 A 
ATOM     12  C   UNL     1       2.915   4.967  19.777  0.00  0.00    +0.000 A 
ATOM     13  C   UNL     1       3.788   3.888  19.658  0.00  0.00    +0.000 A 
ATOM     14  C   UNL     1       5.075   4.078  19.149  0.00  0.00    +0.000 A 
ATOM     15  C   UNL     1       5.524   5.347  18.760  0.00  0.00    +0.000 A 
ATOM     16  C   UNL     1       4.618   6.409  18.870  0.00  0.00    +0.000 A 
BRANCH  15  17
ATOM     17  N   UNL     1       6.833   5.522  18.319  0.00  0.00    +0.000 N 
ATOM     18  C   UNL     1       7.361   6.877  18.141  0.00  0.00    +0.000 C 
BRANCH  17  19
ATOM     19  C   UNL     1       7.378   4.504  17.401  0.00  0.00    +0.000 C 
BRANCH  19  20
ATOM     20  C   UNL     1       6.997   4.626  15.954  0.00  0.00    +0.000 A 
ATOM     21  N   UNL     1       7.671   5.279  15.023  0.00  0.00    +0.000 NA
ATOM     22  N   UNL     1       7.032   5.102  13.820  0.00  0.00    +0.000 NA
ATOM     23  C   UNL     1       5.981   4.349  14.038  0.00  0.00    +0.000 A 
ATOM     24  N   UNL     1       5.904   4.046  15.365  0.00  0.00    +0.000 N 
ATOM     25  C   UNL     1       4.882   3.249  15.985  0.00  0.00    +0.000 C 
ENDBRANCH  19  20
ENDBRANCH  17  19
ENDBRANCH  15  17
ENDBRANCH   8  11
BRANCH   5  26
ATOM     26  C   UNL     1      -0.131   9.515  22.429  0.00  0.00    +0.000 C 
ATOM     27  F   UNL     1      -0.918   8.429  22.661  0.00  0.00    +0.000 F 
ATOM     28  F   UNL     1       1.010   9.303  23.141  0.00  0.00    +0.000 F 
ATOM     29  F   UNL     1      -0.759  10.565  23.022  0.00  0.00    +0.000 F 
ENDBRANCH   5  26
BRANCH   1  31
ATOM     30  C   UNL     1      -0.355  13.535  18.439  0.00  0.00    +0.000 C 
ATOM     31  C   UNL     1      -1.016  12.180  18.227  0.00  0.00    +0.000 C 
ENDBRANCH   1  31
TORSDOF 6
ENDMDL
MODEL 5
REMARK VINA RESULT:      -8.3      4.254      8.217
REMARK  Name = 
REMARK  9 active torsions:
REMARK  status: ('A' for Active; 'I' for Inactive)
REMARK    1  A    between atoms: C_1  and  C_2
REMARK    2  A    between atoms: C_2  and  C_3
REMARK    3  A    between atoms: C_7  and  C_8
REMARK    4  A    between atoms: N_14  and  C_15
REMARK    5  A    between atoms: C_19  and  N_20
REMARK    6  A    between atoms: N_20  and  C_21
REMARK    7  A    between atoms: N_20  and  C_22
REMARK    8  A    between atoms: C_22  and  C_23
REMARK    9  A    between atoms: N_27  and  C_28
REMARK                            x       y       z     vdW  Elec       q    Type
REMARK                         _______ _______ _______ _____ _____    ______ ____
ROOT
ATOM      1  C   UNL     1       3.891   5.168  17.652  0.00  0.00    +0.000 A 
ATOM      2  C   UNL     1       3.503   6.511  17.706  0.00  0.00    +0.000 A 
ATOM      3  C   UNL     1       2.659   6.893  18.730  0.00  0.00    +0.000 A 
ATOM      4  C   UNL     1       2.201   6.005  19.700  0.00  0.00    +0.000 A 
ATOM      5  C   UNL     1       2.534   4.657  19.646  0.00  0.00    +0.000 A 
ATOM      6  C   UNL     1       3.388   4.251  18.605  0.00  0.00    +0.000 A 
ATOM      7  C   UNL     1       1.406   6.754  20.715  0.00  0.00    +0.000 C 
ATOM      8  N   UNL     1       1.402   8.116  20.206  0.00  0.00    +0.000 N 
ATOM      9  C   UNL     1       2.121   8.230  19.018  0.00  0.00    +0.000 C 
ATOM     10  O   UNL     1       2.333   9.192  18.307  0.00  0.00    +0.000 OA
ENDROOT
BRANCH   8  11
ATOM     11  C   UNL     1       0.654   9.135  20.840  0.00  0.00    +0.000 A 
ATOM     12  C   UNL     1       0.403   9.108  22.211  0.00  0.00    +0.000 A 
ATOM     13  C   UNL     1      -0.259  10.171  22.823  0.00  0.00    +0.000 A 
ATOM     14  C   UNL     1      -0.703  11.254  22.060  0.00  0.00    +0.000 A 
ATOM     15  C   UNL     1      -0.508  11.297  20.673  0.00  0.00    +0.000 A 
ATOM     16  C   UNL     1       0.180  10.226  20.089  0.00  0.00    +0.000 A 
BRANCH  15  17
ATOM     17  N   UNL     1      -1.018  12.356  19.926  0.00  0.00    +0.000 N 
ATOM     18  C   UNL     1      -1.322  12.159  18.507  0.00  0.00    +0.000 C 
BRANCH  17  19
ATOM     19  C   UNL     1      -0.585  13.716  20.299  0.00  0.00    +0.000 C 
BRANCH  19  20
ATOM     20  C   UNL     1       0.844  13.875  20.734  0.00  0.00    +0.000 A 
ATOM     21  N   UNL     1       1.259  14.143  21.959  0.00  0.00    +0.000 NA
ATOM     22  N   UNL     1       2.633  14.147  21.960  0.00  0.00    +0.000 NA
ATOM     23  C   UNL     1       3.030  13.885  20.738  0.00  0.00    +0.000 A 
ATOM     24  N   UNL     1       1.943  13.731  19.929  0.00  0.00    +0.000 N 
ATOM     25  C   UNL     1       1.980  13.446  18.522  0.00  0.00    +0.000 C 
ENDBRANCH  19  20
ENDBRANCH  17  19
ENDBRANCH  15  17
ENDBRANCH   8  11
BRANCH   5  26
ATOM     26  C   UNL     1       2.030   3.651  20.649  0.00  0.00    +0.000 C 
ATOM     27  F   UNL     1       2.395   3.929  21.931  0.00  0.00    +0.000 F 
ATOM     28  F   UNL     1       0.671   3.571  20.661  0.00  0.00    +0.000 F 
ATOM     29  F   UNL     1       2.482   2.394  20.396  0.00  0.00    +0.000 F 
ENDBRANCH   5  26
BRANCH   1  31
ATOM     30  C   UNL     1       5.272   5.860  15.697  0.00  0.00    +0.000 C 
ATOM     31  C   UNL     1       4.909   4.717  16.635  0.00  0.00    +0.000 C 
ENDBRANCH   1  31
TORSDOF 6
ENDMDL
MODEL 6
REMARK VINA RESULT:      -8.3      4.604      9.392
REMARK  Name = 
REMARK  9 active torsions:
REMARK  status: ('A' for Active; 'I' for Inactive)
REMARK    1  A    between atoms: C_1  and  C_2
REMARK    2  A    between atoms: C_2  and  C_3
REMARK    3  A    between atoms: C_7  and  C_8
REMARK    4  A    between atoms: N_14  and  C_15
REMARK    5  A    between atoms: C_19  and  N_20
REMARK    6  A    between atoms: N_20  and  C_21
REMARK    7  A    between atoms: N_20  and  C_22
REMARK    8  A    between atoms: C_22  and  C_23
REMARK    9  A    between atoms: N_27  and  C_28
REMARK                            x       y       z     vdW  Elec       q    Type
REMARK                         _______ _______ _______ _____ _____    ______ ____
ROOT
ATOM      1  C   UNL     1       4.044   4.986  17.653  0.00  0.00    +0.000 A 
ATOM      2  C   UNL     1       3.646   6.326  17.695  0.00  0.00    +0.000 A 
ATOM      3  C   UNL     1       2.778   6.705  18.700  0.00  0.00    +0.000 A 
ATOM      4  C   UNL     1       2.305   5.816  19.662  0.00  0.00    +0.000 A 
ATOM      5  C   UNL     1       2.648   4.470  19.618  0.00  0.00    +0.000 A 
ATOM      6  C   UNL     1       3.527   4.068  18.596  0.00  0.00    +0.000 A 
ATOM      7  C   UNL     1       1.483   6.562  20.658  0.00  0.00    +0.000 C 
ATOM      8  N   UNL     1       1.482   7.923  20.146  0.00  0.00    +0.000 N 
ATOM      9  C   UNL     1       2.225   8.039  18.973  0.00  0.00    +0.000 C 
ATOM     10  O   UNL     1       2.446   9.001  18.266  0.00  0.00    +0.000 OA
ENDROOT
BRANCH   8  11
ATOM     11  C   UNL     1       0.713   8.938  20.761  0.00  0.00    +0.000 A 
ATOM     12  C   UNL     1       0.690   9.094  22.147  0.00  0.00    +0.000 A 
ATOM     13  C   UNL     1      -0.004  10.159  22.719  0.00  0.00    +0.000 A 
ATOM     14  C   UNL     1      -0.705  11.056  21.910  0.00  0.00    +0.000 A 
ATOM     15  C   UNL     1      -0.741  10.907  20.518  0.00  0.00    +0.000 A 
ATOM     16  C   UNL     1      -0.016   9.842  19.968  0.00  0.00    +0.000 A 
BRANCH  15  17
ATOM     17  N   UNL     1      -1.501  11.775  19.739  0.00  0.00    +0.000 N 
ATOM     18  C   UNL     1      -1.074  12.085  18.373  0.00  0.00    +0.000 C 
BRANCH  17  19
ATOM     19  C   UNL     1      -2.217  12.859  20.440  0.00  0.00    +0.000 C 
BRANCH  19  20
ATOM     20  C   UNL     1      -3.709  12.724  20.548  0.00  0.00    +0.000 A 
ATOM     21  N   UNL     1      -4.556  12.612  19.540  0.00  0.00    +0.000 NA
ATOM     22  N   UNL     1      -5.820  12.448  20.052  0.00  0.00    +0.000 NA
ATOM     23  C   UNL     1      -5.722  12.467  21.360  0.00  0.00    +0.000 A 
ATOM     24  N   UNL     1      -4.421  12.662  21.717  0.00  0.00    +0.000 N 
ATOM     25  C   UNL     1      -3.926  12.751  23.063  0.00  0.00    +0.000 C 
ENDBRANCH  19  20
ENDBRANCH  17  19
ENDBRANCH  15  17
ENDBRANCH   8  11
BRANCH   5  26
ATOM     26  C   UNL     1       2.129   3.463  20.612  0.00  0.00    +0.000 C 
ATOM     27  F   UNL     1       0.772   3.353  20.619  0.00  0.00    +0.000 F 
ATOM     28  F   UNL     1       2.599   2.209  20.370  0.00  0.00    +0.000 F 
ATOM     29  F   UNL     1       2.485   3.762  21.889  0.00  0.00    +0.000 F 
ENDBRANCH   5  26
BRANCH   1  31
ATOM     30  C   UNL     1       5.338   5.626  15.622  0.00  0.00    +0.000 C 
ATOM     31  C   UNL     1       5.087   4.540  16.658  0.00  0.00    +0.000 C 
ENDBRANCH   1  31
TORSDOF 6
ENDMDL
MODEL 7
REMARK VINA RESULT:      -8.2      4.300      8.802
REMARK  Name = 
REMARK  9 active torsions:
REMARK  status: ('A' for Active; 'I' for Inactive)
REMARK    1  A    between atoms: C_1  and  C_2
REMARK    2  A    between atoms: C_2  and  C_3
REMARK    3  A    between atoms: C_7  and  C_8
REMARK    4  A    between atoms: N_14  and  C_15
REMARK    5  A    between atoms: C_19  and  N_20
REMARK    6  A    between atoms: N_20  and  C_21
REMARK    7  A    between atoms: N_20  and  C_22
REMARK    8  A    between atoms: C_22  and  C_23
REMARK    9  A    between atoms: N_27  and  C_28
REMARK                            x       y       z     vdW  Elec       q    Type
REMARK                         _______ _______ _______ _____ _____    ______ ____
ROOT
ATOM      1  C   UNL     1       3.854   4.768  17.604  0.00  0.00    +0.000 A 
ATOM      2  C   UNL     1       3.512   6.124  17.642  0.00  0.00    +0.000 A 
ATOM      3  C   UNL     1       2.721   6.555  18.687  0.00  0.00    +0.000 A 
ATOM      4  C   UNL     1       2.273   5.704  19.695  0.00  0.00    +0.000 A 
ATOM      5  C   UNL     1       2.560   4.346  19.659  0.00  0.00    +0.000 A 
ATOM      6  C   UNL     1       3.359   3.889  18.596  0.00  0.00    +0.000 A 
ATOM      7  C   UNL     1       1.541   6.501  20.722  0.00  0.00    +0.000 C 
ATOM      8  N   UNL     1       1.561   7.852  20.182  0.00  0.00    +0.000 N 
ATOM      9  C   UNL     1       2.238   7.915  18.965  0.00  0.00    +0.000 C 
ATOM     10  O   UNL     1       2.452   8.855  18.225  0.00  0.00    +0.000 OA
ENDROOT
BRANCH   8  11
ATOM     11  C   UNL     1       0.871   8.908  20.820  0.00  0.00    +0.000 A 
ATOM     12  C   UNL     1       0.199   8.714  22.026  0.00  0.00    +0.000 A 
ATOM     13  C   UNL     1      -0.396   9.794  22.677  0.00  0.00    +0.000 A 
ATOM     14  C   UNL     1      -0.347  11.069  22.109  0.00  0.00    +0.000 A 
ATOM     15  C   UNL     1       0.281  11.295  20.878  0.00  0.00    +0.000 A 
ATOM     16  C   UNL     1       0.890  10.197  20.257  0.00  0.00    +0.000 A 
BRANCH  15  17
ATOM     17  N   UNL     1       0.257  12.562  20.301  0.00  0.00    +0.000 N 
ATOM     18  C   UNL     1       0.306  13.748  21.159  0.00  0.00    +0.000 C 
BRANCH  17  19
ATOM     19  C   UNL     1      -0.502  12.719  19.046  0.00  0.00    +0.000 C 
BRANCH  19  20
ATOM     20  C   UNL     1      -1.960  12.365  19.089  0.00  0.00    +0.000 A 
ATOM     21  N   UNL     1      -2.861  12.874  19.912  0.00  0.00    +0.000 NA
ATOM     22  N   UNL     1      -4.087  12.341  19.595  0.00  0.00    +0.000 NA
ATOM     23  C   UNL     1      -3.912  11.517  18.590  0.00  0.00    +0.000 A 
ATOM     24  N   UNL     1      -2.592  11.480  18.255  0.00  0.00    +0.000 N 
ATOM     25  C   UNL     1      -2.015  10.682  17.209  0.00  0.00    +0.000 C 
ENDBRANCH  19  20
ENDBRANCH  17  19
ENDBRANCH  15  17
ENDBRANCH   8  11
BRANCH   5  26
ATOM     26  C   UNL     1       2.062   3.379  20.703  0.00  0.00    +0.000 C 
ATOM     27  F   UNL     1       0.706   3.353  20.821  0.00  0.00    +0.000 F 
ATOM     28  F   UNL     1       2.435   2.097  20.439  0.00  0.00    +0.000 F 
ATOM     29  F   UNL     1       2.539   3.664  21.944  0.00  0.00    +0.000 F 
ENDBRANCH   5  26
BRANCH   1  31
ATOM     30  C   UNL     1       5.497   5.424  15.849  0.00  0.00    +0.000 C 
ATOM     31  C   UNL     1       4.817   4.262  16.559  0.00  0.00    +0.000 C 
ENDBRANCH   1  31
TORSDOF 6
ENDMDL
MODEL 8
REMARK VINA RESULT:      -8.2      4.143      8.780
REMARK  Name = 
REMARK  9 active torsions:
REMARK  status: ('A' for Active; 'I' for Inactive)
REMARK    1  A    between atoms: C_1  and  C_2
REMARK    2  A    between atoms: C_2  and  C_3
REMARK    3  A    between atoms: C_7  and  C_8
REMARK    4  A    between atoms: N_14  and  C_15
REMARK    5  A    between atoms: C_19  and  N_20
REMARK    6  A    between atoms: N_20  and  C_21
REMARK    7  A    between atoms: N_20  and  C_22
REMARK    8  A    between atoms: C_22  and  C_23
REMARK    9  A    between atoms: N_27  and  C_28
REMARK                            x       y       z     vdW  Elec       q    Type
REMARK                         _______ _______ _______ _____ _____    ______ ____
ROOT
ATOM      1  C   UNL     1       4.589   4.308  17.000  0.00  0.00    +0.000 A 
ATOM      2  C   UNL     1       4.277   5.671  17.037  0.00  0.00    +0.000 A 
ATOM      3  C   UNL     1       3.406   6.101  18.018  0.00  0.00    +0.000 A 
ATOM      4  C   UNL     1       2.849   5.242  18.962  0.00  0.00    +0.000 A 
ATOM      5  C   UNL     1       3.105   3.877  18.921  0.00  0.00    +0.000 A 
ATOM      6  C   UNL     1       3.986   3.422  17.923  0.00  0.00    +0.000 A 
ATOM      7  C   UNL     1       2.047   6.037  19.937  0.00  0.00    +0.000 C 
ATOM      8  N   UNL     1       2.148   7.396  19.431  0.00  0.00    +0.000 N 
ATOM      9  C   UNL     1       2.932   7.468  18.281  0.00  0.00    +0.000 C 
ATOM     10  O   UNL     1       3.235   8.416  17.585  0.00  0.00    +0.000 OA
ENDROOT
BRANCH   8  11
ATOM     11  C   UNL     1       1.429   8.457  20.029  0.00  0.00    +0.000 A 
ATOM     12  C   UNL     1       1.017   8.398  21.360  0.00  0.00    +0.000 A 
ATOM     13  C   UNL     1       0.390   9.495  21.947  0.00  0.00    +0.000 A 
ATOM     14  C   UNL     1       0.142  10.648  21.197  0.00  0.00    +0.000 A 
ATOM     15  C   UNL     1       0.501  10.728  19.846  0.00  0.00    +0.000 A 
ATOM     16  C   UNL     1       1.151   9.620  19.288  0.00  0.00    +0.000 A 
BRANCH  15  17
ATOM     17  N   UNL     1       0.184  11.862  19.103  0.00  0.00    +0.000 N 
ATOM     18  C   UNL     1       1.220  12.860  18.827  0.00  0.00    +0.000 C 
BRANCH  17  19
ATOM     19  C   UNL     1      -1.187  12.391  19.231  0.00  0.00    +0.000 C 
BRANCH  19  20
ATOM     20  C   UNL     1      -2.256  11.699  18.435  0.00  0.00    +0.000 A 
ATOM     21  N   UNL     1      -2.065  10.926  17.381  0.00  0.00    +0.000 NA
ATOM     22  N   UNL     1      -3.282  10.435  16.976  0.00  0.00    +0.000 NA
ATOM     23  C   UNL     1      -4.193  10.919  17.786  0.00  0.00    +0.000 A 
ATOM     24  N   UNL     1      -3.600  11.737  18.702  0.00  0.00    +0.000 N 
ATOM     25  C   UNL     1      -4.277  12.457  19.745  0.00  0.00    +0.000 C 
ENDBRANCH  19  20
ENDBRANCH  17  19
ENDBRANCH  15  17
ENDBRANCH   8  11
BRANCH   5  26
ATOM     26  C   UNL     1       2.493   2.903  19.895  0.00  0.00    +0.000 C 
ATOM     27  F   UNL     1       1.257   3.270  20.330  0.00  0.00    +0.000 F 
ATOM     28  F   UNL     1       2.342   1.662  19.357  0.00  0.00    +0.000 F 
ATOM     29  F   UNL     1       3.250   2.741  21.013  0.00  0.00    +0.000 F 
ENDBRANCH   5  26
BRANCH   1  31
ATOM     30  C   UNL     1       5.582   4.584  14.731  0.00  0.00    +0.000 C 
ATOM     31  C   UNL     1       5.630   3.798  16.034  0.00  0.00    +0.000 C 
ENDBRANCH   1  31
TORSDOF 6
ENDMDL
MODEL 9
REMARK VINA RESULT:      -8.1      4.108      8.065
REMARK  Name = 
REMARK  9 active torsions:
REMARK  status: ('A' for Active; 'I' for Inactive)
REMARK    1  A    between atoms: C_1  and  C_2
REMARK    2  A    between atoms: C_2  and  C_3
REMARK    3  A    between atoms: C_7  and  C_8
REMARK    4  A    between atoms: N_14  and  C_15
REMARK    5  A    between atoms: C_19  and  N_20
REMARK    6  A    between atoms: N_20  and  C_21
REMARK    7  A    between atoms: N_20  and  C_22
REMARK    8  A    between atoms: C_22  and  C_23
REMARK    9  A    between atoms: N_27  and  C_28
REMARK                            x       y       z     vdW  Elec       q    Type
REMARK                         _______ _______ _______ _____ _____    ______ ____
ROOT
ATOM      1  C   UNL     1       4.085   4.732  17.414  0.00  0.00    +0.000 A 
ATOM      2  C   UNL     1       3.745   6.088  17.455  0.00  0.00    +0.000 A 
ATOM      3  C   UNL     1       2.911   6.509  18.472  0.00  0.00    +0.000 A 
ATOM      4  C   UNL     1       2.418   5.647  19.447  0.00  0.00    +0.000 A 
ATOM      5  C   UNL     1       2.702   4.287  19.406  0.00  0.00    +0.000 A 
ATOM      6  C   UNL     1       3.545   3.842  18.372  0.00  0.00    +0.000 A 
ATOM      7  C   UNL     1       1.645   6.433  20.453  0.00  0.00    +0.000 C 
ATOM      8  N   UNL     1       1.693   7.790  19.932  0.00  0.00    +0.000 N 
ATOM      9  C   UNL     1       2.421   7.867  18.746  0.00  0.00    +0.000 C 
ATOM     10  O   UNL     1       2.670   8.815  18.029  0.00  0.00    +0.000 OA
ENDROOT
BRANCH   8  11
ATOM     11  C   UNL     1       0.979   8.840  20.554  0.00  0.00    +0.000 A 
ATOM     12  C   UNL     1       0.959   8.985  21.941  0.00  0.00    +0.000 A 
ATOM     13  C   UNL     1       0.323  10.081  22.520  0.00  0.00    +0.000 A 
ATOM     14  C   UNL     1      -0.324  11.023  21.717  0.00  0.00    +0.000 A 
ATOM     15  C   UNL     1      -0.363  10.889  20.323  0.00  0.00    +0.000 A 
ATOM     16  C   UNL     1       0.304   9.790  19.767  0.00  0.00    +0.000 A 
BRANCH  15  17
ATOM     17  N   UNL     1      -1.071  11.805  19.550  0.00  0.00    +0.000 N 
ATOM     18  C   UNL     1      -1.732  11.357  18.322  0.00  0.00    +0.000 C 
BRANCH  17  19
ATOM     19  C   UNL     1      -0.581  13.197  19.535  0.00  0.00    +0.000 C 
BRANCH  19  20
ATOM     20  C   UNL     1       0.895  13.392  19.342  0.00  0.00    +0.000 A 
ATOM     21  N   UNL     1       1.585  13.093  18.255  0.00  0.00    +0.000 NA
ATOM     22  N   UNL     1       2.889  13.476  18.449  0.00  0.00    +0.000 NA
ATOM     23  C   UNL     1       2.973  13.998  19.650  0.00  0.00    +0.000 A 
ATOM     24  N   UNL     1       1.753  13.944  20.256  0.00  0.00    +0.000 N 
ATOM     25  C   UNL     1       1.456  14.410  21.582  0.00  0.00    +0.000 C 
ENDBRANCH  19  20
ENDBRANCH  17  19
ENDBRANCH  15  17
ENDBRANCH   8  11
BRANCH   5  26
ATOM     26  C   UNL     1       2.157   3.309  20.415  0.00  0.00    +0.000 C 
ATOM     27  F   UNL     1       0.798   3.226  20.416  0.00  0.00    +0.000 F 
ATOM     28  F   UNL     1       2.604   2.042  20.198  0.00  0.00    +0.000 F 
ATOM     29  F   UNL     1       2.513   3.624  21.689  0.00  0.00    +0.000 F 
ENDBRANCH   5  26
BRANCH   1  31
ATOM     30  C   UNL     1       5.556   5.375  15.509  0.00  0.00    +0.000 C 
ATOM     31  C   UNL     1       5.090   4.236  16.405  0.00  0.00    +0.000 C 
ENDBRANCH   1  31
TORSDOF 6
ENDMDL
