MODEL 1
REMARK VINA RESULT:      -8.6      0.000      0.000
REMARK  Name = 
REMARK  3 active torsions:
REMARK  status: ('A' for Active; 'I' for Inactive)
REMARK    1  A    between atoms: C_5  and  C_6
REMARK    2  A    between atoms: C_10  and  C_11
REMARK    3  A    between atoms: C_13  and  C_14
REMARK                            x       y       z     vdW  Elec       q    Type
REMARK                         _______ _______ _______ _____ _____    ______ ____
ROOT
ATOM      1  C   UNL     1       4.608   5.122  18.567  0.00  0.00    +0.000 A 
ATOM      2  C   UNL     1       4.122   4.140  19.444  0.00  0.00    +0.000 A 
ATOM      3  C   UNL     1       2.971   4.365  20.199  0.00  0.00    +0.000 A 
ATOM      4  C   UNL     1       2.296   5.579  20.089  0.00  0.00    +0.000 A 
ATOM      5  C   UNL     1       2.746   6.577  19.213  0.00  0.00    +0.000 A 
ATOM      6  C   UNL     1       3.899   6.330  18.449  0.00  0.00    +0.000 A 
ENDROOT
BRANCH   1  11
ATOM      7  N   UNL     1       7.511   5.153  14.905  0.00  0.00    +0.000 N 
ATOM      8  C   UNL     1       7.156   4.919  16.171  0.00  0.00    +0.000 A 
ATOM      9  N   UNL     1       7.857   4.447  17.175  0.00  0.00    +0.000 NA
ATOM     10  N   UNL     1       7.007   4.422  18.263  0.00  0.00    +0.000 NA
ATOM     11  C   UNL     1       5.848   4.886  17.839  0.00  0.00    +0.000 A 
ATOM     12  O   UNL     1       5.874   5.228  16.510  0.00  0.00    +0.000 OA
ATOM     13  H   UNL     1       8.504   5.204  14.714  0.00  0.00    +0.000 HD
ATOM     14  H   UNL     1       6.942   5.793  14.365  0.00  0.00    +0.000 HD
ENDBRANCH   1  11
BRANCH   5  15
ATOM     15  C   UNL     1       2.043   7.867  19.184  0.00  0.00    +0.000 A 
ATOM     16  N   UNL     1       1.287   8.306  20.171  0.00  0.00    +0.000 NA
ATOM     17  C   UNL     1       0.767   9.552  19.870  0.00  0.00    +0.000 A 
ATOM     18  C   UNL     1       1.131  10.046  18.634  0.00  0.00    +0.000 A 
ATOM     19  S   UNL     1       2.136   8.920  17.825  0.00  0.00    +0.000 S 
BRANCH  17  20
ATOM     20  C   UNL     1      -0.063  10.269  20.829  0.00  0.00    +0.000 A 
ATOM     21  C   UNL     1      -0.196   9.768  22.135  0.00  0.00    +0.000 A 
ATOM     22  C   UNL     1      -0.971  10.445  23.081  0.00  0.00    +0.000 A 
ATOM     23  C   UNL     1      -1.623  11.623  22.725  0.00  0.00    +0.000 A 
ATOM     24 CL   UNL     1      -2.568  12.467  23.889  0.00  0.00    +0.000 Cl
ATOM     25  C   UNL     1      -1.514  12.124  21.429  0.00  0.00    +0.000 A 
ATOM     26  C   UNL     1      -0.738  11.448  20.483  0.00  0.00    +0.000 A 
ENDBRANCH  17  20
ENDBRANCH   5  15
TORSDOF 3
ENDMDL
MODEL 2
REMARK VINA RESULT:      -8.4      0.502      1.102
REMARK  Name = 
REMARK  3 active torsions:
REMARK  status: ('A' for Active; 'I' for Inactive)
REMARK    1  A    between atoms: C_5  and  C_6
REMARK    2  A    between atoms: C_10  and  C_11
REMARK    3  A    between atoms: C_13  and  C_14
REMARK                            x       y       z     vdW  Elec       q    Type
REMARK                         _______ _______ _______ _____ _____    ______ ____
ROOT
ATOM      1  C   UNL     1       4.391   5.140  19.004  0.00  0.00    +0.000 A 
ATOM      2  C   UNL     1       3.777   4.161  19.799  0.00  0.00    +0.000 A 
ATOM      3  C   UNL     1       2.557   4.413  20.426  0.00  0.00    +0.000 A 
ATOM      4  C   UNL     1       1.940   5.653  20.270  0.00  0.00    +0.000 A 
ATOM      5  C   UNL     1       2.519   6.651  19.471  0.00  0.00    +0.000 A 
ATOM      6  C   UNL     1       3.742   6.376  18.835  0.00  0.00    +0.000 A 
ENDROOT
BRANCH   1  11
ATOM      7  N   UNL     1       7.537   4.646  15.584  0.00  0.00    +0.000 N 
ATOM      8  C   UNL     1       7.113   4.665  16.850  0.00  0.00    +0.000 A 
ATOM      9  N   UNL     1       7.777   4.499  17.970  0.00  0.00    +0.000 NA
ATOM     10  N   UNL     1       6.857   4.633  18.990  0.00  0.00    +0.000 NA
ATOM     11  C   UNL     1       5.696   4.874  18.412  0.00  0.00    +0.000 A 
ATOM     12  O   UNL     1       5.788   4.912  17.044  0.00  0.00    +0.000 OA
ATOM     13  H   UNL     1       8.533   4.752  15.437  0.00  0.00    +0.000 HD
ATOM     14  H   UNL     1       6.956   5.089  14.884  0.00  0.00    +0.000 HD
ENDBRANCH   1  11
BRANCH   5  15
ATOM     15  C   UNL     1       1.868   7.966  19.394  0.00  0.00    +0.000 A 
ATOM     16  N   UNL     1       1.149   8.480  20.372  0.00  0.00    +0.000 NA
ATOM     17  C   UNL     1       0.674   9.731  20.022  0.00  0.00    +0.000 A 
ATOM     18  C   UNL     1       1.034  10.153  18.758  0.00  0.00    +0.000 A 
ATOM     19  S   UNL     1       1.978   8.950  17.985  0.00  0.00    +0.000 S 
BRANCH  17  20
ATOM     20  C   UNL     1      -0.109  10.525  20.960  0.00  0.00    +0.000 A 
ATOM     21  C   UNL     1      -0.589  11.785  20.564  0.00  0.00    +0.000 A 
ATOM     22  C   UNL     1      -1.359  12.559  21.436  0.00  0.00    +0.000 A 
ATOM     23  C   UNL     1      -1.648  12.081  22.712  0.00  0.00    +0.000 A 
ATOM     24 CL   UNL     1      -2.605  13.024  23.786  0.00  0.00    +0.000 Cl
ATOM     25  C   UNL     1      -1.166  10.840  23.126  0.00  0.00    +0.000 A 
ATOM     26  C   UNL     1      -0.397  10.065  22.252  0.00  0.00    +0.000 A 
ENDBRANCH  17  20
ENDBRANCH   5  15
TORSDOF 3
ENDMDL
MODEL 3
REMARK VINA RESULT:      -8.3      0.999      1.096
REMARK  Name = 
REMARK  3 active torsions:
REMARK  status: ('A' for Active; 'I' for Inactive)
REMARK    1  A    between atoms: C_5  and  C_6
REMARK    2  A    between atoms: C_10  and  C_11
REMARK    3  A    between atoms: C_13  and  C_14
REMARK                            x       y       z     vdW  Elec       q    Type
REMARK                         _______ _______ _______ _____ _____    ______ ____
ROOT
ATOM      1  C   UNL     1       4.295   5.369  19.388  0.00  0.00    +0.000 A 
ATOM      2  C   UNL     1       3.583   4.393  20.102  0.00  0.00    +0.000 A 
ATOM      3  C   UNL     1       2.299   4.652  20.579  0.00  0.00    +0.000 A 
ATOM      4  C   UNL     1       1.714   5.897  20.353  0.00  0.00    +0.000 A 
ATOM      5  C   UNL     1       2.391   6.892  19.632  0.00  0.00    +0.000 A 
ATOM      6  C   UNL     1       3.679   6.609  19.146  0.00  0.00    +0.000 A 
ENDROOT
BRANCH   1  11
ATOM      7  N   UNL     1       7.743   4.446  16.373  0.00  0.00    +0.000 N 
ATOM      8  C   UNL     1       7.214   4.687  17.574  0.00  0.00    +0.000 A 
ATOM      9  N   UNL     1       7.791   4.806  18.747  0.00  0.00    +0.000 NA
ATOM     10  N   UNL     1       6.781   5.069  19.652  0.00  0.00    +0.000 NA
ATOM     11  C   UNL     1       5.660   5.094  18.957  0.00  0.00    +0.000 A 
ATOM     12  O   UNL     1       5.864   4.862  17.621  0.00  0.00    +0.000 OA
ATOM     13  H   UNL     1       8.739   4.600  16.276  0.00  0.00    +0.000 HD
ATOM     14  H   UNL     1       7.196   4.691  15.557  0.00  0.00    +0.000 HD
ENDBRANCH   1  11
BRANCH   5  15
ATOM     15  C   UNL     1       1.764   8.212  19.481  0.00  0.00    +0.000 A 
ATOM     16  N   UNL     1       1.209   8.872  20.478  0.00  0.00    +0.000 NA
ATOM     17  C   UNL     1       0.713  10.088  20.042  0.00  0.00    +0.000 A 
ATOM     18  C   UNL     1       0.889  10.333  18.695  0.00  0.00    +0.000 A 
ATOM     19  S   UNL     1       1.682   9.007  17.956  0.00  0.00    +0.000 S 
BRANCH  17  20
ATOM     20  C   UNL     1       0.096  11.023  20.973  0.00  0.00    +0.000 A 
ATOM     21  C   UNL     1      -0.631  10.526  22.068  0.00  0.00    +0.000 A 
ATOM     22  C   UNL     1      -1.218  11.400  22.988  0.00  0.00    +0.000 A 
ATOM     23  C   UNL     1      -1.086  12.776  22.814  0.00  0.00    +0.000 A 
ATOM     24 CL   UNL     1      -1.796  13.855  23.951  0.00  0.00    +0.000 Cl
ATOM     25  C   UNL     1      -0.382  13.284  21.725  0.00  0.00    +0.000 A 
ATOM     26  C   UNL     1       0.206  12.410  20.806  0.00  0.00    +0.000 A 
ENDBRANCH  17  20
ENDBRANCH   5  15
TORSDOF 3
ENDMDL
MODEL 4
REMARK VINA RESULT:      -8.2      2.187      3.630
REMARK  Name = 
REMARK  3 active torsions:
REMARK  status: ('A' for Active; 'I' for Inactive)
REMARK    1  A    between atoms: C_5  and  C_6
REMARK    2  A    between atoms: C_10  and  C_11
REMARK    3  A    between atoms: C_13  and  C_14
REMARK                            x       y       z     vdW  Elec       q    Type
REMARK                         _______ _______ _______ _____ _____    ______ ____
ROOT
ATOM      1  C   UNL     1       6.609   4.806  16.578  0.00  0.00    +0.000 A 
ATOM      2  C   UNL     1       7.753   4.824  17.391  0.00  0.00    +0.000 A 
ATOM      3  C   UNL     1       7.649   5.059  18.762  0.00  0.00    +0.000 A 
ATOM      4  C   UNL     1       6.399   5.286  19.334  0.00  0.00    +0.000 A 
ATOM      5  C   UNL     1       5.234   5.262  18.553  0.00  0.00    +0.000 A 
ATOM      6  C   UNL     1       5.354   5.010  17.176  0.00  0.00    +0.000 A 
ENDROOT
BRANCH   1  11
ATOM      7  N   UNL     1       5.790   2.905  12.389  0.00  0.00    +0.000 N 
ATOM      8  C   UNL     1       6.360   3.757  13.245  0.00  0.00    +0.000 A 
ATOM      9  N   UNL     1       7.197   4.744  13.028  0.00  0.00    +0.000 NA
ATOM     10  N   UNL     1       7.457   5.309  14.261  0.00  0.00    +0.000 NA
ATOM     11  C   UNL     1       6.752   4.623  15.139  0.00  0.00    +0.000 A 
ATOM     12  O   UNL     1       6.023   3.617  14.556  0.00  0.00    +0.000 OA
ATOM     13  H   UNL     1       5.799   3.170  11.411  0.00  0.00    +0.000 HD
ATOM     14  H   UNL     1       4.954   2.421  12.689  0.00  0.00    +0.000 HD
ENDBRANCH   1  11
BRANCH   5  15
ATOM     15  C   UNL     1       3.946   5.577  19.188  0.00  0.00    +0.000 A 
ATOM     16  N   UNL     1       3.467   6.800  19.293  0.00  0.00    +0.000 NA
ATOM     17  C   UNL     1       2.235   6.789  19.922  0.00  0.00    +0.000 A 
ATOM     18  C   UNL     1       1.793   5.538  20.304  0.00  0.00    +0.000 A 
ATOM     19  S   UNL     1       2.952   4.351  19.877  0.00  0.00    +0.000 S 
BRANCH  17  20
ATOM     20  C   UNL     1       1.479   8.020  20.112  0.00  0.00    +0.000 A 
ATOM     21  C   UNL     1       1.446   8.974  19.081  0.00  0.00    +0.000 A 
ATOM     22  C   UNL     1       0.714  10.155  19.228  0.00  0.00    +0.000 A 
ATOM     23  C   UNL     1       0.016  10.393  20.410  0.00  0.00    +0.000 A 
ATOM     24 CL   UNL     1      -0.897  11.840  20.591  0.00  0.00    +0.000 Cl
ATOM     25  C   UNL     1       0.052   9.464  21.448  0.00  0.00    +0.000 A 
ATOM     26  C   UNL     1       0.784   8.282  21.300  0.00  0.00    +0.000 A 
ENDBRANCH  17  20
ENDBRANCH   5  15
TORSDOF 3
ENDMDL
MODEL 5
REMARK VINA RESULT:      -8.2      0.967      1.447
REMARK  Name = 
REMARK  3 active torsions:
REMARK  status: ('A' for Active; 'I' for Inactive)
REMARK    1  A    between atoms: C_5  and  C_6
REMARK    2  A    between atoms: C_10  and  C_11
REMARK    3  A    between atoms: C_13  and  C_14
REMARK                            x       y       z     vdW  Elec       q    Type
REMARK                         _______ _______ _______ _____ _____    ______ ____
ROOT
ATOM      1  C   UNL     1       4.432   5.681  17.772  0.00  0.00    +0.000 A 
ATOM      2  C   UNL     1       4.250   4.734  18.791  0.00  0.00    +0.000 A 
ATOM      3  C   UNL     1       3.338   4.961  19.822  0.00  0.00    +0.000 A 
ATOM      4  C   UNL     1       2.601   6.144  19.848  0.00  0.00    +0.000 A 
ATOM      5  C   UNL     1       2.748   7.107  18.838  0.00  0.00    +0.000 A 
ATOM      6  C   UNL     1       3.661   6.857  17.799  0.00  0.00    +0.000 A 
ENDROOT
BRANCH   1  11
ATOM      7  N   UNL     1       6.395   3.598  14.079  0.00  0.00    +0.000 N 
ATOM      8  C   UNL     1       6.308   4.499  15.060  0.00  0.00    +0.000 A 
ATOM      9  N   UNL     1       7.097   5.503  15.361  0.00  0.00    +0.000 NA
ATOM     10  N   UNL     1       6.534   6.123  16.459  0.00  0.00    +0.000 NA
ATOM     11  C   UNL     1       5.438   5.448  16.743  0.00  0.00    +0.000 A 
ATOM     12  O   UNL     1       5.230   4.398  15.885  0.00  0.00    +0.000 OA
ATOM     13  H   UNL     1       7.009   3.825  13.306  0.00  0.00    +0.000 HD
ATOM     14  H   UNL     1       5.554   3.099  13.819  0.00  0.00    +0.000 HD
ENDBRANCH   1  11
BRANCH   5  15
ATOM     15  C   UNL     1       2.004   8.369  18.946  0.00  0.00    +0.000 A 
ATOM     16  N   UNL     1       1.236   8.675  19.973  0.00  0.00    +0.000 NA
ATOM     17  C   UNL     1       0.674   9.929  19.806  0.00  0.00    +0.000 A 
ATOM     18  C   UNL     1       1.019  10.563  18.629  0.00  0.00    +0.000 A 
ATOM     19  S   UNL     1       2.059   9.563  17.706  0.00  0.00    +0.000 S 
BRANCH  17  20
ATOM     20  C   UNL     1      -0.177  10.511  20.834  0.00  0.00    +0.000 A 
ATOM     21  C   UNL     1      -0.971  11.628  20.521  0.00  0.00    +0.000 A 
ATOM     22  C   UNL     1      -1.811  12.195  21.483  0.00  0.00    +0.000 A 
ATOM     23  C   UNL     1      -1.858  11.654  22.765  0.00  0.00    +0.000 A 
ATOM     24 CL   UNL     1      -2.900  12.341  23.949  0.00  0.00    +0.000 Cl
ATOM     25  C   UNL     1      -1.065  10.557  23.096  0.00  0.00    +0.000 A 
ATOM     26  C   UNL     1      -0.226   9.988  22.134  0.00  0.00    +0.000 A 
ENDBRANCH  17  20
ENDBRANCH   5  15
TORSDOF 3
ENDMDL
MODEL 6
REMARK VINA RESULT:      -8.1      1.044      1.124
REMARK  Name = 
REMARK  3 active torsions:
REMARK  status: ('A' for Active; 'I' for Inactive)
REMARK    1  A    between atoms: C_5  and  C_6
REMARK    2  A    between atoms: C_10  and  C_11
REMARK    3  A    between atoms: C_13  and  C_14
REMARK                            x       y       z     vdW  Elec       q    Type
REMARK                         _______ _______ _______ _____ _____    ______ ____
ROOT
ATOM      1  C   UNL     1       4.279   5.812  17.799  0.00  0.00    +0.000 A 
ATOM      2  C   UNL     1       4.040   4.848  18.790  0.00  0.00    +0.000 A 
ATOM      3  C   UNL     1       3.105   5.078  19.799  0.00  0.00    +0.000 A 
ATOM      4  C   UNL     1       2.401   6.281  19.831  0.00  0.00    +0.000 A 
ATOM      5  C   UNL     1       2.605   7.261  18.849  0.00  0.00    +0.000 A 
ATOM      6  C   UNL     1       3.541   7.008  17.831  0.00  0.00    +0.000 A 
ENDROOT
BRANCH   1  11
ATOM      7  N   UNL     1       6.364   3.656  14.216  0.00  0.00    +0.000 N 
ATOM      8  C   UNL     1       6.234   4.590  15.162  0.00  0.00    +0.000 A 
ATOM      9  N   UNL     1       6.987   5.629  15.437  0.00  0.00    +0.000 NA
ATOM     10  N   UNL     1       6.387   6.271  16.503  0.00  0.00    +0.000 NA
ATOM     11  C   UNL     1       5.308   5.573  16.795  0.00  0.00    +0.000 A 
ATOM     12  O   UNL     1       5.146   4.486  15.973  0.00  0.00    +0.000 OA
ATOM     13  H   UNL     1       6.983   3.874  13.445  0.00  0.00    +0.000 HD
ATOM     14  H   UNL     1       5.543   3.122  13.963  0.00  0.00    +0.000 HD
ENDBRANCH   1  11
BRANCH   5  15
ATOM     15  C   UNL     1       1.894   8.541  18.964  0.00  0.00    +0.000 A 
ATOM     16  N   UNL     1       1.078   8.833  19.958  0.00  0.00    +0.000 NA
ATOM     17  C   UNL     1       0.565  10.110  19.809  0.00  0.00    +0.000 A 
ATOM     18  C   UNL     1       0.995  10.777  18.680  0.00  0.00    +0.000 A 
ATOM     19  S   UNL     1       2.056   9.779  17.778  0.00  0.00    +0.000 S 
BRANCH  17  20
ATOM     20  C   UNL     1      -0.326  10.680  20.810  0.00  0.00    +0.000 A 
ATOM     21  C   UNL     1      -0.297  10.181  22.123  0.00  0.00    +0.000 A 
ATOM     22  C   UNL     1      -1.127  10.722  23.109  0.00  0.00    +0.000 A 
ATOM     23  C   UNL     1      -1.997  11.762  22.785  0.00  0.00    +0.000 A 
ATOM     24 CL   UNL     1      -3.012  12.440  23.998  0.00  0.00    +0.000 Cl
ATOM     25  C   UNL     1      -2.049  12.257  21.484  0.00  0.00    +0.000 A 
ATOM     26  C   UNL     1      -1.217  11.716  20.499  0.00  0.00    +0.000 A 
ENDBRANCH  17  20
ENDBRANCH   5  15
TORSDOF 3
ENDMDL
MODEL 7
REMARK VINA RESULT:      -8.1      4.961      9.070
REMARK  Name = 
REMARK  3 active torsions:
REMARK  status: ('A' for Active; 'I' for Inactive)
REMARK    1  A    between atoms: C_5  and  C_6
REMARK    2  A    between atoms: C_10  and  C_11
REMARK    3  A    between atoms: C_13  and  C_14
REMARK                            x       y       z     vdW  Elec       q    Type
REMARK                         _______ _______ _______ _____ _____    ______ ____
ROOT
ATOM      1  C   UNL     1      -1.270  10.985  18.070  0.00  0.00    +0.000 A 
ATOM      2  C   UNL     1      -1.019  12.043  18.956  0.00  0.00    +0.000 A 
ATOM      3  C   UNL     1       0.034  11.975  19.869  0.00  0.00    +0.000 A 
ATOM      4  C   UNL     1       0.844  10.841  19.910  0.00  0.00    +0.000 A 
ATOM      5  C   UNL     1       0.629   9.770  19.030  0.00  0.00    +0.000 A 
ATOM      6  C   UNL     1      -0.427   9.860  18.107  0.00  0.00    +0.000 A 
ENDROOT
BRANCH   1  11
ATOM      7  N   UNL     1      -3.730  10.189  14.178  0.00  0.00    +0.000 N 
ATOM      8  C   UNL     1      -3.521  10.674  15.404  0.00  0.00    +0.000 A 
ATOM      9  N   UNL     1      -4.329  11.327  16.206  0.00  0.00    +0.000 NA
ATOM     10  N   UNL     1      -3.611  11.579  17.359  0.00  0.00    +0.000 NA
ATOM     11  C   UNL     1      -2.415  11.054  17.172  0.00  0.00    +0.000 A 
ATOM     12  O   UNL     1      -2.291  10.456  15.943  0.00  0.00    +0.000 OA
ATOM     13  H   UNL     1      -4.695  10.088  13.887  0.00  0.00    +0.000 HD
ATOM     14  H   UNL     1      -3.109   9.463  13.845  0.00  0.00    +0.000 HD
ENDBRANCH   1  11
BRANCH   5  15
ATOM     15  C   UNL     1       1.462   8.567  19.159  0.00  0.00    +0.000 A 
ATOM     16  N   UNL     1       2.118   8.025  18.152  0.00  0.00    +0.000 NA
ATOM     17  C   UNL     1       2.827   6.913  18.572  0.00  0.00    +0.000 A 
ATOM     18  C   UNL     1       2.687   6.613  19.912  0.00  0.00    +0.000 A 
ATOM     19  S   UNL     1       1.636   7.741  20.659  0.00  0.00    +0.000 S 
BRANCH  17  20
ATOM     20  C   UNL     1       3.672   6.170  17.648  0.00  0.00    +0.000 A 
ATOM     21  C   UNL     1       3.565   4.770  17.589  0.00  0.00    +0.000 A 
ATOM     22  C   UNL     1       4.349   4.033  16.698  0.00  0.00    +0.000 A 
ATOM     23  C   UNL     1       5.252   4.691  15.865  0.00  0.00    +0.000 A 
ATOM     24 CL   UNL     1       6.212   3.789  14.758  0.00  0.00    +0.000 Cl
ATOM     25  C   UNL     1       5.382   6.077  15.923  0.00  0.00    +0.000 A 
ATOM     26  C   UNL     1       4.596   6.814  16.813  0.00  0.00    +0.000 A 
ENDBRANCH  17  20
ENDBRANCH   5  15
TORSDOF 3
ENDMDL
MODEL 8
REMARK VINA RESULT:      -8.0      5.148      9.357
REMARK  Name = 
REMARK  3 active torsions:
REMARK  status: ('A' for Active; 'I' for Inactive)
REMARK    1  A    between atoms: C_5  and  C_6
REMARK    2  A    between atoms: C_10  and  C_11
REMARK    3  A    between atoms: C_13  and  C_14
REMARK                            x       y       z     vdW  Elec       q    Type
REMARK                         _______ _______ _______ _____ _____    ______ ____
ROOT
ATOM      1  C   UNL     1      -1.330  11.192  17.927  0.00  0.00    +0.000 A 
ATOM      2  C   UNL     1      -0.946  12.339  18.638  0.00  0.00    +0.000 A 
ATOM      3  C   UNL     1       0.194  12.332  19.442  0.00  0.00    +0.000 A 
ATOM      4  C   UNL     1       0.960  11.173  19.549  0.00  0.00    +0.000 A 
ATOM      5  C   UNL     1       0.612  10.012  18.842  0.00  0.00    +0.000 A 
ATOM      6  C   UNL     1      -0.531  10.040  18.026  0.00  0.00    +0.000 A 
ENDROOT
BRANCH   1  11
ATOM      7  N   UNL     1      -5.894  11.777  17.115  0.00  0.00    +0.000 N 
ATOM      8  C   UNL     1      -4.631  11.489  16.792  0.00  0.00    +0.000 A 
ATOM      9  N   UNL     1      -4.101  11.179  15.632  0.00  0.00    +0.000 NA
ATOM     10  N   UNL     1      -2.752  10.993  15.860  0.00  0.00    +0.000 NA
ATOM     11  C   UNL     1      -2.560  11.207  17.147  0.00  0.00    +0.000 A 
ATOM     12  O   UNL     1      -3.720  11.534  17.803  0.00  0.00    +0.000 OA
ATOM     13  H   UNL     1      -6.512  12.028  16.352  0.00  0.00    +0.000 HD
ATOM     14  H   UNL     1      -6.059  12.282  17.976  0.00  0.00    +0.000 HD
ENDBRANCH   1  11
BRANCH   5  15
ATOM     15  C   UNL     1       1.408   8.793  19.043  0.00  0.00    +0.000 A 
ATOM     16  N   UNL     1       2.083   8.198  18.079  0.00  0.00    +0.000 NA
ATOM     17  C   UNL     1       2.746   7.085  18.563  0.00  0.00    +0.000 A 
ATOM     18  C   UNL     1       2.554   6.838  19.907  0.00  0.00    +0.000 A 
ATOM     19  S   UNL     1       1.509   8.018  20.577  0.00  0.00    +0.000 S 
BRANCH  17  20
ATOM     20  C   UNL     1       3.602   6.287  17.695  0.00  0.00    +0.000 A 
ATOM     21  C   UNL     1       3.462   4.889  17.687  0.00  0.00    +0.000 A 
ATOM     22  C   UNL     1       4.256   4.099  16.850  0.00  0.00    +0.000 A 
ATOM     23  C   UNL     1       5.201   4.703  16.023  0.00  0.00    +0.000 A 
ATOM     24 CL   UNL     1       6.173   3.737  14.983  0.00  0.00    +0.000 Cl
ATOM     25  C   UNL     1       5.363   6.087  16.032  0.00  0.00    +0.000 A 
ATOM     26  C   UNL     1       4.567   6.876  16.867  0.00  0.00    +0.000 A 
ENDBRANCH  17  20
ENDBRANCH   5  15
TORSDOF 3
ENDMDL
MODEL 9
REMARK VINA RESULT:      -8.0      5.124      9.354
REMARK  Name = 
REMARK  3 active torsions:
REMARK  status: ('A' for Active; 'I' for Inactive)
REMARK    1  A    between atoms: C_5  and  C_6
REMARK    2  A    between atoms: C_10  and  C_11
REMARK    3  A    between atoms: C_13  and  C_14
REMARK                            x       y       z     vdW  Elec       q    Type
REMARK                         _______ _______ _______ _____ _____    ______ ____
ROOT
ATOM      1  C   UNL     1      -1.340  11.157  18.073  0.00  0.00    +0.000 A 
ATOM      2  C   UNL     1      -1.016  12.259  18.879  0.00  0.00    +0.000 A 
ATOM      3  C   UNL     1       0.075  12.213  19.746  0.00  0.00    +0.000 A 
ATOM      4  C   UNL     1       0.851  11.058  19.823  0.00  0.00    +0.000 A 
ATOM      5  C   UNL     1       0.564   9.942  19.022  0.00  0.00    +0.000 A 
ATOM      6  C   UNL     1      -0.530  10.010  18.143  0.00  0.00    +0.000 A 
ENDROOT
BRANCH   1  11
ATOM      7  N   UNL     1      -5.817  11.940  16.988  0.00  0.00    +0.000 N 
ATOM      8  C   UNL     1      -4.554  11.580  16.745  0.00  0.00    +0.000 A 
ATOM      9  N   UNL     1      -3.978  11.210  15.626  0.00  0.00    +0.000 NA
ATOM     10  N   UNL     1      -2.654  10.965  15.935  0.00  0.00    +0.000 NA
ATOM     11  C   UNL     1      -2.523  11.208  17.224  0.00  0.00    +0.000 A 
ATOM     12  O   UNL     1      -3.699  11.611  17.805  0.00  0.00    +0.000 OA
ATOM     13  H   UNL     1      -6.378  12.197  16.184  0.00  0.00    +0.000 HD
ATOM     14  H   UNL     1      -6.003  12.478  17.824  0.00  0.00    +0.000 HD
ENDBRANCH   1  11
BRANCH   5  15
ATOM     15  C   UNL     1       1.367   8.723  19.189  0.00  0.00    +0.000 A 
ATOM     16  N   UNL     1       2.020   8.141  18.203  0.00  0.00    +0.000 NA
ATOM     17  C   UNL     1       2.696   7.023  18.658  0.00  0.00    +0.000 A 
ATOM     18  C   UNL     1       2.535   6.759  20.003  0.00  0.00    +0.000 A 
ATOM     19  S   UNL     1       1.503   7.928  20.711  0.00  0.00    +0.000 S 
BRANCH  17  20
ATOM     20  C   UNL     1       3.534   6.237  17.761  0.00  0.00    +0.000 A 
ATOM     21  C   UNL     1       4.467   6.891  16.940  0.00  0.00    +0.000 A 
ATOM     22  C   UNL     1       5.296   6.161  16.084  0.00  0.00    +0.000 A 
ATOM     23  C   UNL     1       5.192   4.773  16.039  0.00  0.00    +0.000 A 
ATOM     24 CL   UNL     1       6.219   3.869  14.997  0.00  0.00    +0.000 Cl
ATOM     25  C   UNL     1       4.260   4.110  16.836  0.00  0.00    +0.000 A 
ATOM     26  C   UNL     1       3.432   4.841  17.693  0.00  0.00    +0.000 A 
ENDBRANCH  17  20
ENDBRANCH   5  15
TORSDOF 3
ENDMDL
