MODEL 1
REMARK VINA RESULT:      -8.7      0.000      0.000
REMARK  Name = 
REMARK  4 active torsions:
REMARK  status: ('A' for Active; 'I' for Inactive)
REMARK    1  A    between atoms: C_1  and  C_2
REMARK    2  A    between atoms: C_4  and  C_5
REMARK    3  A    between atoms: C_9  and  N_10
REMARK    4  A    between atoms: C_27  and  C_28
REMARK                            x       y       z     vdW  Elec       q    Type
REMARK                         _______ _______ _______ _____ _____    ______ ____
ROOT
ATOM      1  N   UNL     1       1.793   8.028  19.675  0.00  0.00    +0.000 N 
ATOM      2  C   UNL     1       2.559   7.615  18.602  0.00  0.00    +0.000 C 
ATOM      3  O   UNL     1       2.639   8.257  17.559  0.00  0.00    +0.000 OA
ATOM      4  N   UNL     1       3.348   6.458  18.719  0.00  0.00    +0.000 N 
ATOM      5  C   UNL     1       3.432   5.580  19.892  0.00  0.00    +0.000 C 
ATOM      6  C   UNL     1       3.706   4.124  19.512  0.00  0.00    +0.000 C 
ATOM      7  O   UNL     1       5.064   3.748  19.296  0.00  0.00    +0.000 OA
ATOM      8  C   UNL     1       5.936   4.563  18.515  0.00  0.00    +0.000 C 
ATOM      9  C   UNL     1       5.328   5.311  17.317  0.00  0.00    +0.000 C 
ATOM     10  C   UNL     1       4.644   4.325  16.333  0.00  0.00    +0.000 C 
ATOM     11  C   UNL     1       5.677   3.502  15.526  0.00  0.00    +0.000 C 
ATOM     12  O   UNL     1       6.631   4.315  14.847  0.00  0.00    +0.000 OA
ATOM     13  C   UNL     1       7.368   5.152  15.728  0.00  0.00    +0.000 C 
ATOM     14  C   UNL     1       6.413   6.059  16.459  0.00  0.00    +0.000 C 
ATOM     15  C   UNL     1       4.513   6.517  17.845  0.00  0.00    +0.000 C 
ATOM     16  H   UNL     1       2.008   7.663  20.588  0.00  0.00    +0.000 HD
ENDROOT
BRANCH   1  21
ATOM     17  C   UNL     1      -0.902  10.517  18.737  0.00  0.00    +0.000 A 
ATOM     18  C   UNL     1      -0.616  11.546  19.650  0.00  0.00    +0.000 A 
ATOM     19  C   UNL     1       0.450  11.447  20.521  0.00  0.00    +0.000 A 
ATOM     20  C   UNL     1       1.250  10.313  20.487  0.00  0.00    +0.000 A 
ATOM     21  C   UNL     1       0.986   9.226  19.635  0.00  0.00    +0.000 A 
ATOM     22  C   UNL     1      -0.097   9.348  18.739  0.00  0.00    +0.000 A 
BRANCH  17  26
ATOM     23  C   UNL     1      -5.226  12.015  16.945  0.00  0.00    +0.000 C 
ATOM     24  C   UNL     1      -3.898  11.376  17.000  0.00  0.00    +0.000 A 
ATOM     25  N   UNL     1      -3.139  11.443  18.135  0.00  0.00    +0.000 NA
ATOM     26  C   UNL     1      -2.034  10.773  17.844  0.00  0.00    +0.000 A 
ATOM     27  O   UNL     1      -2.012  10.266  16.572  0.00  0.00    +0.000 OA
ATOM     28  C   UNL     1      -3.221  10.651  16.044  0.00  0.00    +0.000 A 
ATOM     29  C   UNL     1      -3.540  10.242  14.666  0.00  0.00    +0.000 C 
ENDBRANCH  17  26
ENDBRANCH   1  21
TORSDOF 2
ENDMDL
MODEL 2
REMARK VINA RESULT:      -8.5      0.686      1.183
REMARK  Name = 
REMARK  4 active torsions:
REMARK  status: ('A' for Active; 'I' for Inactive)
REMARK    1  A    between atoms: C_1  and  C_2
REMARK    2  A    between atoms: C_4  and  C_5
REMARK    3  A    between atoms: C_9  and  N_10
REMARK    4  A    between atoms: C_27  and  C_28
REMARK                            x       y       z     vdW  Elec       q    Type
REMARK                         _______ _______ _______ _____ _____    ______ ____
ROOT
ATOM      1  N   UNL     1       1.824   8.172  19.383  0.00  0.00    +0.000 N 
ATOM      2  C   UNL     1       2.576   7.690  18.330  0.00  0.00    +0.000 C 
ATOM      3  O   UNL     1       2.620   8.246  17.236  0.00  0.00    +0.000 OA
ATOM      4  N   UNL     1       3.394   6.564  18.522  0.00  0.00    +0.000 N 
ATOM      5  C   UNL     1       3.523   5.786  19.760  0.00  0.00    +0.000 C 
ATOM      6  C   UNL     1       3.823   4.309  19.493  0.00  0.00    +0.000 C 
ATOM      7  O   UNL     1       5.184   3.946  19.278  0.00  0.00    +0.000 OA
ATOM      8  C   UNL     1       6.021   4.713  18.413  0.00  0.00    +0.000 C 
ATOM      9  C   UNL     1       5.372   5.348  17.173  0.00  0.00    +0.000 C 
ATOM     10  C   UNL     1       4.690   4.271  16.288  0.00  0.00    +0.000 C 
ATOM     11  C   UNL     1       5.725   3.407  15.527  0.00  0.00    +0.000 C 
ATOM     12  O   UNL     1       6.645   4.183  14.763  0.00  0.00    +0.000 OA
ATOM     13  C   UNL     1       7.381   5.104  15.557  0.00  0.00    +0.000 C 
ATOM     14  C   UNL     1       6.421   6.047  16.233  0.00  0.00    +0.000 C 
ATOM     15  C   UNL     1       4.540   6.576  17.620  0.00  0.00    +0.000 C 
ATOM     16  H   UNL     1       2.066   7.887  20.317  0.00  0.00    +0.000 HD
ENDROOT
BRANCH   1  21
ATOM     17  C   UNL     1      -0.948  10.518  18.308  0.00  0.00    +0.000 A 
ATOM     18  C   UNL     1      -0.666  11.624  19.128  0.00  0.00    +0.000 A 
ATOM     19  C   UNL     1       0.421  11.620  19.978  0.00  0.00    +0.000 A 
ATOM     20  C   UNL     1       1.246  10.504  20.018  0.00  0.00    +0.000 A 
ATOM     21  C   UNL     1       0.989   9.345  19.264  0.00  0.00    +0.000 A 
ATOM     22  C   UNL     1      -0.116   9.371  18.386  0.00  0.00    +0.000 A 
BRANCH  17  26
ATOM     23  C   UNL     1      -3.956  10.319  14.427  0.00  0.00    +0.000 C 
ATOM     24  C   UNL     1      -3.459  10.645  15.777  0.00  0.00    +0.000 A 
ATOM     25  N   UNL     1      -2.232  10.208  16.193  0.00  0.00    +0.000 NA
ATOM     26  C   UNL     1      -2.105  10.676  17.424  0.00  0.00    +0.000 A 
ATOM     27  O   UNL     1      -3.185  11.398  17.858  0.00  0.00    +0.000 OA
ATOM     28  C   UNL     1      -4.043  11.381  16.784  0.00  0.00    +0.000 A 
ATOM     29  C   UNL     1      -5.323  12.100  16.906  0.00  0.00    +0.000 C 
ENDBRANCH  17  26
ENDBRANCH   1  21
TORSDOF 2
ENDMDL
MODEL 3
REMARK VINA RESULT:      -8.4      2.909      3.943
REMARK  Name = 
REMARK  4 active torsions:
REMARK  status: ('A' for Active; 'I' for Inactive)
REMARK    1  A    between atoms: C_1  and  C_2
REMARK    2  A    between atoms: C_4  and  C_5
REMARK    3  A    between atoms: C_9  and  N_10
REMARK    4  A    between atoms: C_27  and  C_28
REMARK                            x       y       z     vdW  Elec       q    Type
REMARK                         _______ _______ _______ _____ _____    ______ ____
ROOT
ATOM      1  N   UNL     1       1.113   9.084  19.188  0.00  0.00    +0.000 N 
ATOM      2  C   UNL     1       2.010   8.502  18.314  0.00  0.00    +0.000 C 
ATOM      3  O   UNL     1       2.323   9.017  17.244  0.00  0.00    +0.000 OA
ATOM      4  N   UNL     1       2.661   7.312  18.681  0.00  0.00    +0.000 N 
ATOM      5  C   UNL     1       2.466   6.566  19.929  0.00  0.00    +0.000 C 
ATOM      6  C   UNL     1       2.670   5.060  19.747  0.00  0.00    +0.000 C 
ATOM      7  O   UNL     1       4.005   4.567  19.814  0.00  0.00    +0.000 OA
ATOM      8  C   UNL     1       5.067   5.227  19.125  0.00  0.00    +0.000 C 
ATOM      9  C   UNL     1       4.741   5.878  17.772  0.00  0.00    +0.000 C 
ATOM     10  C   UNL     1       4.148   4.841  16.782  0.00  0.00    +0.000 C 
ATOM     11  C   UNL     1       5.225   3.862  16.255  0.00  0.00    +0.000 C 
ATOM     12  O   UNL     1       6.349   4.526  15.681  0.00  0.00    +0.000 OA
ATOM     13  C   UNL     1       6.998   5.400  16.594  0.00  0.00    +0.000 C 
ATOM     14  C   UNL     1       6.018   6.448  17.053  0.00  0.00    +0.000 C 
ATOM     15  C   UNL     1       3.958   7.191  18.027  0.00  0.00    +0.000 C 
ATOM     16  H   UNL     1       1.137   8.808  20.156  0.00  0.00    +0.000 HD
ENDROOT
BRANCH   1  21
ATOM     17  C   UNL     1       0.447  12.764  18.593  0.00  0.00    +0.000 A 
ATOM     18  C   UNL     1      -0.905  12.712  18.213  0.00  0.00    +0.000 A 
ATOM     19  C   UNL     1      -1.590  11.514  18.189  0.00  0.00    +0.000 A 
ATOM     20  C   UNL     1      -0.930  10.348  18.550  0.00  0.00    +0.000 A 
ATOM     21  C   UNL     1       0.435  10.325  18.889  0.00  0.00    +0.000 A 
ATOM     22  C   UNL     1       1.118  11.559  18.926  0.00  0.00    +0.000 A 
BRANCH  17  26
ATOM     23  C   UNL     1       1.061  17.618  19.059  0.00  0.00    +0.000 C 
ATOM     24  C   UNL     1       1.376  16.204  18.781  0.00  0.00    +0.000 A 
ATOM     25  N   UNL     1       0.431  15.232  18.956  0.00  0.00    +0.000 NA
ATOM     26  C   UNL     1       1.036  14.105  18.616  0.00  0.00    +0.000 A 
ATOM     27  O   UNL     1       2.339  14.270  18.229  0.00  0.00    +0.000 OA
ATOM     28  C   UNL     1       2.541  15.626  18.328  0.00  0.00    +0.000 A 
ATOM     29  C   UNL     1       3.862  16.162  17.956  0.00  0.00    +0.000 C 
ENDBRANCH  17  26
ENDBRANCH   1  21
TORSDOF 2
ENDMDL
MODEL 4
REMARK VINA RESULT:      -8.4      1.611      2.058
REMARK  Name = 
REMARK  4 active torsions:
REMARK  status: ('A' for Active; 'I' for Inactive)
REMARK    1  A    between atoms: C_1  and  C_2
REMARK    2  A    between atoms: C_4  and  C_5
REMARK    3  A    between atoms: C_9  and  N_10
REMARK    4  A    between atoms: C_27  and  C_28
REMARK                            x       y       z     vdW  Elec       q    Type
REMARK                         _______ _______ _______ _____ _____    ______ ____
ROOT
ATOM      1  N   UNL     1       1.344   8.938  19.237  0.00  0.00    +0.000 N 
ATOM      2  C   UNL     1       2.199   8.375  18.310  0.00  0.00    +0.000 C 
ATOM      3  O   UNL     1       2.482   8.923  17.249  0.00  0.00    +0.000 OA
ATOM      4  N   UNL     1       2.844   7.163  18.611  0.00  0.00    +0.000 N 
ATOM      5  C   UNL     1       2.681   6.375  19.839  0.00  0.00    +0.000 C 
ATOM      6  C   UNL     1       2.854   4.874  19.596  0.00  0.00    +0.000 C 
ATOM      7  O   UNL     1       4.183   4.359  19.597  0.00  0.00    +0.000 OA
ATOM      8  C   UNL     1       5.230   5.026  18.893  0.00  0.00    +0.000 C 
ATOM      9  C   UNL     1       4.866   5.731  17.577  0.00  0.00    +0.000 C 
ATOM     10  C   UNL     1       4.222   4.739  16.573  0.00  0.00    +0.000 C 
ATOM     11  C   UNL     1       5.263   3.764  15.973  0.00  0.00    +0.000 C 
ATOM     12  O   UNL     1       6.377   4.431  15.383  0.00  0.00    +0.000 OA
ATOM     13  C   UNL     1       7.072   5.262  16.302  0.00  0.00    +0.000 C 
ATOM     14  C   UNL     1       6.126   6.308  16.833  0.00  0.00    +0.000 C 
ATOM     15  C   UNL     1       4.115   7.045  17.907  0.00  0.00    +0.000 C 
ATOM     16  H   UNL     1       1.398   8.627  20.193  0.00  0.00    +0.000 HD
ENDROOT
BRANCH   1  21
ATOM     17  C   UNL     1      -1.368  11.555  18.872  0.00  0.00    +0.000 A 
ATOM     18  C   UNL     1      -0.581  12.695  18.638  0.00  0.00    +0.000 A 
ATOM     19  C   UNL     1       0.794  12.606  18.563  0.00  0.00    +0.000 A 
ATOM     20  C   UNL     1       1.402  11.368  18.718  0.00  0.00    +0.000 A 
ATOM     21  C   UNL     1       0.676  10.199  19.007  0.00  0.00    +0.000 A 
ATOM     22  C   UNL     1      -0.730  10.303  19.064  0.00  0.00    +0.000 A 
BRANCH  17  26
ATOM     23  C   UNL     1      -6.095  11.818  17.551  0.00  0.00    +0.000 C 
ATOM     24  C   UNL     1      -4.880  11.948  18.378  0.00  0.00    +0.000 A 
ATOM     25  N   UNL     1      -3.669  11.521  17.909  0.00  0.00    +0.000 NA
ATOM     26  C   UNL     1      -2.814  11.788  18.884  0.00  0.00    +0.000 A 
ATOM     27  O   UNL     1      -3.390  12.366  19.984  0.00  0.00    +0.000 OA
ATOM     28  C   UNL     1      -4.717  12.474  19.641  0.00  0.00    +0.000 A 
ATOM     29  C   UNL     1      -5.639  13.088  20.612  0.00  0.00    +0.000 C 
ENDBRANCH  17  26
ENDBRANCH   1  21
TORSDOF 2
ENDMDL
MODEL 5
REMARK VINA RESULT:      -8.4      2.969      4.082
REMARK  Name = 
REMARK  4 active torsions:
REMARK  status: ('A' for Active; 'I' for Inactive)
REMARK    1  A    between atoms: C_1  and  C_2
REMARK    2  A    between atoms: C_4  and  C_5
REMARK    3  A    between atoms: C_9  and  N_10
REMARK    4  A    between atoms: C_27  and  C_28
REMARK                            x       y       z     vdW  Elec       q    Type
REMARK                         _______ _______ _______ _____ _____    ______ ____
ROOT
ATOM      1  N   UNL     1       1.149   9.090  19.175  0.00  0.00    +0.000 N 
ATOM      2  C   UNL     1       2.037   8.503  18.296  0.00  0.00    +0.000 C 
ATOM      3  O   UNL     1       2.353   9.018  17.228  0.00  0.00    +0.000 OA
ATOM      4  N   UNL     1       2.677   7.305  18.656  0.00  0.00    +0.000 N 
ATOM      5  C   UNL     1       2.478   6.555  19.902  0.00  0.00    +0.000 C 
ATOM      6  C   UNL     1       2.666   5.048  19.713  0.00  0.00    +0.000 C 
ATOM      7  O   UNL     1       3.997   4.542  19.775  0.00  0.00    +0.000 OA
ATOM      8  C   UNL     1       5.063   5.193  19.086  0.00  0.00    +0.000 C 
ATOM      9  C   UNL     1       4.740   5.854  17.737  0.00  0.00    +0.000 C 
ATOM     10  C   UNL     1       4.135   4.826  16.744  0.00  0.00    +0.000 C 
ATOM     11  C   UNL     1       5.201   3.839  16.210  0.00  0.00    +0.000 C 
ATOM     12  O   UNL     1       6.331   4.493  15.637  0.00  0.00    +0.000 OA
ATOM     13  C   UNL     1       6.990   5.357  16.552  0.00  0.00    +0.000 C 
ATOM     14  C   UNL     1       6.021   6.414  17.016  0.00  0.00    +0.000 C 
ATOM     15  C   UNL     1       3.972   7.173  17.999  0.00  0.00    +0.000 C 
ATOM     16  H   UNL     1       1.172   8.810  20.141  0.00  0.00    +0.000 HD
ENDROOT
BRANCH   1  21
ATOM     17  C   UNL     1       0.523  12.776  18.576  0.00  0.00    +0.000 A 
ATOM     18  C   UNL     1      -0.836  12.741  18.219  0.00  0.00    +0.000 A 
ATOM     19  C   UNL     1      -1.538  11.553  18.213  0.00  0.00    +0.000 A 
ATOM     20  C   UNL     1      -0.887  10.379  18.567  0.00  0.00    +0.000 A 
ATOM     21  C   UNL     1       0.483  10.338  18.882  0.00  0.00    +0.000 A 
ATOM     22  C   UNL     1       1.183  11.564  18.902  0.00  0.00    +0.000 A 
BRANCH  17  26
ATOM     23  C   UNL     1       3.769  16.460  18.367  0.00  0.00    +0.000 C 
ATOM     24  C   UNL     1       2.481  15.758  18.522  0.00  0.00    +0.000 A 
ATOM     25  N   UNL     1       2.405  14.401  18.377  0.00  0.00    +0.000 NA
ATOM     26  C   UNL     1       1.130  14.109  18.583  0.00  0.00    +0.000 A 
ATOM     27  O   UNL     1       0.348  15.200  18.854  0.00  0.00    +0.000 OA
ATOM     28  C   UNL     1       1.231  16.253  18.823  0.00  0.00    +0.000 A 
ATOM     29  C   UNL     1       0.714  17.603  19.101  0.00  0.00    +0.000 C 
ENDBRANCH  17  26
ENDBRANCH   1  21
TORSDOF 2
ENDMDL
MODEL 6
REMARK VINA RESULT:      -8.3      1.549      1.814
REMARK  Name = 
REMARK  4 active torsions:
REMARK  status: ('A' for Active; 'I' for Inactive)
REMARK    1  A    between atoms: C_1  and  C_2
REMARK    2  A    between atoms: C_4  and  C_5
REMARK    3  A    between atoms: C_9  and  N_10
REMARK    4  A    between atoms: C_27  and  C_28
REMARK                            x       y       z     vdW  Elec       q    Type
REMARK                         _______ _______ _______ _____ _____    ______ ____
ROOT
ATOM      1  N   UNL     1       1.299   8.882  19.293  0.00  0.00    +0.000 N 
ATOM      2  C   UNL     1       2.175   8.328  18.380  0.00  0.00    +0.000 C 
ATOM      3  O   UNL     1       2.506   8.900  17.346  0.00  0.00    +0.000 OA
ATOM      4  N   UNL     1       2.785   7.095  18.668  0.00  0.00    +0.000 N 
ATOM      5  C   UNL     1       2.565   6.276  19.866  0.00  0.00    +0.000 C 
ATOM      6  C   UNL     1       2.717   4.779  19.585  0.00  0.00    +0.000 C 
ATOM      7  O   UNL     1       4.035   4.238  19.617  0.00  0.00    +0.000 OA
ATOM      8  C   UNL     1       5.118   4.904  18.969  0.00  0.00    +0.000 C 
ATOM      9  C   UNL     1       4.814   5.653  17.662  0.00  0.00    +0.000 C 
ATOM     10  C   UNL     1       4.186   4.702  16.609  0.00  0.00    +0.000 C 
ATOM     11  C   UNL     1       5.229   3.724  16.016  0.00  0.00    +0.000 C 
ATOM     12  O   UNL     1       6.375   4.385  15.485  0.00  0.00    +0.000 OA
ATOM     13  C   UNL     1       7.054   5.175  16.451  0.00  0.00    +0.000 C 
ATOM     14  C   UNL     1       6.110   6.224  16.979  0.00  0.00    +0.000 C 
ATOM     15  C   UNL     1       4.078   6.972  18.004  0.00  0.00    +0.000 C 
ATOM     16  H   UNL     1       1.314   8.543  20.241  0.00  0.00    +0.000 HD
ENDROOT
BRANCH   1  21
ATOM     17  C   UNL     1      -1.337  11.587  19.021  0.00  0.00    +0.000 A 
ATOM     18  C   UNL     1      -0.524  12.696  18.733  0.00  0.00    +0.000 A 
ATOM     19  C   UNL     1       0.842  12.557  18.592  0.00  0.00    +0.000 A 
ATOM     20  C   UNL     1       1.415  11.301  18.736  0.00  0.00    +0.000 A 
ATOM     21  C   UNL     1       0.664  10.162  19.077  0.00  0.00    +0.000 A 
ATOM     22  C   UNL     1      -0.733  10.315  19.200  0.00  0.00    +0.000 A 
BRANCH  17  26
ATOM     23  C   UNL     1      -5.734  13.194  20.518  0.00  0.00    +0.000 C 
ATOM     24  C   UNL     1      -4.715  12.519  19.692  0.00  0.00    +0.000 A 
ATOM     25  N   UNL     1      -3.393  12.571  20.035  0.00  0.00    +0.000 NA
ATOM     26  C   UNL     1      -2.772  11.870  19.099  0.00  0.00    +0.000 A 
ATOM     27  O   UNL     1      -3.608  11.357  18.144  0.00  0.00    +0.000 OA
ATOM     28  C   UNL     1      -4.857  11.771  18.543  0.00  0.00    +0.000 A 
ATOM     29  C   UNL     1      -6.017  11.365  17.733  0.00  0.00    +0.000 C 
ENDBRANCH  17  26
ENDBRANCH   1  21
TORSDOF 2
ENDMDL
MODEL 7
REMARK VINA RESULT:      -8.0      2.839      9.103
REMARK  Name = 
REMARK  4 active torsions:
REMARK  status: ('A' for Active; 'I' for Inactive)
REMARK    1  A    between atoms: C_1  and  C_2
REMARK    2  A    between atoms: C_4  and  C_5
REMARK    3  A    between atoms: C_9  and  N_10
REMARK    4  A    between atoms: C_27  and  C_28
REMARK                            x       y       z     vdW  Elec       q    Type
REMARK                         _______ _______ _______ _____ _____    ______ ____
ROOT
ATOM      1  N   UNL     1       1.047   6.674  21.030  0.00  0.00    +0.000 N 
ATOM      2  C   UNL     1       1.228   7.917  20.454  0.00  0.00    +0.000 C 
ATOM      3  O   UNL     1       1.904   8.088  19.444  0.00  0.00    +0.000 OA
ATOM      4  N   UNL     1       0.554   9.030  20.985  0.00  0.00    +0.000 N 
ATOM      5  C   UNL     1      -0.335   9.030  22.153  0.00  0.00    +0.000 C 
ATOM      6  C   UNL     1      -0.300  10.358  22.913  0.00  0.00    +0.000 C 
ATOM      7  O   UNL     1      -1.139  11.407  22.437  0.00  0.00    +0.000 OA
ATOM      8  C   UNL     1      -1.212  11.715  21.046  0.00  0.00    +0.000 C 
ATOM      9  C   UNL     1       0.069  11.555  20.212  0.00  0.00    +0.000 C 
ATOM     10  C   UNL     1       1.224  12.412  20.795  0.00  0.00    +0.000 C 
ATOM     11  C   UNL     1       1.020  13.922  20.521  0.00  0.00    +0.000 C 
ATOM     12  O   UNL     1       0.816  14.216  19.141  0.00  0.00    +0.000 OA
ATOM     13  C   UNL     1      -0.308  13.542  18.594  0.00  0.00    +0.000 C 
ATOM     14  C   UNL     1      -0.106  12.055  18.732  0.00  0.00    +0.000 C 
ATOM     15  C   UNL     1       0.317  10.045  19.967  0.00  0.00    +0.000 C 
ATOM     16  H   UNL     1       0.253   6.534  21.633  0.00  0.00    +0.000 HD
ENDROOT
BRANCH   1  21
ATOM     17  C   UNL     1       3.480   4.378  19.256  0.00  0.00    +0.000 A 
ATOM     18  C   UNL     1       2.937   3.129  19.601  0.00  0.00    +0.000 A 
ATOM     19  C   UNL     1       1.787   3.040  20.358  0.00  0.00    +0.000 A 
ATOM     20  C   UNL     1       1.160   4.204  20.780  0.00  0.00    +0.000 A 
ATOM     21  C   UNL     1       1.681   5.483  20.514  0.00  0.00    +0.000 A 
ATOM     22  C   UNL     1       2.849   5.559  19.724  0.00  0.00    +0.000 A 
BRANCH  17  26
ATOM     23  C   UNL     1       8.139   4.524  17.698  0.00  0.00    +0.000 C 
ATOM     24  C   UNL     1       6.671   4.388  17.659  0.00  0.00    +0.000 A 
ATOM     25  N   UNL     1       5.931   4.488  18.805  0.00  0.00    +0.000 NA
ATOM     26  C   UNL     1       4.677   4.325  18.413  0.00  0.00    +0.000 A 
ATOM     27  O   UNL     1       4.538   4.116  17.067  0.00  0.00    +0.000 OA
ATOM     28  C   UNL     1       5.827   4.171  16.592  0.00  0.00    +0.000 A 
ATOM     29  C   UNL     1       6.043   4.003  15.145  0.00  0.00    +0.000 C 
ENDBRANCH  17  26
ENDBRANCH   1  21
TORSDOF 2
ENDMDL
MODEL 8
REMARK VINA RESULT:      -8.0      2.845      9.123
REMARK  Name = 
REMARK  4 active torsions:
REMARK  status: ('A' for Active; 'I' for Inactive)
REMARK    1  A    between atoms: C_1  and  C_2
REMARK    2  A    between atoms: C_4  and  C_5
REMARK    3  A    between atoms: C_9  and  N_10
REMARK    4  A    between atoms: C_27  and  C_28
REMARK                            x       y       z     vdW  Elec       q    Type
REMARK                         _______ _______ _______ _____ _____    ______ ____
ROOT
ATOM      1  N   UNL     1       1.097   6.610  21.034  0.00  0.00    +0.000 N 
ATOM      2  C   UNL     1       1.258   7.858  20.463  0.00  0.00    +0.000 C 
ATOM      3  O   UNL     1       1.929   8.043  19.452  0.00  0.00    +0.000 OA
ATOM      4  N   UNL     1       0.570   8.959  21.001  0.00  0.00    +0.000 N 
ATOM      5  C   UNL     1      -0.316   8.941  22.171  0.00  0.00    +0.000 C 
ATOM      6  C   UNL     1      -0.298  10.266  22.936  0.00  0.00    +0.000 C 
ATOM      7  O   UNL     1      -1.153  11.305  22.467  0.00  0.00    +0.000 OA
ATOM      8  C   UNL     1      -1.234  11.619  21.078  0.00  0.00    +0.000 C 
ATOM      9  C   UNL     1       0.047  11.480  20.240  0.00  0.00    +0.000 C 
ATOM     10  C   UNL     1       1.191  12.351  20.824  0.00  0.00    +0.000 C 
ATOM     11  C   UNL     1       0.965  13.859  20.557  0.00  0.00    +0.000 C 
ATOM     12  O   UNL     1       0.754  14.156  19.179  0.00  0.00    +0.000 OA
ATOM     13  C   UNL     1      -0.363  13.468  18.632  0.00  0.00    +0.000 C 
ATOM     14  C   UNL     1      -0.139  11.984  18.762  0.00  0.00    +0.000 C 
ATOM     15  C   UNL     1       0.316   9.975  19.987  0.00  0.00    +0.000 C 
ATOM     16  H   UNL     1       0.306   6.456  21.638  0.00  0.00    +0.000 HD
ENDROOT
BRANCH   1  21
ATOM     17  C   UNL     1       3.486   4.362  19.143  0.00  0.00    +0.000 A 
ATOM     18  C   UNL     1       3.042   3.104  19.584  0.00  0.00    +0.000 A 
ATOM     19  C   UNL     1       1.968   2.991  20.443  0.00  0.00    +0.000 A 
ATOM     20  C   UNL     1       1.319   4.140  20.873  0.00  0.00    +0.000 A 
ATOM     21  C   UNL     1       1.747   5.430  20.511  0.00  0.00    +0.000 A 
ATOM     22  C   UNL     1       2.836   5.530  19.618  0.00  0.00    +0.000 A 
BRANCH  17  26
ATOM     23  C   UNL     1       6.167   3.945  15.045  0.00  0.00    +0.000 C 
ATOM     24  C   UNL     1       5.838   4.151  16.468  0.00  0.00    +0.000 A 
ATOM     25  N   UNL     1       4.539   4.121  16.895  0.00  0.00    +0.000 NA
ATOM     26  C   UNL     1       4.606   4.332  18.200  0.00  0.00    +0.000 A 
ATOM     27  O   UNL     1       5.881   4.507  18.669  0.00  0.00    +0.000 OA
ATOM     28  C   UNL     1       6.664   4.376  17.547  0.00  0.00    +0.000 A 
ATOM     29  C   UNL     1       8.125   4.489  17.701  0.00  0.00    +0.000 C 
ENDBRANCH  17  26
ENDBRANCH   1  21
TORSDOF 2
ENDMDL
MODEL 9
REMARK VINA RESULT:      -7.9      3.097      3.417
REMARK  Name = 
REMARK  4 active torsions:
REMARK  status: ('A' for Active; 'I' for Inactive)
REMARK    1  A    between atoms: C_1  and  C_2
REMARK    2  A    between atoms: C_4  and  C_5
REMARK    3  A    between atoms: C_9  and  N_10
REMARK    4  A    between atoms: C_27  and  C_28
REMARK                            x       y       z     vdW  Elec       q    Type
REMARK                         _______ _______ _______ _____ _____    ______ ____
ROOT
ATOM      1  N   UNL     1       1.002   7.426  21.172  0.00  0.00    +0.000 N 
ATOM      2  C   UNL     1       1.945   7.200  20.188  0.00  0.00    +0.000 C 
ATOM      3  O   UNL     1       2.466   8.109  19.548  0.00  0.00    +0.000 OA
ATOM      4  N   UNL     1       2.397   5.891  19.950  0.00  0.00    +0.000 N 
ATOM      5  C   UNL     1       1.939   4.677  20.636  0.00  0.00    +0.000 C 
ATOM      6  C   UNL     1       1.996   3.441  19.735  0.00  0.00    +0.000 C 
ATOM      7  O   UNL     1       3.244   2.759  19.637  0.00  0.00    +0.000 OA
ATOM      8  C   UNL     1       4.461   3.478  19.450  0.00  0.00    +0.000 C 
ATOM      9  C   UNL     1       4.412   4.751  18.591  0.00  0.00    +0.000 C 
ATOM     10  C   UNL     1       3.856   4.445  17.174  0.00  0.00    +0.000 C 
ATOM     11  C   UNL     1       4.881   3.680  16.303  0.00  0.00    +0.000 C 
ATOM     12  O   UNL     1       6.145   4.336  16.222  0.00  0.00    +0.000 OA
ATOM     13  C   UNL     1       6.748   4.530  17.493  0.00  0.00    +0.000 C 
ATOM     14  C   UNL     1       5.836   5.372  18.348  0.00  0.00    +0.000 C 
ATOM     15  C   UNL     1       3.754   5.884  19.417  0.00  0.00    +0.000 C 
ATOM     16  H   UNL     1       0.853   6.714  21.868  0.00  0.00    +0.000 HD
ENDROOT
BRANCH   1  21
ATOM     17  C   UNL     1       0.301  11.142  20.974  0.00  0.00    +0.000 A 
ATOM     18  C   UNL     1      -0.517  11.299  22.105  0.00  0.00    +0.000 A 
ATOM     19  C   UNL     1      -0.799  10.231  22.932  0.00  0.00    +0.000 A 
ATOM     20  C   UNL     1      -0.263   8.985  22.637  0.00  0.00    +0.000 A 
ATOM     21  C   UNL     1       0.519   8.749  21.492  0.00  0.00    +0.000 A 
ATOM     22  C   UNL     1       0.813   9.855  20.665  0.00  0.00    +0.000 A 
BRANCH  17  26
ATOM     23  C   UNL     1      -0.238  15.517  18.801  0.00  0.00    +0.000 C 
ATOM     24  C   UNL     1       0.390  14.252  19.228  0.00  0.00    +0.000 A 
ATOM     25  N   UNL     1      -0.285  13.376  20.031  0.00  0.00    +0.000 NA
ATOM     26  C   UNL     1       0.553  12.367  20.212  0.00  0.00    +0.000 A 
ATOM     27  O   UNL     1       1.756  12.525  19.577  0.00  0.00    +0.000 OA
ATOM     28  C   UNL     1       1.633  13.736  18.938  0.00  0.00    +0.000 A 
ATOM     29  C   UNL     1       2.766  14.211  18.126  0.00  0.00    +0.000 C 
ENDBRANCH  17  26
ENDBRANCH   1  21
TORSDOF 2
ENDMDL
