MODEL 1
REMARK VINA RESULT:      -7.7      0.000      0.000
REMARK  Name = 
REMARK  10 active torsions:
REMARK  status: ('A' for Active; 'I' for Inactive)
REMARK    1  A    between atoms: C_1  and  O_2
REMARK    2  A    between atoms: O_2  and  C_3
REMARK    3  A    between atoms: C_5  and  C_6
REMARK    4  A    between atoms: C_8  and  C_9
REMARK    5  A    between atoms: N_14  and  C_15
REMARK    6  A    between atoms: C_15  and  C_16
REMARK    7  A    between atoms: C_19  and  C_20
REMARK    8  A    between atoms: C_20  and  C_21
REMARK    9  A    between atoms: C_20  and  C_22
REMARK   10  A    between atoms: C_20  and  C_23
REMARK                            x       y       z     vdW  Elec       q    Type
REMARK                         _______ _______ _______ _____ _____    ______ ____
ROOT
ATOM      1  C   UNL     1       6.551   5.805  16.643  0.00  0.00    +0.000 C 
ATOM      2  C   UNL     1       5.817   4.528  16.992  0.00  0.00    +0.000 C 
ATOM      3  C   UNL     1       4.349   4.932  16.864  0.00  0.00    +0.000 C 
ATOM      4  N   UNL     1       4.268   6.355  17.282  0.00  0.00    +0.000 NA
ATOM      5  C   UNL     1       5.655   6.877  17.269  0.00  0.00    +0.000 C 
ENDROOT
BRANCH   3   6
ATOM      6  C   UNL     1       3.462   3.960  17.567  0.00  0.00    +0.000 A 
ATOM      7  N   UNL     1       3.495   3.602  18.834  0.00  0.00    +0.000 NA
ATOM      8  C   UNL     1       2.424   2.760  18.957  0.00  0.00    +0.000 A 
ATOM      9  N   UNL     1       1.770   2.517  17.817  0.00  0.00    +0.000 NA
ATOM     10  N   UNL     1       2.438   3.297  16.952  0.00  0.00    +0.000 N 
ATOM     11  H   UNL     1       2.134   3.345  15.986  0.00  0.00    +0.000 HD
BRANCH   8  12
ATOM     12  C   UNL     1       1.960   2.222  20.298  0.00  0.00    +0.000 C 
ATOM     13  C   UNL     1       1.159   3.175  21.168  0.00  0.00    +0.000 C 
ATOM     14  C   UNL     1       2.533   2.785  21.580  0.00  0.00    +0.000 C 
ENDBRANCH   8  12
ENDBRANCH   3   6
BRANCH   1  16
ATOM     15  C   UNL     1       7.135   4.703  14.620  0.00  0.00    +0.000 C 
ATOM     16  O   UNL     1       6.649   5.898  15.219  0.00  0.00    +0.000 OA
ENDBRANCH   1  16
BRANCH   4  17
ATOM     17  C   UNL     1       3.602   6.619  18.582  0.00  0.00    +0.000 C 
BRANCH  17  18
ATOM     18  C   UNL     1       2.619   7.755  18.485  0.00  0.00    +0.000 A 
ATOM     19  N   UNL     1       2.425   8.466  17.363  0.00  0.00    +0.000 NA
ATOM     20  O   UNL     1       1.489   9.430  17.748  0.00  0.00    +0.000 OA
ATOM     21  C   UNL     1       1.216   9.205  19.068  0.00  0.00    +0.000 A 
ATOM     22  N   UNL     1       1.850   8.160  19.553  0.00  0.00    +0.000 NA
BRANCH  21  23
ATOM     23  C   UNL     1       0.317  10.178  19.780  0.00  0.00    +0.000 C 
ATOM     24  C   UNL     1      -0.970  10.408  18.973  0.00  0.00    +0.000 C 
ATOM     25  C   UNL     1      -0.050   9.603  21.162  0.00  0.00    +0.000 C 
ATOM     26  C   UNL     1       1.029  11.527  19.990  0.00  0.00    +0.000 C 
ENDBRANCH  21  23
ENDBRANCH  17  18
ENDBRANCH   4  17
TORSDOF 6
ENDMDL
MODEL 2
REMARK VINA RESULT:      -7.6      0.398      1.005
REMARK  Name = 
REMARK  10 active torsions:
REMARK  status: ('A' for Active; 'I' for Inactive)
REMARK    1  A    between atoms: C_1  and  O_2
REMARK    2  A    between atoms: O_2  and  C_3
REMARK    3  A    between atoms: C_5  and  C_6
REMARK    4  A    between atoms: C_8  and  C_9
REMARK    5  A    between atoms: N_14  and  C_15
REMARK    6  A    between atoms: C_15  and  C_16
REMARK    7  A    between atoms: C_19  and  C_20
REMARK    8  A    between atoms: C_20  and  C_21
REMARK    9  A    between atoms: C_20  and  C_22
REMARK   10  A    between atoms: C_20  and  C_23
REMARK                            x       y       z     vdW  Elec       q    Type
REMARK                         _______ _______ _______ _____ _____    ______ ____
ROOT
ATOM      1  C   UNL     1       6.466   5.759  16.719  0.00  0.00    +0.000 C 
ATOM      2  C   UNL     1       5.642   4.547  17.097  0.00  0.00    +0.000 C 
ATOM      3  C   UNL     1       4.206   5.038  16.916  0.00  0.00    +0.000 C 
ATOM      4  N   UNL     1       4.208   6.479  17.278  0.00  0.00    +0.000 NA
ATOM      5  C   UNL     1       5.627   6.910  17.281  0.00  0.00    +0.000 C 
ENDROOT
BRANCH   3   6
ATOM      6  C   UNL     1       3.242   4.154  17.632  0.00  0.00    +0.000 A 
ATOM      7  N   UNL     1       3.424   3.505  18.764  0.00  0.00    +0.000 NA
ATOM      8  C   UNL     1       2.207   2.924  18.998  0.00  0.00    +0.000 A 
ATOM      9  N   UNL     1       1.300   3.117  18.036  0.00  0.00    +0.000 NA
ATOM     10  N   UNL     1       1.975   3.909  17.185  0.00  0.00    +0.000 N 
ATOM     11  H   UNL     1       1.511   4.255  16.353  0.00  0.00    +0.000 HD
BRANCH   8  12
ATOM     12  C   UNL     1       1.886   2.200  20.293  0.00  0.00    +0.000 C 
ATOM     13  C   UNL     1       1.217   3.023  21.380  0.00  0.00    +0.000 C 
ATOM     14  C   UNL     1       2.618   2.563  21.567  0.00  0.00    +0.000 C 
ENDBRANCH   8  12
ENDBRANCH   3   6
BRANCH   1  16
ATOM     15  C   UNL     1       7.026   4.544  14.756  0.00  0.00    +0.000 C 
ATOM     16  O   UNL     1       6.603   5.789  15.296  0.00  0.00    +0.000 OA
ENDBRANCH   1  16
BRANCH   4  17
ATOM     17  C   UNL     1       3.531   6.837  18.549  0.00  0.00    +0.000 C 
BRANCH  17  18
ATOM     18  C   UNL     1       2.592   8.000  18.374  0.00  0.00    +0.000 A 
ATOM     19  N   UNL     1       2.526   8.728  17.247  0.00  0.00    +0.000 NA
ATOM     20  O   UNL     1       1.584   9.714  17.554  0.00  0.00    +0.000 OA
ATOM     21  C   UNL     1       1.180   9.483  18.839  0.00  0.00    +0.000 A 
ATOM     22  N   UNL     1       1.736   8.416  19.369  0.00  0.00    +0.000 NA
BRANCH  21  23
ATOM     23  C   UNL     1       0.244  10.474  19.474  0.00  0.00    +0.000 C 
ATOM     24  C   UNL     1       0.176  10.251  20.992  0.00  0.00    +0.000 C 
ATOM     25  C   UNL     1       0.760  11.900  19.196  0.00  0.00    +0.000 C 
ATOM     26  C   UNL     1      -1.171  10.348  18.880  0.00  0.00    +0.000 C 
ENDBRANCH  21  23
ENDBRANCH  17  18
ENDBRANCH   4  17
TORSDOF 6
ENDMDL
MODEL 3
REMARK VINA RESULT:      -7.5      3.724      6.552
REMARK  Name = 
REMARK  10 active torsions:
REMARK  status: ('A' for Active; 'I' for Inactive)
REMARK    1  A    between atoms: C_1  and  O_2
REMARK    2  A    between atoms: O_2  and  C_3
REMARK    3  A    between atoms: C_5  and  C_6
REMARK    4  A    between atoms: C_8  and  C_9
REMARK    5  A    between atoms: N_14  and  C_15
REMARK    6  A    between atoms: C_15  and  C_16
REMARK    7  A    between atoms: C_19  and  C_20
REMARK    8  A    between atoms: C_20  and  C_21
REMARK    9  A    between atoms: C_20  and  C_22
REMARK   10  A    between atoms: C_20  and  C_23
REMARK                            x       y       z     vdW  Elec       q    Type
REMARK                         _______ _______ _______ _____ _____    ______ ____
ROOT
ATOM      1  C   UNL     1       5.308   4.564  15.293  0.00  0.00    +0.000 C 
ATOM      2  C   UNL     1       6.106   5.825  15.550  0.00  0.00    +0.000 C 
ATOM      3  C   UNL     1       7.039   5.414  16.688  0.00  0.00    +0.000 C 
ATOM      4  N   UNL     1       6.281   4.444  17.521  0.00  0.00    +0.000 NA
ATOM      5  C   UNL     1       5.125   4.001  16.705  0.00  0.00    +0.000 C 
ENDROOT
BRANCH   3   6
ATOM      6  C   UNL     1       7.606   6.609  17.375  0.00  0.00    +0.000 A 
ATOM      7  N   UNL     1       7.616   7.858  16.954  0.00  0.00    +0.000 NA
ATOM      8  C   UNL     1       8.180   8.542  17.996  0.00  0.00    +0.000 A 
ATOM      9  N   UNL     1       8.590   7.777  19.012  0.00  0.00    +0.000 NA
ATOM     10  N   UNL     1       8.205   6.557  18.602  0.00  0.00    +0.000 N 
ATOM     11  H   UNL     1       8.358   5.757  19.205  0.00  0.00    +0.000 HD
BRANCH   8  12
ATOM     12  C   UNL     1       8.249  10.058  18.033  0.00  0.00    +0.000 C 
ATOM     13  C   UNL     1       9.627  10.676  17.876  0.00  0.00    +0.000 C 
ATOM     14  C   UNL     1       8.933  10.758  19.187  0.00  0.00    +0.000 C 
ENDBRANCH   8  12
ENDBRANCH   3   6
BRANCH   1  16
ATOM     15  C   UNL     1       5.735   3.882  13.058  0.00  0.00    +0.000 C 
ATOM     16  O   UNL     1       6.068   3.714  14.429  0.00  0.00    +0.000 OA
ENDBRANCH   1  16
BRANCH   4  17
ATOM     17  C   UNL     1       5.849   4.926  18.856  0.00  0.00    +0.000 C 
BRANCH  17  18
ATOM     18  C   UNL     1       4.770   4.055  19.442  0.00  0.00    +0.000 A 
ATOM     19  N   UNL     1       4.973   2.778  19.806  0.00  0.00    +0.000 NA
ATOM     20  O   UNL     1       3.709   2.358  20.230  0.00  0.00    +0.000 OA
ATOM     21  C   UNL     1       2.869   3.424  20.073  0.00  0.00    +0.000 A 
ATOM     22  N   UNL     1       3.482   4.502  19.637  0.00  0.00    +0.000 NA
BRANCH  21  23
ATOM     23  C   UNL     1       1.405   3.216  20.347  0.00  0.00    +0.000 C 
ATOM     24  C   UNL     1       1.205   2.533  21.708  0.00  0.00    +0.000 C 
ATOM     25  C   UNL     1       0.698   4.586  20.361  0.00  0.00    +0.000 C 
ATOM     26  C   UNL     1       0.761   2.351  19.248  0.00  0.00    +0.000 C 
ENDBRANCH  21  23
ENDBRANCH  17  18
ENDBRANCH   4  17
TORSDOF 6
ENDMDL
MODEL 4
REMARK VINA RESULT:      -7.4      2.210      4.905
REMARK  Name = 
REMARK  10 active torsions:
REMARK  status: ('A' for Active; 'I' for Inactive)
REMARK    1  A    between atoms: C_1  and  O_2
REMARK    2  A    between atoms: O_2  and  C_3
REMARK    3  A    between atoms: C_5  and  C_6
REMARK    4  A    between atoms: C_8  and  C_9
REMARK    5  A    between atoms: N_14  and  C_15
REMARK    6  A    between atoms: C_15  and  C_16
REMARK    7  A    between atoms: C_19  and  C_20
REMARK    8  A    between atoms: C_20  and  C_21
REMARK    9  A    between atoms: C_20  and  C_22
REMARK   10  A    between atoms: C_20  and  C_23
REMARK                            x       y       z     vdW  Elec       q    Type
REMARK                         _______ _______ _______ _____ _____    ______ ____
ROOT
ATOM      1  C   UNL     1       1.583   2.779  19.244  0.00  0.00    +0.000 C 
ATOM      2  C   UNL     1       2.722   2.600  18.263  0.00  0.00    +0.000 C 
ATOM      3  C   UNL     1       3.711   3.685  18.685  0.00  0.00    +0.000 C 
ATOM      4  N   UNL     1       2.897   4.827  19.174  0.00  0.00    +0.000 NA
ATOM      5  C   UNL     1       1.530   4.301  19.406  0.00  0.00    +0.000 C 
ENDROOT
BRANCH   3   6
ATOM      6  C   UNL     1       4.699   3.961  17.603  0.00  0.00    +0.000 A 
ATOM      7  N   UNL     1       4.470   4.104  16.313  0.00  0.00    +0.000 NA
ATOM      8  C   UNL     1       5.699   4.419  15.803  0.00  0.00    +0.000 A 
ATOM      9  N   UNL     1       6.695   4.408  16.694  0.00  0.00    +0.000 NA
ATOM     10  N   UNL     1       6.036   4.126  17.830  0.00  0.00    +0.000 N 
ATOM     11  H   UNL     1       6.545   4.087  18.705  0.00  0.00    +0.000 HD
BRANCH   8  12
ATOM     12  C   UNL     1       5.898   4.841  14.358  0.00  0.00    +0.000 C 
ATOM     13  C   UNL     1       6.214   3.733  13.369  0.00  0.00    +0.000 C 
ATOM     14  C   UNL     1       7.263   4.725  13.716  0.00  0.00    +0.000 C 
ENDBRANCH   8  12
ENDBRANCH   3   6
BRANCH   1  16
ATOM     15  C   UNL     1       1.388   2.717  21.611  0.00  0.00    +0.000 C 
ATOM     16  O   UNL     1       1.908   2.083  20.450  0.00  0.00    +0.000 OA
ENDBRANCH   1  16
BRANCH   4  17
ATOM     17  C   UNL     1       2.873   6.031  18.308  0.00  0.00    +0.000 C 
BRANCH  17  18
ATOM     18  C   UNL     1       2.283   7.220  19.019  0.00  0.00    +0.000 A 
ATOM     19  N   UNL     1       2.108   7.267  20.350  0.00  0.00    +0.000 NA
ATOM     20  O   UNL     1       1.491   8.505  20.551  0.00  0.00    +0.000 OA
ATOM     21  C   UNL     1       1.352   9.078  19.318  0.00  0.00    +0.000 A 
ATOM     22  N   UNL     1       1.864   8.349  18.351  0.00  0.00    +0.000 NA
BRANCH  21  23
ATOM     23  C   UNL     1       0.605  10.380  19.225  0.00  0.00    +0.000 C 
ATOM     24  C   UNL     1       0.096  10.807  20.609  0.00  0.00    +0.000 C 
ATOM     25  C   UNL     1       1.557  11.465  18.681  0.00  0.00    +0.000 C 
ATOM     26  C   UNL     1      -0.590  10.258  18.262  0.00  0.00    +0.000 C 
ENDBRANCH  21  23
ENDBRANCH  17  18
ENDBRANCH   4  17
TORSDOF 6
ENDMDL
MODEL 5
REMARK VINA RESULT:      -7.4      0.772      1.113
REMARK  Name = 
REMARK  10 active torsions:
REMARK  status: ('A' for Active; 'I' for Inactive)
REMARK    1  A    between atoms: C_1  and  O_2
REMARK    2  A    between atoms: O_2  and  C_3
REMARK    3  A    between atoms: C_5  and  C_6
REMARK    4  A    between atoms: C_8  and  C_9
REMARK    5  A    between atoms: N_14  and  C_15
REMARK    6  A    between atoms: C_15  and  C_16
REMARK    7  A    between atoms: C_19  and  C_20
REMARK    8  A    between atoms: C_20  and  C_21
REMARK    9  A    between atoms: C_20  and  C_22
REMARK   10  A    between atoms: C_20  and  C_23
REMARK                            x       y       z     vdW  Elec       q    Type
REMARK                         _______ _______ _______ _____ _____    ______ ____
ROOT
ATOM      1  C   UNL     1       6.496   5.944  16.091  0.00  0.00    +0.000 C 
ATOM      2  C   UNL     1       6.242   4.727  16.955  0.00  0.00    +0.000 C 
ATOM      3  C   UNL     1       4.724   4.743  17.131  0.00  0.00    +0.000 C 
ATOM      4  N   UNL     1       4.321   6.172  17.159  0.00  0.00    +0.000 NA
ATOM      5  C   UNL     1       5.469   6.945  16.629  0.00  0.00    +0.000 C 
ENDROOT
BRANCH   3   6
ATOM      6  C   UNL     1       4.308   3.891  18.282  0.00  0.00    +0.000 A 
ATOM      7  N   UNL     1       3.095   3.716  18.764  0.00  0.00    +0.000 NA
ATOM      8  C   UNL     1       3.274   2.785  19.751  0.00  0.00    +0.000 A 
ATOM      9  N   UNL     1       4.545   2.427  19.958  0.00  0.00    +0.000 NA
ATOM     10  N   UNL     1       5.181   3.131  19.007  0.00  0.00    +0.000 N 
ATOM     11  H   UNL     1       6.184   3.029  18.899  0.00  0.00    +0.000 HD
BRANCH   8  12
ATOM     12  C   UNL     1       2.112   2.143  20.486  0.00  0.00    +0.000 C 
ATOM     13  C   UNL     1       0.891   3.017  20.713  0.00  0.00    +0.000 C 
ATOM     14  C   UNL     1       1.733   2.622  21.871  0.00  0.00    +0.000 C 
ENDBRANCH   8  12
ENDBRANCH   3   6
BRANCH   1  16
ATOM     15  C   UNL     1       6.988   4.405  14.350  0.00  0.00    +0.000 C 
ATOM     16  O   UNL     1       6.285   5.582  14.724  0.00  0.00    +0.000 OA
ENDBRANCH   1  16
BRANCH   4  17
ATOM     17  C   UNL     1       3.873   6.700  18.472  0.00  0.00    +0.000 C 
BRANCH  17  18
ATOM     18  C   UNL     1       2.854   7.797  18.314  0.00  0.00    +0.000 A 
ATOM     19  N   UNL     1       2.717   8.518  17.190  0.00  0.00    +0.000 NA
ATOM     20  O   UNL     1       1.715   9.437  17.514  0.00  0.00    +0.000 OA
ATOM     21  C   UNL     1       1.351   9.179  18.806  0.00  0.00    +0.000 A 
ATOM     22  N   UNL     1       1.989   8.153  19.325  0.00  0.00    +0.000 NA
BRANCH  21  23
ATOM     23  C   UNL     1       0.361  10.103  19.459  0.00  0.00    +0.000 C 
ATOM     24  C   UNL     1      -0.860  10.309  18.549  0.00  0.00    +0.000 C 
ATOM     25  C   UNL     1      -0.102   9.482  20.792  0.00  0.00    +0.000 C 
ATOM     26  C   UNL     1       1.003  11.470  19.759  0.00  0.00    +0.000 C 
ENDBRANCH  21  23
ENDBRANCH  17  18
ENDBRANCH   4  17
TORSDOF 6
ENDMDL
MODEL 6
REMARK VINA RESULT:      -7.3      0.904      1.493
REMARK  Name = 
REMARK  10 active torsions:
REMARK  status: ('A' for Active; 'I' for Inactive)
REMARK    1  A    between atoms: C_1  and  O_2
REMARK    2  A    between atoms: O_2  and  C_3
REMARK    3  A    between atoms: C_5  and  C_6
REMARK    4  A    between atoms: C_8  and  C_9
REMARK    5  A    between atoms: N_14  and  C_15
REMARK    6  A    between atoms: C_15  and  C_16
REMARK    7  A    between atoms: C_19  and  C_20
REMARK    8  A    between atoms: C_20  and  C_21
REMARK    9  A    between atoms: C_20  and  C_22
REMARK   10  A    between atoms: C_20  and  C_23
REMARK                            x       y       z     vdW  Elec       q    Type
REMARK                         _______ _______ _______ _____ _____    ______ ____
ROOT
ATOM      1  C   UNL     1       6.559   5.335  15.757  0.00  0.00    +0.000 C 
ATOM      2  C   UNL     1       6.170   4.205  16.686  0.00  0.00    +0.000 C 
ATOM      3  C   UNL     1       4.679   4.448  16.915  0.00  0.00    +0.000 C 
ATOM      4  N   UNL     1       4.486   5.921  16.890  0.00  0.00    +0.000 NA
ATOM      5  C   UNL     1       5.711   6.496  16.284  0.00  0.00    +0.000 C 
ENDROOT
BRANCH   3   6
ATOM      6  C   UNL     1       4.194   3.714  18.119  0.00  0.00    +0.000 A 
ATOM      7  N   UNL     1       2.954   3.584  18.545  0.00  0.00    +0.000 NA
ATOM      8  C   UNL     1       3.073   2.757  19.628  0.00  0.00    +0.000 A 
ATOM      9  N   UNL     1       4.329   2.425  19.944  0.00  0.00    +0.000 NA
ATOM     10  N   UNL     1       5.022   3.033  18.966  0.00  0.00    +0.000 N 
ATOM     11  H   UNL     1       6.029   2.924  18.927  0.00  0.00    +0.000 HD
BRANCH   8  12
ATOM     12  C   UNL     1       1.868   2.188  20.355  0.00  0.00    +0.000 C 
ATOM     13  C   UNL     1       0.774   3.173  20.723  0.00  0.00    +0.000 C 
ATOM     14  C   UNL     1       1.603   2.566  21.796  0.00  0.00    +0.000 C 
ENDBRANCH   8  12
ENDBRANCH   3   6
BRANCH   1  16
ATOM     15  C   UNL     1       7.374   4.945  13.560  0.00  0.00    +0.000 C 
ATOM     16  O   UNL     1       6.240   4.951  14.417  0.00  0.00    +0.000 OA
ENDBRANCH   1  16
BRANCH   4  17
ATOM     17  C   UNL     1       4.175   6.562  18.192  0.00  0.00    +0.000 C 
BRANCH  17  18
ATOM     18  C   UNL     1       3.136   7.642  18.049  0.00  0.00    +0.000 A 
ATOM     19  N   UNL     1       2.977   8.365  16.928  0.00  0.00    +0.000 NA
ATOM     20  O   UNL     1       1.962   9.265  17.266  0.00  0.00    +0.000 OA
ATOM     21  C   UNL     1       1.615   8.995  18.559  0.00  0.00    +0.000 A 
ATOM     22  N   UNL     1       2.274   7.978  19.068  0.00  0.00    +0.000 NA
BRANCH  21  23
ATOM     23  C   UNL     1       0.614   9.900  19.225  0.00  0.00    +0.000 C 
ATOM     24  C   UNL     1       0.264   9.375  20.625  0.00  0.00    +0.000 C 
ATOM     25  C   UNL     1       1.222  11.312  19.352  0.00  0.00    +0.000 C 
ATOM     26  C   UNL     1      -0.674  10.002  18.387  0.00  0.00    +0.000 C 
ENDBRANCH  21  23
ENDBRANCH  17  18
ENDBRANCH   4  17
TORSDOF 6
ENDMDL
MODEL 7
REMARK VINA RESULT:      -7.2      2.115      4.698
REMARK  Name = 
REMARK  10 active torsions:
REMARK  status: ('A' for Active; 'I' for Inactive)
REMARK    1  A    between atoms: C_1  and  O_2
REMARK    2  A    between atoms: O_2  and  C_3
REMARK    3  A    between atoms: C_5  and  C_6
REMARK    4  A    between atoms: C_8  and  C_9
REMARK    5  A    between atoms: N_14  and  C_15
REMARK    6  A    between atoms: C_15  and  C_16
REMARK    7  A    between atoms: C_19  and  C_20
REMARK    8  A    between atoms: C_20  and  C_21
REMARK    9  A    between atoms: C_20  and  C_22
REMARK   10  A    between atoms: C_20  and  C_23
REMARK                            x       y       z     vdW  Elec       q    Type
REMARK                         _______ _______ _______ _____ _____    ______ ____
ROOT
ATOM      1  C   UNL     1       1.904   3.790  20.175  0.00  0.00    +0.000 C 
ATOM      2  C   UNL     1       3.228   3.379  19.567  0.00  0.00    +0.000 C 
ATOM      3  C   UNL     1       4.081   4.637  19.720  0.00  0.00    +0.000 C 
ATOM      4  N   UNL     1       3.155   5.790  19.576  0.00  0.00    +0.000 NA
ATOM      5  C   UNL     1       1.783   5.251  19.733  0.00  0.00    +0.000 C 
ENDROOT
BRANCH   3   6
ATOM      6  C   UNL     1       5.267   4.594  18.818  0.00  0.00    +0.000 A 
ATOM      7  N   UNL     1       5.314   4.213  17.558  0.00  0.00    +0.000 NA
ATOM      8  C   UNL     1       6.614   4.449  17.201  0.00  0.00    +0.000 A 
ATOM      9  N   UNL     1       7.396   4.886  18.192  0.00  0.00    +0.000 NA
ATOM     10  N   UNL     1       6.519   4.982  19.205  0.00  0.00    +0.000 N 
ATOM     11  H   UNL     1       6.831   5.333  20.103  0.00  0.00    +0.000 HD
BRANCH   8  12
ATOM     12  C   UNL     1       7.103   4.314  15.770  0.00  0.00    +0.000 C 
ATOM     13  C   UNL     1       6.527   5.294  14.764  0.00  0.00    +0.000 C 
ATOM     14  C   UNL     1       6.153   3.859  14.684  0.00  0.00    +0.000 C 
ENDBRANCH   8  12
ENDBRANCH   3   6
BRANCH   1  16
ATOM     15  C   UNL     1       1.442   2.385  22.034  0.00  0.00    +0.000 C 
ATOM     16  O   UNL     1       1.984   3.623  21.593  0.00  0.00    +0.000 OA
ENDBRANCH   1  16
BRANCH   4  17
ATOM     17  C   UNL     1       3.286   6.582  18.328  0.00  0.00    +0.000 C 
BRANCH  17  18
ATOM     18  C   UNL     1       2.466   7.844  18.379  0.00  0.00    +0.000 A 
ATOM     19  N   UNL     1       2.335   8.677  17.334  0.00  0.00    +0.000 NA
ATOM     20  O   UNL     1       1.554   9.717  17.847  0.00  0.00    +0.000 OA
ATOM     21  C   UNL     1       1.297   9.407  19.152  0.00  0.00    +0.000 A 
ATOM     22  N   UNL     1       1.797   8.246  19.513  0.00  0.00    +0.000 NA
BRANCH  21  23
ATOM     23  C   UNL     1       0.565  10.421  19.988  0.00  0.00    +0.000 C 
ATOM     24  C   UNL     1       1.175  11.817  19.793  0.00  0.00    +0.000 C 
ATOM     25  C   UNL     1      -0.915  10.452  19.557  0.00  0.00    +0.000 C 
ATOM     26  C   UNL     1       0.626  10.047  21.480  0.00  0.00    +0.000 C 
ENDBRANCH  21  23
ENDBRANCH  17  18
ENDBRANCH   4  17
TORSDOF 6
ENDMDL
MODEL 8
REMARK VINA RESULT:      -7.2      0.680      1.126
REMARK  Name = 
REMARK  10 active torsions:
REMARK  status: ('A' for Active; 'I' for Inactive)
REMARK    1  A    between atoms: C_1  and  O_2
REMARK    2  A    between atoms: O_2  and  C_3
REMARK    3  A    between atoms: C_5  and  C_6
REMARK    4  A    between atoms: C_8  and  C_9
REMARK    5  A    between atoms: N_14  and  C_15
REMARK    6  A    between atoms: C_15  and  C_16
REMARK    7  A    between atoms: C_19  and  C_20
REMARK    8  A    between atoms: C_20  and  C_21
REMARK    9  A    between atoms: C_20  and  C_22
REMARK   10  A    between atoms: C_20  and  C_23
REMARK                            x       y       z     vdW  Elec       q    Type
REMARK                         _______ _______ _______ _____ _____    ______ ____
ROOT
ATOM      1  C   UNL     1       6.729   5.875  16.539  0.00  0.00    +0.000 C 
ATOM      2  C   UNL     1       6.187   4.554  17.040  0.00  0.00    +0.000 C 
ATOM      3  C   UNL     1       4.676   4.724  16.891  0.00  0.00    +0.000 C 
ATOM      4  N   UNL     1       4.390   6.159  17.149  0.00  0.00    +0.000 NA
ATOM      5  C   UNL     1       5.687   6.871  17.056  0.00  0.00    +0.000 C 
ENDROOT
BRANCH   3   6
ATOM      6  C   UNL     1       3.940   3.721  17.712  0.00  0.00    +0.000 A 
ATOM      7  N   UNL     1       2.976   3.936  18.584  0.00  0.00    +0.000 NA
ATOM      8  C   UNL     1       2.612   2.677  18.977  0.00  0.00    +0.000 A 
ATOM      9  N   UNL     1       3.349   1.693  18.454  0.00  0.00    +0.000 NA
ATOM     10  N   UNL     1       4.177   2.377  17.646  0.00  0.00    +0.000 N 
ATOM     11  H   UNL     1       4.846   1.872  17.076  0.00  0.00    +0.000 HD
BRANCH   8  12
ATOM     12  C   UNL     1       1.409   2.416  19.864  0.00  0.00    +0.000 C 
ATOM     13  C   UNL     1       0.743   3.636  20.476  0.00  0.00    +0.000 C 
ATOM     14  C   UNL     1       1.487   2.692  21.350  0.00  0.00    +0.000 C 
ENDBRANCH   8  12
ENDBRANCH   3   6
BRANCH   1  16
ATOM     15  C   UNL     1       7.013   4.500  14.622  0.00  0.00    +0.000 C 
ATOM     16  O   UNL     1       6.813   5.819  15.112  0.00  0.00    +0.000 OA
ENDBRANCH   1  16
BRANCH   4  17
ATOM     17  C   UNL     1       3.692   6.469  18.421  0.00  0.00    +0.000 C 
BRANCH  17  18
ATOM     18  C   UNL     1       2.777   7.656  18.282  0.00  0.00    +0.000 A 
ATOM     19  N   UNL     1       2.727   8.420  17.179  0.00  0.00    +0.000 NA
ATOM     20  O   UNL     1       1.804   9.414  17.515  0.00  0.00    +0.000 OA
ATOM     21  C   UNL     1       1.392   9.150  18.791  0.00  0.00    +0.000 A 
ATOM     22  N   UNL     1       1.926   8.056  19.288  0.00  0.00    +0.000 NA
BRANCH  21  23
ATOM     23  C   UNL     1       0.473  10.138  19.455  0.00  0.00    +0.000 C 
ATOM     24  C   UNL     1       1.167  11.500  19.604  0.00  0.00    +0.000 C 
ATOM     25  C   UNL     1      -0.791  10.308  18.588  0.00  0.00    +0.000 C 
ATOM     26  C   UNL     1       0.042   9.636  20.845  0.00  0.00    +0.000 C 
ENDBRANCH  21  23
ENDBRANCH  17  18
ENDBRANCH   4  17
TORSDOF 6
ENDMDL
MODEL 9
REMARK VINA RESULT:      -7.2      2.223      4.783
REMARK  Name = 
REMARK  10 active torsions:
REMARK  status: ('A' for Active; 'I' for Inactive)
REMARK    1  A    between atoms: C_1  and  O_2
REMARK    2  A    between atoms: O_2  and  C_3
REMARK    3  A    between atoms: C_5  and  C_6
REMARK    4  A    between atoms: C_8  and  C_9
REMARK    5  A    between atoms: N_14  and  C_15
REMARK    6  A    between atoms: C_15  and  C_16
REMARK    7  A    between atoms: C_19  and  C_20
REMARK    8  A    between atoms: C_20  and  C_21
REMARK    9  A    between atoms: C_20  and  C_22
REMARK   10  A    between atoms: C_20  and  C_23
REMARK                            x       y       z     vdW  Elec       q    Type
REMARK                         _______ _______ _______ _____ _____    ______ ____
ROOT
ATOM      1  C   UNL     1       2.209   2.716  19.648  0.00  0.00    +0.000 C 
ATOM      2  C   UNL     1       3.533   2.613  18.921  0.00  0.00    +0.000 C 
ATOM      3  C   UNL     1       4.247   3.901  19.327  0.00  0.00    +0.000 C 
ATOM      4  N   UNL     1       3.192   4.936  19.477  0.00  0.00    +0.000 NA
ATOM      5  C   UNL     1       1.900   4.212  19.552  0.00  0.00    +0.000 C 
ENDROOT
BRANCH   3   6
ATOM      6  C   UNL     1       5.376   4.204  18.401  0.00  0.00    +0.000 A 
ATOM      7  N   UNL     1       5.472   3.917  17.118  0.00  0.00    +0.000 NA
ATOM      8  C   UNL     1       6.660   4.487  16.751  0.00  0.00    +0.000 A 
ATOM      9  N   UNL     1       7.344   5.048  17.752  0.00  0.00    +0.000 NA
ATOM     10  N   UNL     1       6.506   4.868  18.786  0.00  0.00    +0.000 N 
ATOM     11  H   UNL     1       6.753   5.235  19.698  0.00  0.00    +0.000 HD
BRANCH   8  12
ATOM     12  C   UNL     1       7.118   4.557  15.306  0.00  0.00    +0.000 C 
ATOM     13  C   UNL     1       6.227   5.332  14.352  0.00  0.00    +0.000 C 
ATOM     14  C   UNL     1       6.325   3.855  14.224  0.00  0.00    +0.000 C 
ENDBRANCH   8  12
ENDBRANCH   3   6
BRANCH   1  16
ATOM     15  C   UNL     1       1.511   2.877  21.913  0.00  0.00    +0.000 C 
ATOM     16  O   UNL     1       2.390   2.251  20.988  0.00  0.00    +0.000 OA
ENDBRANCH   1  16
BRANCH   4  17
ATOM     17  C   UNL     1       3.160   5.994  18.437  0.00  0.00    +0.000 C 
BRANCH  17  18
ATOM     18  C   UNL     1       2.397   7.207  18.898  0.00  0.00    +0.000 A 
ATOM     19  N   UNL     1       2.192   8.285  18.123  0.00  0.00    +0.000 NA
ATOM     20  O   UNL     1       1.507   9.164  18.966  0.00  0.00    +0.000 OA
ATOM     21  C   UNL     1       1.372   8.528  20.168  0.00  0.00    +0.000 A 
ATOM     22  N   UNL     1       1.861   7.308  20.162  0.00  0.00    +0.000 NA
BRANCH  21  23
ATOM     23  C   UNL     1       0.766   9.297  21.310  0.00  0.00    +0.000 C 
ATOM     24  C   UNL     1      -0.566   8.663  21.737  0.00  0.00    +0.000 C 
ATOM     25  C   UNL     1       1.742   9.273  22.504  0.00  0.00    +0.000 C 
ATOM     26  C   UNL     1       0.524  10.765  20.914  0.00  0.00    +0.000 C 
ENDBRANCH  21  23
ENDBRANCH  17  18
ENDBRANCH   4  17
TORSDOF 6
ENDMDL
