MODEL 1
REMARK VINA RESULT:      -9.2      0.000      0.000
REMARK  Name = 
REMARK  5 active torsions:
REMARK  status: ('A' for Active; 'I' for Inactive)
REMARK    1  A    between atoms: C_2  and  C_3
REMARK    2  A    between atoms: C_3  and  N_4
REMARK    3  A    between atoms: C_5  and  C_7
REMARK    4  A    between atoms: N_14  and  C_15
REMARK    5  A    between atoms: C_19  and  C_20
REMARK                            x       y       z     vdW  Elec       q    Type
REMARK                         _______ _______ _______ _____ _____    ______ ____
ROOT
ATOM      1  O   UNL     1       6.815   8.596  17.111  0.00  0.00    +0.000 OA
ATOM      2  C   UNL     1       7.657   7.916  17.696  0.00  0.00    +0.000 C 
ATOM      3  N   UNL     1       7.717   6.533  17.723  0.00  0.00    +0.000 N 
ATOM      4  H   UNL     1       8.266   6.131  18.481  0.00  0.00    +0.000 HD
ENDROOT
BRANCH   3   5
ATOM      5  C   UNL     1       6.960   5.644  16.930  0.00  0.00    +0.000 A 
ATOM      6  C   UNL     1       7.372   5.175  15.684  0.00  0.00    +0.000 A 
ATOM      7  C   UNL     1       6.558   4.312  14.946  0.00  0.00    +0.000 A 
ATOM      8  C   UNL     1       5.323   3.908  15.452  0.00  0.00    +0.000 A 
ATOM      9  C   UNL     1       4.896   4.340  16.714  0.00  0.00    +0.000 A 
ATOM     10  C   UNL     1       5.744   5.183  17.456  0.00  0.00    +0.000 A 
BRANCH   9  11
ATOM     11  C   UNL     1       3.615   3.859  17.241  0.00  0.00    +0.000 A 
ATOM     12  N   UNL     1       2.863   2.936  16.668  0.00  0.00    +0.000 NA
ATOM     13  N   UNL     1       1.798   2.665  17.483  0.00  0.00    +0.000 NA
ATOM     14  C   UNL     1       1.882   3.442  18.542  0.00  0.00    +0.000 A 
ATOM     15  N   UNL     1       2.966   4.275  18.389  0.00  0.00    +0.000 N 
ATOM     16  C   UNL     1       3.339   5.391  19.234  0.00  0.00    +0.000 C 
ATOM     17  C   UNL     1       2.166   6.149  19.843  0.00  0.00    +0.000 C 
ATOM     18  C   UNL     1       1.568   5.464  21.070  0.00  0.00    +0.000 C 
ATOM     19  C   UNL     1       1.503   3.938  21.003  0.00  0.00    +0.000 C 
ATOM     20  C   UNL     1       0.931   3.415  19.692  0.00  0.00    +0.000 C 
ENDBRANCH   9  11
ENDBRANCH   3   5
BRANCH   2  21
ATOM     21  C   UNL     1       8.711   8.581  18.580  0.00  0.00    +0.000 C 
BRANCH  21  22
ATOM     22  N   UNL     1       9.024   9.918  18.111  0.00  0.00    +0.000 N 
ATOM     23  C   UNL     1       9.584  10.853  18.950  0.00  0.00    +0.000 C 
ATOM     24  O   UNL     1       9.795  10.627  20.138  0.00  0.00    +0.000 OA
ATOM     25  H   UNL     1       8.831  10.130  17.140  0.00  0.00    +0.000 HD
BRANCH  23  26
ATOM     26  C   UNL     1       9.956  12.162  18.346  0.00  0.00    +0.000 A 
ATOM     27  C   UNL     1      11.127  12.331  17.595  0.00  0.00    +0.000 A 
ATOM     28  C   UNL     1      11.430  13.579  17.041  0.00  0.00    +0.000 A 
ATOM     29  C   UNL     1      10.569  14.660  17.233  0.00  0.00    +0.000 A 
ATOM     30  C   UNL     1       9.401  14.487  17.976  0.00  0.00    +0.000 A 
ATOM     31 BR   UNL     1       8.234  15.953  18.230  0.00  0.00    +0.000 Br
ATOM     32  C   UNL     1       9.087  13.247  18.531  0.00  0.00    +0.000 A 
ENDBRANCH  23  26
ENDBRANCH  21  22
ENDBRANCH   2  21
TORSDOF 5
ENDMDL
MODEL 2
REMARK VINA RESULT:      -9.1      6.698      9.411
REMARK  Name = 
REMARK  5 active torsions:
REMARK  status: ('A' for Active; 'I' for Inactive)
REMARK    1  A    between atoms: C_2  and  C_3
REMARK    2  A    between atoms: C_3  and  N_4
REMARK    3  A    between atoms: C_5  and  C_7
REMARK    4  A    between atoms: N_14  and  C_15
REMARK    5  A    between atoms: C_19  and  C_20
REMARK                            x       y       z     vdW  Elec       q    Type
REMARK                         _______ _______ _______ _____ _____    ______ ____
ROOT
ATOM      1  O   UNL     1      -0.728   8.118  21.981  0.00  0.00    +0.000 OA
ATOM      2  C   UNL     1      -0.173   9.197  22.177  0.00  0.00    +0.000 C 
ATOM      3  N   UNL     1       0.840   9.748  21.409  0.00  0.00    +0.000 N 
ATOM      4  H   UNL     1       1.392  10.472  21.864  0.00  0.00    +0.000 HD
ENDROOT
BRANCH   3   5
ATOM      5  C   UNL     1       1.287   9.285  20.152  0.00  0.00    +0.000 A 
ATOM      6  C   UNL     1       1.186  10.023  18.975  0.00  0.00    +0.000 A 
ATOM      7  C   UNL     1       1.632   9.489  17.763  0.00  0.00    +0.000 A 
ATOM      8  C   UNL     1       2.187   8.211  17.721  0.00  0.00    +0.000 A 
ATOM      9  C   UNL     1       2.328   7.459  18.893  0.00  0.00    +0.000 A 
ATOM     10  C   UNL     1       1.903   8.025  20.108  0.00  0.00    +0.000 A 
BRANCH   9  11
ATOM     11  C   UNL     1       2.961   6.137  18.825  0.00  0.00    +0.000 A 
ATOM     12  N   UNL     1       3.972   5.825  18.034  0.00  0.00    +0.000 NA
ATOM     13  N   UNL     1       4.368   4.544  18.308  0.00  0.00    +0.000 NA
ATOM     14  C   UNL     1       3.581   4.061  19.246  0.00  0.00    +0.000 A 
ATOM     15  N   UNL     1       2.622   5.003  19.539  0.00  0.00    +0.000 N 
ATOM     16  C   UNL     1       1.465   4.835  20.394  0.00  0.00    +0.000 C 
ATOM     17  C   UNL     1       0.853   3.439  20.374  0.00  0.00    +0.000 C 
ATOM     18  C   UNL     1       1.600   2.433  21.246  0.00  0.00    +0.000 C 
ATOM     19  C   UNL     1       3.123   2.570  21.248  0.00  0.00    +0.000 C 
ATOM     20  C   UNL     1       3.719   2.705  19.853  0.00  0.00    +0.000 C 
ENDBRANCH   9  11
ENDBRANCH   3   5
BRANCH   2  21
ATOM     21  C   UNL     1      -0.503  10.025  23.419  0.00  0.00    +0.000 C 
BRANCH  21  22
ATOM     22  N   UNL     1      -1.627  10.910  23.177  0.00  0.00    +0.000 N 
ATOM     23  C   UNL     1      -1.439  12.173  22.666  0.00  0.00    +0.000 C 
ATOM     24  O   UNL     1      -0.323  12.632  22.443  0.00  0.00    +0.000 OA
ATOM     25  H   UNL     1      -2.553  10.556  23.381  0.00  0.00    +0.000 HD
BRANCH  23  26
ATOM     26  C   UNL     1      -2.664  12.965  22.364  0.00  0.00    +0.000 A 
ATOM     27  C   UNL     1      -2.692  13.938  21.355  0.00  0.00    +0.000 A 
ATOM     28  C   UNL     1      -3.868  14.652  21.104  0.00  0.00    +0.000 A 
ATOM     29  C   UNL     1      -5.017  14.399  21.855  0.00  0.00    +0.000 A 
ATOM     30  C   UNL     1      -4.987  13.425  22.853  0.00  0.00    +0.000 A 
ATOM     31 BR   UNL     1      -6.548  13.081  23.865  0.00  0.00    +0.000 Br
ATOM     32  C   UNL     1      -3.822  12.706  23.111  0.00  0.00    +0.000 A 
ENDBRANCH  23  26
ENDBRANCH  21  22
ENDBRANCH   2  21
TORSDOF 5
ENDMDL
MODEL 3
REMARK VINA RESULT:      -9.0      6.995      9.648
REMARK  Name = 
REMARK  5 active torsions:
REMARK  status: ('A' for Active; 'I' for Inactive)
REMARK    1  A    between atoms: C_2  and  C_3
REMARK    2  A    between atoms: C_3  and  N_4
REMARK    3  A    between atoms: C_5  and  C_7
REMARK    4  A    between atoms: N_14  and  C_15
REMARK    5  A    between atoms: C_19  and  C_20
REMARK                            x       y       z     vdW  Elec       q    Type
REMARK                         _______ _______ _______ _____ _____    ______ ____
ROOT
ATOM      1  O   UNL     1       2.058   8.546  17.543  0.00  0.00    +0.000 OA
ATOM      2  C   UNL     1       1.807   8.419  18.739  0.00  0.00    +0.000 C 
ATOM      3  N   UNL     1       1.198   9.360  19.553  0.00  0.00    +0.000 N 
ATOM      4  H   UNL     1       1.339   9.234  20.553  0.00  0.00    +0.000 HD
ENDROOT
BRANCH   3   5
ATOM      5  C   UNL     1       0.570  10.553  19.132  0.00  0.00    +0.000 A 
ATOM      6  C   UNL     1       1.196  11.797  19.125  0.00  0.00    +0.000 A 
ATOM      7  C   UNL     1       0.502  12.938  18.714  0.00  0.00    +0.000 A 
ATOM      8  C   UNL     1      -0.827  12.842  18.304  0.00  0.00    +0.000 A 
ATOM      9  C   UNL     1      -1.472  11.599  18.273  0.00  0.00    +0.000 A 
ATOM     10  C   UNL     1      -0.747  10.457  18.659  0.00  0.00    +0.000 A 
BRANCH   9  11
ATOM     11  C   UNL     1      -2.855  11.522  17.789  0.00  0.00    +0.000 A 
ATOM     12  N   UNL     1      -3.206  11.193  16.559  0.00  0.00    +0.000 NA
ATOM     13  N   UNL     1      -4.571  11.124  16.492  0.00  0.00    +0.000 NA
ATOM     14  C   UNL     1      -5.057  11.438  17.674  0.00  0.00    +0.000 A 
ATOM     15  N   UNL     1      -4.012  11.782  18.499  0.00  0.00    +0.000 N 
ATOM     16  C   UNL     1      -4.099  12.342  19.832  0.00  0.00    +0.000 C 
ATOM     17  C   UNL     1      -5.285  13.271  20.059  0.00  0.00    +0.000 C 
ATOM     18  C   UNL     1      -6.596  12.534  20.321  0.00  0.00    +0.000 C 
ATOM     19  C   UNL     1      -6.805  11.258  19.506  0.00  0.00    +0.000 C 
ATOM     20  C   UNL     1      -6.509  11.433  18.022  0.00  0.00    +0.000 C 
ENDBRANCH   9  11
ENDBRANCH   3   5
BRANCH   2  21
ATOM     21  C   UNL     1       2.265   7.174  19.499  0.00  0.00    +0.000 C 
BRANCH  21  22
ATOM     22  N   UNL     1       3.514   6.663  18.966  0.00  0.00    +0.000 N 
ATOM     23  C   UNL     1       3.539   5.544  18.167  0.00  0.00    +0.000 C 
ATOM     24  O   UNL     1       2.528   4.895  17.911  0.00  0.00    +0.000 OA
ATOM     25  H   UNL     1       4.361   7.169  19.190  0.00  0.00    +0.000 HD
BRANCH  23  26
ATOM     26  C   UNL     1       4.857   5.157  17.592  0.00  0.00    +0.000 A 
ATOM     27  C   UNL     1       6.024   5.114  18.366  0.00  0.00    +0.000 A 
ATOM     28  C   UNL     1       7.238   4.738  17.783  0.00  0.00    +0.000 A 
ATOM     29  C   UNL     1       7.293   4.403  16.429  0.00  0.00    +0.000 A 
ATOM     30  C   UNL     1       6.128   4.441  15.663  0.00  0.00    +0.000 A 
ATOM     31 BR   UNL     1       6.205   3.981  13.830  0.00  0.00    +0.000 Br
ATOM     32  C   UNL     1       4.912   4.812  16.234  0.00  0.00    +0.000 A 
ENDBRANCH  23  26
ENDBRANCH  21  22
ENDBRANCH   2  21
TORSDOF 5
ENDMDL
MODEL 4
REMARK VINA RESULT:      -9.0      6.480      9.608
REMARK  Name = 
REMARK  5 active torsions:
REMARK  status: ('A' for Active; 'I' for Inactive)
REMARK    1  A    between atoms: C_2  and  C_3
REMARK    2  A    between atoms: C_3  and  N_4
REMARK    3  A    between atoms: C_5  and  C_7
REMARK    4  A    between atoms: N_14  and  C_15
REMARK    5  A    between atoms: C_19  and  C_20
REMARK                            x       y       z     vdW  Elec       q    Type
REMARK                         _______ _______ _______ _____ _____    ______ ____
ROOT
ATOM      1  O   UNL     1      -0.834   8.096  21.718  0.00  0.00    +0.000 OA
ATOM      2  C   UNL     1      -0.093   9.020  22.048  0.00  0.00    +0.000 C 
ATOM      3  N   UNL     1       1.019   9.465  21.353  0.00  0.00    +0.000 N 
ATOM      4  H   UNL     1       1.686  10.012  21.894  0.00  0.00    +0.000 HD
ENDROOT
BRANCH   3   5
ATOM      5  C   UNL     1       1.399   9.088  20.046  0.00  0.00    +0.000 A 
ATOM      6  C   UNL     1       1.101   9.835  18.907  0.00  0.00    +0.000 A 
ATOM      7  C   UNL     1       1.493   9.387  17.643  0.00  0.00    +0.000 A 
ATOM      8  C   UNL     1       2.189   8.187  17.509  0.00  0.00    +0.000 A 
ATOM      9  C   UNL     1       2.528   7.431  18.638  0.00  0.00    +0.000 A 
ATOM     10  C   UNL     1       2.154   7.915  19.905  0.00  0.00    +0.000 A 
BRANCH   9  11
ATOM     11  C   UNL     1       3.306   6.199  18.469  0.00  0.00    +0.000 A 
ATOM     12  N   UNL     1       4.548   6.146  18.025  0.00  0.00    +0.000 NA
ATOM     13  N   UNL     1       4.988   4.852  18.094  0.00  0.00    +0.000 NA
ATOM     14  C   UNL     1       4.004   4.107  18.553  0.00  0.00    +0.000 A 
ATOM     15  N   UNL     1       2.895   4.903  18.720  0.00  0.00    +0.000 N 
ATOM     16  C   UNL     1       1.553   4.472  19.054  0.00  0.00    +0.000 C 
ATOM     17  C   UNL     1       1.156   3.117  18.481  0.00  0.00    +0.000 C 
ATOM     18  C   UNL     1       1.697   1.935  19.281  0.00  0.00    +0.000 C 
ATOM     19  C   UNL     1       3.108   2.112  19.842  0.00  0.00    +0.000 C 
ATOM     20  C   UNL     1       4.103   2.642  18.817  0.00  0.00    +0.000 C 
ENDBRANCH   9  11
ENDBRANCH   3   5
BRANCH   2  21
ATOM     21  C   UNL     1      -0.291   9.732  23.385  0.00  0.00    +0.000 C 
BRANCH  21  22
ATOM     22  N   UNL     1      -1.576  10.405  23.438  0.00  0.00    +0.000 N 
ATOM     23  C   UNL     1      -1.708  11.715  23.040  0.00  0.00    +0.000 C 
ATOM     24  O   UNL     1      -0.751  12.392  22.678  0.00  0.00    +0.000 OA
ATOM     25  H   UNL     1      -2.371   9.869  23.760  0.00  0.00    +0.000 HD
BRANCH  23  26
ATOM     26  C   UNL     1      -3.085  12.282  23.041  0.00  0.00    +0.000 A 
ATOM     27  C   UNL     1      -3.844  12.396  24.214  0.00  0.00    +0.000 A 
ATOM     28  C   UNL     1      -5.130  12.942  24.166  0.00  0.00    +0.000 A 
ATOM     29  C   UNL     1      -5.663  13.376  22.951  0.00  0.00    +0.000 A 
ATOM     30  C   UNL     1      -4.903  13.268  21.787  0.00  0.00    +0.000 A 
ATOM     31 BR   UNL     1      -5.627  13.863  20.144  0.00  0.00    +0.000 Br
ATOM     32  C   UNL     1      -3.619  12.727  21.823  0.00  0.00    +0.000 A 
ENDBRANCH  23  26
ENDBRANCH  21  22
ENDBRANCH   2  21
TORSDOF 5
ENDMDL
MODEL 5
REMARK VINA RESULT:      -8.9      6.420      9.233
REMARK  Name = 
REMARK  5 active torsions:
REMARK  status: ('A' for Active; 'I' for Inactive)
REMARK    1  A    between atoms: C_2  and  C_3
REMARK    2  A    between atoms: C_3  and  N_4
REMARK    3  A    between atoms: C_5  and  C_7
REMARK    4  A    between atoms: N_14  and  C_15
REMARK    5  A    between atoms: C_19  and  C_20
REMARK                            x       y       z     vdW  Elec       q    Type
REMARK                         _______ _______ _______ _____ _____    ______ ____
ROOT
ATOM      1  O   UNL     1      -0.915   8.057  21.677  0.00  0.00    +0.000 OA
ATOM      2  C   UNL     1      -0.154   8.943  22.061  0.00  0.00    +0.000 C 
ATOM      3  N   UNL     1       0.980   9.390  21.402  0.00  0.00    +0.000 N 
ATOM      4  H   UNL     1       1.654   9.891  21.978  0.00  0.00    +0.000 HD
ENDROOT
BRANCH   3   5
ATOM      5  C   UNL     1       1.367   9.067  20.083  0.00  0.00    +0.000 A 
ATOM      6  C   UNL     1       1.075   9.858  18.975  0.00  0.00    +0.000 A 
ATOM      7  C   UNL     1       1.474   9.463  17.695  0.00  0.00    +0.000 A 
ATOM      8  C   UNL     1       2.172   8.270  17.516  0.00  0.00    +0.000 A 
ATOM      9  C   UNL     1       2.505   7.469  18.615  0.00  0.00    +0.000 A 
ATOM     10  C   UNL     1       2.124   7.900  19.899  0.00  0.00    +0.000 A 
BRANCH   9  11
ATOM     11  C   UNL     1       3.285   6.244  18.400  0.00  0.00    +0.000 A 
ATOM     12  N   UNL     1       4.510   6.208  17.909  0.00  0.00    +0.000 NA
ATOM     13  N   UNL     1       4.961   4.916  17.944  0.00  0.00    +0.000 NA
ATOM     14  C   UNL     1       4.001   4.158  18.430  0.00  0.00    +0.000 A 
ATOM     15  N   UNL     1       2.893   4.942  18.650  0.00  0.00    +0.000 N 
ATOM     16  C   UNL     1       1.567   4.497  19.028  0.00  0.00    +0.000 C 
ATOM     17  C   UNL     1       1.159   3.147  18.453  0.00  0.00    +0.000 C 
ATOM     18  C   UNL     1       1.738   1.958  19.216  0.00  0.00    +0.000 C 
ATOM     19  C   UNL     1       3.168   2.139  19.725  0.00  0.00    +0.000 C 
ATOM     20  C   UNL     1       4.120   2.689  18.671  0.00  0.00    +0.000 C 
ENDBRANCH   9  11
ENDBRANCH   3   5
BRANCH   2  21
ATOM     21  C   UNL     1      -0.350   9.594  23.429  0.00  0.00    +0.000 C 
BRANCH  21  22
ATOM     22  N   UNL     1      -1.417  10.577  23.395  0.00  0.00    +0.000 N 
ATOM     23  C   UNL     1      -1.218  11.823  22.848  0.00  0.00    +0.000 C 
ATOM     24  O   UNL     1      -0.128  12.184  22.415  0.00  0.00    +0.000 OA
ATOM     25  H   UNL     1      -2.316  10.305  23.773  0.00  0.00    +0.000 HD
BRANCH  23  26
ATOM     26  C   UNL     1      -2.403  12.722  22.774  0.00  0.00    +0.000 A 
ATOM     27  C   UNL     1      -3.438  12.518  21.852  0.00  0.00    +0.000 A 
ATOM     28  C   UNL     1      -4.534  13.386  21.826  0.00  0.00    +0.000 A 
ATOM     29  C   UNL     1      -4.602  14.458  22.717  0.00  0.00    +0.000 A 
ATOM     30  C   UNL     1      -3.573  14.655  23.638  0.00  0.00    +0.000 A 
ATOM     31 BR   UNL     1      -3.671  16.106  24.848  0.00  0.00    +0.000 Br
ATOM     32  C   UNL     1      -2.477  13.795  23.675  0.00  0.00    +0.000 A 
ENDBRANCH  23  26
ENDBRANCH  21  22
ENDBRANCH   2  21
TORSDOF 5
ENDMDL
MODEL 6
REMARK VINA RESULT:      -8.8      6.601      9.530
REMARK  Name = 
REMARK  5 active torsions:
REMARK  status: ('A' for Active; 'I' for Inactive)
REMARK    1  A    between atoms: C_2  and  C_3
REMARK    2  A    between atoms: C_3  and  N_4
REMARK    3  A    between atoms: C_5  and  C_7
REMARK    4  A    between atoms: N_14  and  C_15
REMARK    5  A    between atoms: C_19  and  C_20
REMARK                            x       y       z     vdW  Elec       q    Type
REMARK                         _______ _______ _______ _____ _____    ______ ____
ROOT
ATOM      1  O   UNL     1      -0.799   8.032  21.698  0.00  0.00    +0.000 OA
ATOM      2  C   UNL     1      -0.152   9.015  22.053  0.00  0.00    +0.000 C 
ATOM      3  N   UNL     1       0.923   9.573  21.381  0.00  0.00    +0.000 N 
ATOM      4  H   UNL     1       1.529  10.171  21.941  0.00  0.00    +0.000 HD
ENDROOT
BRANCH   3   5
ATOM      5  C   UNL     1       1.354   9.256  20.075  0.00  0.00    +0.000 A 
ATOM      6  C   UNL     1       1.311  10.149  19.006  0.00  0.00    +0.000 A 
ATOM      7  C   UNL     1       1.736   9.756  17.735  0.00  0.00    +0.000 A 
ATOM      8  C   UNL     1       2.211   8.462  17.523  0.00  0.00    +0.000 A 
ATOM      9  C   UNL     1       2.294   7.553  18.585  0.00  0.00    +0.000 A 
ATOM     10  C   UNL     1       1.892   7.978  19.864  0.00  0.00    +0.000 A 
BRANCH   9  11
ATOM     11  C   UNL     1       2.845   6.215  18.341  0.00  0.00    +0.000 A 
ATOM     12  N   UNL     1       2.314   5.090  18.782  0.00  0.00    +0.000 NA
ATOM     13  N   UNL     1       3.032   4.037  18.282  0.00  0.00    +0.000 NA
ATOM     14  C   UNL     1       4.020   4.519  17.559  0.00  0.00    +0.000 A 
ATOM     15  N   UNL     1       3.993   5.892  17.641  0.00  0.00    +0.000 N 
ATOM     16  C   UNL     1       4.983   6.818  17.132  0.00  0.00    +0.000 C 
ATOM     17  C   UNL     1       6.419   6.310  17.184  0.00  0.00    +0.000 C 
ATOM     18  C   UNL     1       6.771   5.360  16.041  0.00  0.00    +0.000 C 
ATOM     19  C   UNL     1       5.662   4.393  15.627  0.00  0.00    +0.000 C 
ATOM     20  C   UNL     1       5.004   3.687  16.805  0.00  0.00    +0.000 C 
ENDBRANCH   9  11
ENDBRANCH   3   5
BRANCH   2  21
ATOM     21  C   UNL     1      -0.434   9.684  23.398  0.00  0.00    +0.000 C 
BRANCH  21  22
ATOM     22  N   UNL     1      -1.495  10.667  23.285  0.00  0.00    +0.000 N 
ATOM     23  C   UNL     1      -1.230  11.954  22.877  0.00  0.00    +0.000 C 
ATOM     24  O   UNL     1      -0.091  12.348  22.644  0.00  0.00    +0.000 OA
ATOM     25  H   UNL     1      -2.436  10.366  23.500  0.00  0.00    +0.000 HD
BRANCH  23  26
ATOM     26  C   UNL     1      -2.400  12.858  22.701  0.00  0.00    +0.000 A 
ATOM     27  C   UNL     1      -2.330  14.026  21.930  0.00  0.00    +0.000 A 
ATOM     28  C   UNL     1      -3.458  14.840  21.788  0.00  0.00    +0.000 A 
ATOM     29  C   UNL     1      -4.657  14.493  22.411  0.00  0.00    +0.000 A 
ATOM     30  C   UNL     1      -4.726  13.326  23.173  0.00  0.00    +0.000 A 
ATOM     31 BR   UNL     1      -6.354  12.856  24.012  0.00  0.00    +0.000 Br
ATOM     32  C   UNL     1      -3.608  12.506  23.320  0.00  0.00    +0.000 A 
ENDBRANCH  23  26
ENDBRANCH  21  22
ENDBRANCH   2  21
TORSDOF 5
ENDMDL
MODEL 7
REMARK VINA RESULT:      -8.8      5.336      8.606
REMARK  Name = 
REMARK  5 active torsions:
REMARK  status: ('A' for Active; 'I' for Inactive)
REMARK    1  A    between atoms: C_2  and  C_3
REMARK    2  A    between atoms: C_3  and  N_4
REMARK    3  A    between atoms: C_5  and  C_7
REMARK    4  A    between atoms: N_14  and  C_15
REMARK    5  A    between atoms: C_19  and  C_20
REMARK                            x       y       z     vdW  Elec       q    Type
REMARK                         _______ _______ _______ _____ _____    ______ ____
ROOT
ATOM      1  O   UNL     1       1.738   8.147  19.641  0.00  0.00    +0.000 OA
ATOM      2  C   UNL     1       1.524   7.756  20.786  0.00  0.00    +0.000 C 
ATOM      3  N   UNL     1       1.357   6.439  21.184  0.00  0.00    +0.000 N 
ATOM      4  H   UNL     1       0.891   6.306  22.079  0.00  0.00    +0.000 HD
ENDROOT
BRANCH   3   5
ATOM      5  C   UNL     1       1.600   5.289  20.402  0.00  0.00    +0.000 A 
ATOM      6  C   UNL     1       0.814   4.139  20.451  0.00  0.00    +0.000 A 
ATOM      7  C   UNL     1       1.129   3.030  19.662  0.00  0.00    +0.000 A 
ATOM      8  C   UNL     1       2.235   3.064  18.814  0.00  0.00    +0.000 A 
ATOM      9  C   UNL     1       3.026   4.217  18.722  0.00  0.00    +0.000 A 
ATOM     10  C   UNL     1       2.673   5.334  19.501  0.00  0.00    +0.000 A 
BRANCH   9  11
ATOM     11  C   UNL     1       4.153   4.240  17.784  0.00  0.00    +0.000 A 
ATOM     12  N   UNL     1       4.215   3.545  16.663  0.00  0.00    +0.000 NA
ATOM     13  N   UNL     1       5.358   3.889  15.993  0.00  0.00    +0.000 NA
ATOM     14  C   UNL     1       6.010   4.772  16.718  0.00  0.00    +0.000 A 
ATOM     15  N   UNL     1       5.329   4.958  17.898  0.00  0.00    +0.000 N 
ATOM     16  C   UNL     1       5.767   5.719  19.050  0.00  0.00    +0.000 C 
ATOM     17  C   UNL     1       7.270   5.691  19.300  0.00  0.00    +0.000 C 
ATOM     18  C   UNL     1       8.055   6.652  18.410  0.00  0.00    +0.000 C 
ATOM     19  C   UNL     1       7.550   6.775  16.972  0.00  0.00    +0.000 C 
ATOM     20  C   UNL     1       7.286   5.430  16.307  0.00  0.00    +0.000 C 
ENDBRANCH   9  11
ENDBRANCH   3   5
BRANCH   2  21
ATOM     21  C   UNL     1       1.309   8.758  21.920  0.00  0.00    +0.000 C 
BRANCH  21  22
ATOM     22  N   UNL     1       0.272   9.716  21.585  0.00  0.00    +0.000 N 
ATOM     23  C   UNL     1      -0.399  10.408  22.567  0.00  0.00    +0.000 C 
ATOM     24  O   UNL     1      -0.198  10.214  23.762  0.00  0.00    +0.000 OA
ATOM     25  H   UNL     1       0.075   9.868  20.605  0.00  0.00    +0.000 HD
BRANCH  23  26
ATOM     26  C   UNL     1      -1.375  11.438  22.116  0.00  0.00    +0.000 A 
ATOM     27  C   UNL     1      -1.403  11.912  20.797  0.00  0.00    +0.000 A 
ATOM     28  C   UNL     1      -2.344  12.875  20.420  0.00  0.00    +0.000 A 
ATOM     29  C   UNL     1      -3.259  13.367  21.352  0.00  0.00    +0.000 A 
ATOM     30  C   UNL     1      -3.233  12.888  22.661  0.00  0.00    +0.000 A 
ATOM     31 BR   UNL     1      -4.478  13.553  23.921  0.00  0.00    +0.000 Br
ATOM     32  C   UNL     1      -2.301  11.926  23.049  0.00  0.00    +0.000 A 
ENDBRANCH  23  26
ENDBRANCH  21  22
ENDBRANCH   2  21
TORSDOF 5
ENDMDL
MODEL 8
REMARK VINA RESULT:      -8.8      5.751      9.127
REMARK  Name = 
REMARK  5 active torsions:
REMARK  status: ('A' for Active; 'I' for Inactive)
REMARK    1  A    between atoms: C_2  and  C_3
REMARK    2  A    between atoms: C_3  and  N_4
REMARK    3  A    between atoms: C_5  and  C_7
REMARK    4  A    between atoms: N_14  and  C_15
REMARK    5  A    between atoms: C_19  and  C_20
REMARK                            x       y       z     vdW  Elec       q    Type
REMARK                         _______ _______ _______ _____ _____    ______ ____
ROOT
ATOM      1  O   UNL     1       2.294   8.999  17.518  0.00  0.00    +0.000 OA
ATOM      2  C   UNL     1       1.686   9.331  18.533  0.00  0.00    +0.000 C 
ATOM      3  N   UNL     1       1.410   8.522  19.623  0.00  0.00    +0.000 N 
ATOM      4  H   UNL     1       0.654   8.839  20.226  0.00  0.00    +0.000 HD
ENDROOT
BRANCH   3   5
ATOM      5  C   UNL     1       1.941   7.237  19.871  0.00  0.00    +0.000 A 
ATOM      6  C   UNL     1       1.281   6.257  20.610  0.00  0.00    +0.000 A 
ATOM      7  C   UNL     1       1.880   5.013  20.832  0.00  0.00    +0.000 A 
ATOM      8  C   UNL     1       3.144   4.741  20.312  0.00  0.00    +0.000 A 
ATOM      9  C   UNL     1       3.817   5.696  19.541  0.00  0.00    +0.000 A 
ATOM     10  C   UNL     1       3.185   6.930  19.301  0.00  0.00    +0.000 A 
BRANCH   9  11
ATOM     11  C   UNL     1       5.125   5.362  18.966  0.00  0.00    +0.000 A 
ATOM     12  N   UNL     1       6.229   5.172  19.665  0.00  0.00    +0.000 NA
ATOM     13  N   UNL     1       7.227   4.778  18.815  0.00  0.00    +0.000 NA
ATOM     14  C   UNL     1       6.741   4.756  17.592  0.00  0.00    +0.000 A 
ATOM     15  N   UNL     1       5.441   5.203  17.629  0.00  0.00    +0.000 N 
ATOM     16  C   UNL     1       4.581   5.489  16.499  0.00  0.00    +0.000 C 
ATOM     17  C   UNL     1       5.300   6.042  15.274  0.00  0.00    +0.000 C 
ATOM     18  C   UNL     1       5.989   4.968  14.435  0.00  0.00    +0.000 C 
ATOM     19  C   UNL     1       6.647   3.838  15.226  0.00  0.00    +0.000 C 
ATOM     20  C   UNL     1       7.507   4.332  16.383  0.00  0.00    +0.000 C 
ENDBRANCH   9  11
ENDBRANCH   3   5
BRANCH   2  21
ATOM     21  C   UNL     1       1.057  10.720  18.641  0.00  0.00    +0.000 C 
BRANCH  21  22
ATOM     22  N   UNL     1      -0.362  10.678  18.343  0.00  0.00    +0.000 N 
ATOM     23  C   UNL     1      -1.175  11.756  18.607  0.00  0.00    +0.000 C 
ATOM     24  O   UNL     1      -0.759  12.775  19.151  0.00  0.00    +0.000 OA
ATOM     25  H   UNL     1      -0.727   9.835  17.919  0.00  0.00    +0.000 HD
BRANCH  23  26
ATOM     26  C   UNL     1      -2.596  11.649  18.175  0.00  0.00    +0.000 A 
ATOM     27  C   UNL     1      -2.954  11.242  16.883  0.00  0.00    +0.000 A 
ATOM     28  C   UNL     1      -4.303  11.150  16.527  0.00  0.00    +0.000 A 
ATOM     29  C   UNL     1      -5.297  11.461  17.455  0.00  0.00    +0.000 A 
ATOM     30  C   UNL     1      -4.938  11.859  18.742  0.00  0.00    +0.000 A 
ATOM     31 BR   UNL     1      -6.288  12.275  20.000  0.00  0.00    +0.000 Br
ATOM     32  C   UNL     1      -3.597  11.953  19.110  0.00  0.00    +0.000 A 
ENDBRANCH  23  26
ENDBRANCH  21  22
ENDBRANCH   2  21
TORSDOF 5
ENDMDL
MODEL 9
REMARK VINA RESULT:      -8.7      6.870      9.146
REMARK  Name = 
REMARK  5 active torsions:
REMARK  status: ('A' for Active; 'I' for Inactive)
REMARK    1  A    between atoms: C_2  and  C_3
REMARK    2  A    between atoms: C_3  and  N_4
REMARK    3  A    between atoms: C_5  and  C_7
REMARK    4  A    between atoms: N_14  and  C_15
REMARK    5  A    between atoms: C_19  and  C_20
REMARK                            x       y       z     vdW  Elec       q    Type
REMARK                         _______ _______ _______ _____ _____    ______ ____
ROOT
ATOM      1  O   UNL     1      -0.777   8.164  21.994  0.00  0.00    +0.000 OA
ATOM      2  C   UNL     1      -0.357   9.315  22.099  0.00  0.00    +0.000 C 
ATOM      3  N   UNL     1       0.611   9.909  21.307  0.00  0.00    +0.000 N 
ATOM      4  H   UNL     1       1.059  10.733  21.703  0.00  0.00    +0.000 HD
ENDROOT
BRANCH   3   5
ATOM      5  C   UNL     1       1.153   9.389  20.111  0.00  0.00    +0.000 A 
ATOM      6  C   UNL     1       1.107  10.054  18.887  0.00  0.00    +0.000 A 
ATOM      7  C   UNL     1       1.647   9.466  17.740  0.00  0.00    +0.000 A 
ATOM      8  C   UNL     1       2.239   8.207  17.810  0.00  0.00    +0.000 A 
ATOM      9  C   UNL     1       2.326   7.528  19.032  0.00  0.00    +0.000 A 
ATOM     10  C   UNL     1       1.806   8.150  20.182  0.00  0.00    +0.000 A 
BRANCH   9  11
ATOM     11  C   UNL     1       3.000   6.226  19.083  0.00  0.00    +0.000 A 
ATOM     12  N   UNL     1       4.140   5.944  18.480  0.00  0.00    +0.000 NA
ATOM     13  N   UNL     1       4.522   4.676  18.827  0.00  0.00    +0.000 NA
ATOM     14  C   UNL     1       3.600   4.172  19.620  0.00  0.00    +0.000 A 
ATOM     15  N   UNL     1       2.577   5.084  19.738  0.00  0.00    +0.000 N 
ATOM     16  C   UNL     1       1.296   4.883  20.382  0.00  0.00    +0.000 C 
ATOM     17  C   UNL     1       0.739   3.469  20.268  0.00  0.00    +0.000 C 
ATOM     18  C   UNL     1       1.355   2.489  21.264  0.00  0.00    +0.000 C 
ATOM     19  C   UNL     1       2.849   2.672  21.526  0.00  0.00    +0.000 C 
ATOM     20  C   UNL     1       3.672   2.822  20.253  0.00  0.00    +0.000 C 
ENDBRANCH   9  11
ENDBRANCH   3   5
BRANCH   2  21
ATOM     21  C   UNL     1      -0.825  10.208  23.248  0.00  0.00    +0.000 C 
BRANCH  21  22
ATOM     22  N   UNL     1      -1.095  11.557  22.789  0.00  0.00    +0.000 N 
ATOM     23  C   UNL     1      -2.274  12.192  23.104  0.00  0.00    +0.000 C 
ATOM     24  O   UNL     1      -3.171  11.638  23.733  0.00  0.00    +0.000 OA
ATOM     25  H   UNL     1      -0.378  12.019  22.245  0.00  0.00    +0.000 HD
BRANCH  23  26
ATOM     26  C   UNL     1      -2.414  13.608  22.666  0.00  0.00    +0.000 A 
ATOM     27  C   UNL     1      -1.722  14.118  21.559  0.00  0.00    +0.000 A 
ATOM     28  C   UNL     1      -1.891  15.455  21.183  0.00  0.00    +0.000 A 
ATOM     29  C   UNL     1      -2.748  16.285  21.906  0.00  0.00    +0.000 A 
ATOM     30  C   UNL     1      -3.440  15.772  23.004  0.00  0.00    +0.000 A 
ATOM     31 BR   UNL     1      -4.605  16.899  23.979  0.00  0.00    +0.000 Br
ATOM     32  C   UNL     1      -3.281  14.442  23.387  0.00  0.00    +0.000 A 
ENDBRANCH  23  26
ENDBRANCH  21  22
ENDBRANCH   2  21
TORSDOF 5
ENDMDL
