MODEL 1
REMARK VINA RESULT:      -8.3      0.000      0.000
REMARK  Name = 
REMARK  4 active torsions:
REMARK  status: ('A' for Active; 'I' for Inactive)
REMARK    1  A    between atoms: C_3  and  C_4
REMARK    2  A    between atoms: C_7  and  C_8
REMARK    3  A    between atoms: C_8  and  N_9
REMARK    4  A    between atoms: C_16  and  C_17
REMARK                            x       y       z     vdW  Elec       q    Type
REMARK                         _______ _______ _______ _____ _____    ______ ____
ROOT
ATOM      1  N   UNL     1       2.759   5.429  18.483  0.00  0.00    +0.000 N 
ATOM      2  C   UNL     1       4.092   5.178  18.250  0.00  0.00    +0.000 A 
ATOM      3  C   UNL     1       5.052   4.982  19.389  0.00  0.00    +0.000 A 
ATOM      4  C   UNL     1       6.342   4.755  19.122  0.00  0.00    +0.000 A 
ATOM      5  C   UNL     1       6.757   4.695  17.782  0.00  0.00    +0.000 A 
ATOM      6  N   UNL     1       7.932   4.490  17.231  0.00  0.00    +0.000 NA
ATOM      7  N   UNL     1       7.763   4.535  15.867  0.00  0.00    +0.000 NA
ATOM      8  C   UNL     1       6.487   4.760  15.619  0.00  0.00    +0.000 A 
ATOM      9  N   UNL     1       5.798   4.873  16.807  0.00  0.00    +0.000 N 
ATOM     10  N   UNL     1       4.457   5.123  16.992  0.00  0.00    +0.000 NA
ATOM     11  H   UNL     1       2.264   5.689  17.634  0.00  0.00    +0.000 HD
ENDROOT
BRANCH   8  12
ATOM     12  C   UNL     1       5.902   4.867  14.219  0.00  0.00    +0.000 C 
ATOM     13  C   UNL     1       5.490   3.582  13.523  0.00  0.00    +0.000 C 
ATOM     14  C   UNL     1       6.706   4.306  13.060  0.00  0.00    +0.000 C 
ENDBRANCH   8  12
BRANCH   1  15
ATOM     15  C   UNL     1       2.244   6.044  19.687  0.00  0.00    +0.000 C 
BRANCH  15  19
ATOM     16  C   UNL     1       1.206  10.208  19.043  0.00  0.00    +0.000 A 
ATOM     17  C   UNL     1       1.788   9.450  18.019  0.00  0.00    +0.000 A 
ATOM     18  C   UNL     1       2.152   8.115  18.233  0.00  0.00    +0.000 A 
ATOM     19  C   UNL     1       1.923   7.503  19.472  0.00  0.00    +0.000 A 
ATOM     20  C   UNL     1       1.358   8.265  20.502  0.00  0.00    +0.000 A 
ATOM     21  C   UNL     1       0.999   9.602  20.288  0.00  0.00    +0.000 A 
BRANCH  16  24
ATOM     22  C   UNL     1       0.586  13.800  18.642  0.00  0.00    +0.000 A 
ATOM     23  C   UNL     1       1.466  12.791  19.071  0.00  0.00    +0.000 A 
ATOM     24  C   UNL     1       0.820  11.598  18.798  0.00  0.00    +0.000 A 
ATOM     25  N   UNL     1      -0.374  11.975  18.235  0.00  0.00    +0.000 N 
ATOM     26  N   UNL     1      -0.537  13.305  18.125  0.00  0.00    +0.000 NA
ATOM     27  H   UNL     1      -1.130  11.376  17.923  0.00  0.00    +0.000 HD
ENDBRANCH  16  24
ENDBRANCH  15  19
ENDBRANCH   1  15
TORSDOF 4
ENDMDL
MODEL 2
REMARK VINA RESULT:      -8.0      2.522      9.128
REMARK  Name = 
REMARK  4 active torsions:
REMARK  status: ('A' for Active; 'I' for Inactive)
REMARK    1  A    between atoms: C_3  and  C_4
REMARK    2  A    between atoms: C_7  and  C_8
REMARK    3  A    between atoms: C_8  and  N_9
REMARK    4  A    between atoms: C_16  and  C_17
REMARK                            x       y       z     vdW  Elec       q    Type
REMARK                         _______ _______ _______ _____ _____    ______ ____
ROOT
ATOM      1  N   UNL     1       1.643   8.343  19.713  0.00  0.00    +0.000 N 
ATOM      2  C   UNL     1       0.960   9.063  20.666  0.00  0.00    +0.000 A 
ATOM      3  C   UNL     1       1.118   8.753  22.128  0.00  0.00    +0.000 A 
ATOM      4  C   UNL     1       0.426   9.466  23.022  0.00  0.00    +0.000 A 
ATOM      5  C   UNL     1      -0.418  10.491  22.566  0.00  0.00    +0.000 A 
ATOM      6  N   UNL     1      -1.200  11.337  23.199  0.00  0.00    +0.000 NA
ATOM      7  N   UNL     1      -1.803  12.131  22.253  0.00  0.00    +0.000 NA
ATOM      8  C   UNL     1      -1.369  11.754  21.065  0.00  0.00    +0.000 A 
ATOM      9  N   UNL     1      -0.484  10.708  21.206  0.00  0.00    +0.000 N 
ATOM     10  N   UNL     1       0.181  10.017  20.219  0.00  0.00    +0.000 NA
ATOM     11  H   UNL     1       1.327   8.557  18.771  0.00  0.00    +0.000 HD
ENDROOT
BRANCH   8  12
ATOM     12  C   UNL     1      -1.802  12.405  19.759  0.00  0.00    +0.000 C 
ATOM     13  C   UNL     1      -3.250  12.239  19.332  0.00  0.00    +0.000 C 
ATOM     14  C   UNL     1      -2.183  11.503  18.599  0.00  0.00    +0.000 C 
ENDBRANCH   8  12
BRANCH   1  15
ATOM     15  C   UNL     1       2.102   6.982  19.893  0.00  0.00    +0.000 C 
BRANCH  15  19
ATOM     16  C   UNL     1       4.772   5.731  16.709  0.00  0.00    +0.000 A 
ATOM     17  C   UNL     1       4.362   7.066  16.814  0.00  0.00    +0.000 A 
ATOM     18  C   UNL     1       3.476   7.467  17.821  0.00  0.00    +0.000 A 
ATOM     19  C   UNL     1       2.998   6.544  18.759  0.00  0.00    +0.000 A 
ATOM     20  C   UNL     1       3.393   5.205  18.644  0.00  0.00    +0.000 A 
ATOM     21  C   UNL     1       4.275   4.804  17.633  0.00  0.00    +0.000 A 
BRANCH  16  24
ATOM     22  C   UNL     1       6.826   4.450  13.954  0.00  0.00    +0.000 A 
ATOM     23  C   UNL     1       5.580   4.443  14.604  0.00  0.00    +0.000 A 
ATOM     24  C   UNL     1       5.708   5.332  15.657  0.00  0.00    +0.000 A 
ATOM     25  N   UNL     1       6.997   5.796  15.560  0.00  0.00    +0.000 N 
ATOM     26  N   UNL     1       7.694   5.280  14.532  0.00  0.00    +0.000 NA
ATOM     27  H   UNL     1       7.469   6.450  16.174  0.00  0.00    +0.000 HD
ENDBRANCH  16  24
ENDBRANCH  15  19
ENDBRANCH   1  15
TORSDOF 4
ENDMDL
MODEL 3
REMARK VINA RESULT:      -7.9      2.288      9.173
REMARK  Name = 
REMARK  4 active torsions:
REMARK  status: ('A' for Active; 'I' for Inactive)
REMARK    1  A    between atoms: C_3  and  C_4
REMARK    2  A    between atoms: C_7  and  C_8
REMARK    3  A    between atoms: C_8  and  N_9
REMARK    4  A    between atoms: C_16  and  C_17
REMARK                            x       y       z     vdW  Elec       q    Type
REMARK                         _______ _______ _______ _____ _____    ______ ____
ROOT
ATOM      1  N   UNL     1       1.776   8.368  19.647  0.00  0.00    +0.000 N 
ATOM      2  C   UNL     1       1.083   9.078  20.601  0.00  0.00    +0.000 A 
ATOM      3  C   UNL     1       1.077   8.638  22.038  0.00  0.00    +0.000 A 
ATOM      4  C   UNL     1       0.380   9.346  22.932  0.00  0.00    +0.000 A 
ATOM      5  C   UNL     1      -0.316  10.486  22.501  0.00  0.00    +0.000 A 
ATOM      6  N   UNL     1      -1.066  11.356  23.140  0.00  0.00    +0.000 NA
ATOM      7  N   UNL     1      -1.501  12.282  22.221  0.00  0.00    +0.000 NA
ATOM      8  C   UNL     1      -1.000  11.957  21.044  0.00  0.00    +0.000 A 
ATOM      9  N   UNL     1      -0.237  10.817  21.164  0.00  0.00    +0.000 N 
ATOM     10  N   UNL     1       0.444  10.141  20.178  0.00  0.00    +0.000 NA
ATOM     11  H   UNL     1       1.569   8.689  18.705  0.00  0.00    +0.000 HD
ENDROOT
BRANCH   8  12
ATOM     12  C   UNL     1      -1.248  12.751  19.770  0.00  0.00    +0.000 C 
ATOM     13  C   UNL     1      -0.077  13.508  19.168  0.00  0.00    +0.000 C 
ATOM     14  C   UNL     1      -1.168  14.265  19.840  0.00  0.00    +0.000 C 
ENDBRANCH   8  12
BRANCH   1  15
ATOM     15  C   UNL     1       2.083   6.957  19.743  0.00  0.00    +0.000 C 
BRANCH  15  19
ATOM     16  C   UNL     1       4.841   5.726  16.627  0.00  0.00    +0.000 A 
ATOM     17  C   UNL     1       4.322   4.792  17.532  0.00  0.00    +0.000 A 
ATOM     18  C   UNL     1       3.456   5.190  18.558  0.00  0.00    +0.000 A 
ATOM     19  C   UNL     1       3.074   6.531  18.687  0.00  0.00    +0.000 A 
ATOM     20  C   UNL     1       3.606   7.469  17.794  0.00  0.00    +0.000 A 
ATOM     21  C   UNL     1       4.476   7.070  16.772  0.00  0.00    +0.000 A 
BRANCH  16  24
ATOM     22  C   UNL     1       6.784   4.354  13.836  0.00  0.00    +0.000 A 
ATOM     23  C   UNL     1       5.560   4.379  14.527  0.00  0.00    +0.000 A 
ATOM     24  C   UNL     1       5.735   5.290  15.554  0.00  0.00    +0.000 A 
ATOM     25  N   UNL     1       7.026   5.735  15.402  0.00  0.00    +0.000 N 
ATOM     26  N   UNL     1       7.681   5.187  14.364  0.00  0.00    +0.000 NA
ATOM     27  H   UNL     1       7.526   6.397  15.985  0.00  0.00    +0.000 HD
ENDBRANCH  16  24
ENDBRANCH  15  19
ENDBRANCH   1  15
TORSDOF 4
ENDMDL
MODEL 4
REMARK VINA RESULT:      -7.9      3.446      5.337
REMARK  Name = 
REMARK  4 active torsions:
REMARK  status: ('A' for Active; 'I' for Inactive)
REMARK    1  A    between atoms: C_3  and  C_4
REMARK    2  A    between atoms: C_7  and  C_8
REMARK    3  A    between atoms: C_8  and  N_9
REMARK    4  A    between atoms: C_16  and  C_17
REMARK                            x       y       z     vdW  Elec       q    Type
REMARK                         _______ _______ _______ _____ _____    ______ ____
ROOT
ATOM      1  N   UNL     1       1.449   8.893  19.277  0.00  0.00    +0.000 N 
ATOM      2  C   UNL     1       2.173   7.819  18.812  0.00  0.00    +0.000 A 
ATOM      3  C   UNL     1       3.231   7.999  17.760  0.00  0.00    +0.000 A 
ATOM      4  C   UNL     1       3.903   6.929  17.324  0.00  0.00    +0.000 A 
ATOM      5  C   UNL     1       3.606   5.670  17.872  0.00  0.00    +0.000 A 
ATOM      6  N   UNL     1       4.093   4.472  17.644  0.00  0.00    +0.000 NA
ATOM      7  N   UNL     1       3.432   3.592  18.469  0.00  0.00    +0.000 NA
ATOM      8  C   UNL     1       2.561   4.278  19.185  0.00  0.00    +0.000 A 
ATOM      9  N   UNL     1       2.628   5.611  18.842  0.00  0.00    +0.000 N 
ATOM     10  N   UNL     1       1.882   6.655  19.339  0.00  0.00    +0.000 NA
ATOM     11  H   UNL     1       0.673   8.605  19.866  0.00  0.00    +0.000 HD
ENDROOT
BRANCH   8  12
ATOM     12  C   UNL     1       1.642   3.655  20.225  0.00  0.00    +0.000 C 
ATOM     13  C   UNL     1       2.107   3.655  21.671  0.00  0.00    +0.000 C 
ATOM     14  C   UNL     1       2.093   2.376  20.908  0.00  0.00    +0.000 C 
ENDBRANCH   8  12
BRANCH   1  15
ATOM     15  C   UNL     1       1.207  10.103  18.519  0.00  0.00    +0.000 C 
BRANCH  15  19
ATOM     16  C   UNL     1      -3.011  11.035  18.105  0.00  0.00    +0.000 A 
ATOM     17  C   UNL     1      -2.209  11.740  19.010  0.00  0.00    +0.000 A 
ATOM     18  C   UNL     1      -0.855  11.422  19.170  0.00  0.00    +0.000 A 
ATOM     19  C   UNL     1      -0.268  10.403  18.409  0.00  0.00    +0.000 A 
ATOM     20  C   UNL     1      -1.073   9.684  17.516  0.00  0.00    +0.000 A 
ATOM     21  C   UNL     1      -2.429  10.001  17.361  0.00  0.00    +0.000 A 
BRANCH  16  24
ATOM     22  C   UNL     1      -6.633  11.586  17.935  0.00  0.00    +0.000 A 
ATOM     23  C   UNL     1      -5.571  10.855  18.497  0.00  0.00    +0.000 A 
ATOM     24  C   UNL     1      -4.421  11.389  17.943  0.00  0.00    +0.000 A 
ATOM     25  N   UNL     1      -4.872  12.382  17.108  0.00  0.00    +0.000 N 
ATOM     26  N   UNL     1      -6.209  12.525  17.090  0.00  0.00    +0.000 NA
ATOM     27  H   UNL     1      -4.321  12.986  16.507  0.00  0.00    +0.000 HD
ENDBRANCH  16  24
ENDBRANCH  15  19
ENDBRANCH   1  15
TORSDOF 4
ENDMDL
MODEL 5
REMARK VINA RESULT:      -7.9      3.523      5.524
REMARK  Name = 
REMARK  4 active torsions:
REMARK  status: ('A' for Active; 'I' for Inactive)
REMARK    1  A    between atoms: C_3  and  C_4
REMARK    2  A    between atoms: C_7  and  C_8
REMARK    3  A    between atoms: C_8  and  N_9
REMARK    4  A    between atoms: C_16  and  C_17
REMARK                            x       y       z     vdW  Elec       q    Type
REMARK                         _______ _______ _______ _____ _____    ______ ____
ROOT
ATOM      1  N   UNL     1       1.324   9.249  19.324  0.00  0.00    +0.000 N 
ATOM      2  C   UNL     1       2.017   8.135  18.907  0.00  0.00    +0.000 A 
ATOM      3  C   UNL     1       3.055   8.232  17.825  0.00  0.00    +0.000 A 
ATOM      4  C   UNL     1       3.696   7.125  17.437  0.00  0.00    +0.000 A 
ATOM      5  C   UNL     1       3.388   5.907  18.065  0.00  0.00    +0.000 A 
ATOM      6  N   UNL     1       3.847   4.688  17.897  0.00  0.00    +0.000 NA
ATOM      7  N   UNL     1       3.188   3.871  18.786  0.00  0.00    +0.000 NA
ATOM      8  C   UNL     1       2.347   4.615  19.479  0.00  0.00    +0.000 A 
ATOM      9  N   UNL     1       2.431   5.924  19.058  0.00  0.00    +0.000 N 
ATOM     10  N   UNL     1       1.716   7.010  19.508  0.00  0.00    +0.000 NA
ATOM     11  H   UNL     1       0.556   9.011  19.946  0.00  0.00    +0.000 HD
ENDROOT
BRANCH   8  12
ATOM     12  C   UNL     1       1.440   4.072  20.574  0.00  0.00    +0.000 C 
ATOM     13  C   UNL     1       2.094   3.366  21.749  0.00  0.00    +0.000 C 
ATOM     14  C   UNL     1       1.341   2.567  20.743  0.00  0.00    +0.000 C 
ENDBRANCH   8  12
BRANCH   1  15
ATOM     15  C   UNL     1       1.088  10.417  18.502  0.00  0.00    +0.000 C 
BRANCH  15  19
ATOM     16  C   UNL     1      -3.174  11.165  18.169  0.00  0.00    +0.000 A 
ATOM     17  C   UNL     1      -2.569  10.139  17.433  0.00  0.00    +0.000 A 
ATOM     18  C   UNL     1      -1.190   9.914  17.514  0.00  0.00    +0.000 A 
ATOM     19  C   UNL     1      -0.387  10.700  18.351  0.00  0.00    +0.000 A 
ATOM     20  C   UNL     1      -0.988  11.738  19.074  0.00  0.00    +0.000 A 
ATOM     21  C   UNL     1      -2.368  11.965  18.988  0.00  0.00    +0.000 A 
BRANCH  16  24
ATOM     22  C   UNL     1      -6.837  11.336  18.161  0.00  0.00    +0.000 A 
ATOM     23  C   UNL     1      -5.684  10.683  18.627  0.00  0.00    +0.000 A 
ATOM     24  C   UNL     1      -4.619  11.377  18.081  0.00  0.00    +0.000 A 
ATOM     25  N   UNL     1      -5.204  12.377  17.343  0.00  0.00    +0.000 N 
ATOM     26  N   UNL     1      -6.548  12.377  17.379  0.00  0.00    +0.000 NA
ATOM     27  H   UNL     1      -4.744  13.080  16.775  0.00  0.00    +0.000 HD
ENDBRANCH  16  24
ENDBRANCH  15  19
ENDBRANCH   1  15
TORSDOF 4
ENDMDL
MODEL 6
REMARK VINA RESULT:      -7.8      2.936      3.759
REMARK  Name = 
REMARK  4 active torsions:
REMARK  status: ('A' for Active; 'I' for Inactive)
REMARK    1  A    between atoms: C_3  and  C_4
REMARK    2  A    between atoms: C_7  and  C_8
REMARK    3  A    between atoms: C_8  and  N_9
REMARK    4  A    between atoms: C_16  and  C_17
REMARK                            x       y       z     vdW  Elec       q    Type
REMARK                         _______ _______ _______ _____ _____    ______ ____
ROOT
ATOM      1  N   UNL     1       2.039   8.811  18.330  0.00  0.00    +0.000 N 
ATOM      2  C   UNL     1       2.621   7.585  18.556  0.00  0.00    +0.000 A 
ATOM      3  C   UNL     1       2.252   6.765  19.760  0.00  0.00    +0.000 A 
ATOM      4  C   UNL     1       2.850   5.586  19.953  0.00  0.00    +0.000 A 
ATOM      5  C   UNL     1       3.799   5.145  19.016  0.00  0.00    +0.000 A 
ATOM      6  N   UNL     1       4.528   4.055  18.946  0.00  0.00    +0.000 NA
ATOM      7  N   UNL     1       5.294   4.141  17.807  0.00  0.00    +0.000 NA
ATOM      8  C   UNL     1       5.006   5.280  17.206  0.00  0.00    +0.000 A 
ATOM      9  N   UNL     1       4.059   5.963  17.937  0.00  0.00    +0.000 N 
ATOM     10  N   UNL     1       3.501   7.192  17.668  0.00  0.00    +0.000 NA
ATOM     11  H   UNL     1       2.490   9.316  17.572  0.00  0.00    +0.000 HD
ENDROOT
BRANCH   8  12
ATOM     12  C   UNL     1       5.644   5.733  15.901  0.00  0.00    +0.000 C 
ATOM     13  C   UNL     1       5.592   4.781  14.720  0.00  0.00    +0.000 C 
ATOM     14  C   UNL     1       6.887   5.007  15.419  0.00  0.00    +0.000 C 
ENDBRANCH   8  12
BRANCH   1  15
ATOM     15  C   UNL     1       1.492   9.659  19.368  0.00  0.00    +0.000 C 
BRANCH  15  19
ATOM     16  C   UNL     1      -2.456  11.140  18.342  0.00  0.00    +0.000 A 
ATOM     17  C   UNL     1      -1.813  10.197  17.530  0.00  0.00    +0.000 A 
ATOM     18  C   UNL     1      -0.527   9.740  17.841  0.00  0.00    +0.000 A 
ATOM     19  C   UNL     1       0.137  10.202  18.985  0.00  0.00    +0.000 A 
ATOM     20  C   UNL     1      -0.497  11.159  19.787  0.00  0.00    +0.000 A 
ATOM     21  C   UNL     1      -1.782  11.619  19.472  0.00  0.00    +0.000 A 
BRANCH  16  24
ATOM     22  C   UNL     1      -5.774  12.119  17.125  0.00  0.00    +0.000 A 
ATOM     23  C   UNL     1      -4.588  11.405  16.884  0.00  0.00    +0.000 A 
ATOM     24  C   UNL     1      -3.805  11.598  18.008  0.00  0.00    +0.000 A 
ATOM     25  N   UNL     1      -4.568  12.398  18.824  0.00  0.00    +0.000 N 
ATOM     26  N   UNL     1      -5.768  12.723  18.313  0.00  0.00    +0.000 NA
ATOM     27  H   UNL     1      -4.320  12.773  19.733  0.00  0.00    +0.000 HD
ENDBRANCH  16  24
ENDBRANCH  15  19
ENDBRANCH   1  15
TORSDOF 4
ENDMDL
MODEL 7
REMARK VINA RESULT:      -7.8      2.382      9.268
REMARK  Name = 
REMARK  4 active torsions:
REMARK  status: ('A' for Active; 'I' for Inactive)
REMARK    1  A    between atoms: C_3  and  C_4
REMARK    2  A    between atoms: C_7  and  C_8
REMARK    3  A    between atoms: C_8  and  N_9
REMARK    4  A    between atoms: C_16  and  C_17
REMARK                            x       y       z     vdW  Elec       q    Type
REMARK                         _______ _______ _______ _____ _____    ______ ____
ROOT
ATOM      1  N   UNL     1       1.632   8.619  20.013  0.00  0.00    +0.000 N 
ATOM      2  C   UNL     1       0.842   9.327  20.890  0.00  0.00    +0.000 A 
ATOM      3  C   UNL     1       0.669   8.873  22.312  0.00  0.00    +0.000 A 
ATOM      4  C   UNL     1      -0.119   9.580  23.129  0.00  0.00    +0.000 A 
ATOM      5  C   UNL     1      -0.751  10.732  22.634  0.00  0.00    +0.000 A 
ATOM      6  N   UNL     1      -1.560  11.603  23.193  0.00  0.00    +0.000 NA
ATOM      7  N   UNL     1      -1.880  12.542  22.240  0.00  0.00    +0.000 NA
ATOM      8  C   UNL     1      -1.252  12.223  21.124  0.00  0.00    +0.000 A 
ATOM      9  N   UNL     1      -0.518  11.074  21.318  0.00  0.00    +0.000 N 
ATOM     10  N   UNL     1       0.264  10.400  20.408  0.00  0.00    +0.000 NA
ATOM     11  H   UNL     1       1.536   8.950  19.057  0.00  0.00    +0.000 HD
ENDROOT
BRANCH   8  12
ATOM     12  C   UNL     1      -1.346  13.032  19.839  0.00  0.00    +0.000 C 
ATOM     13  C   UNL     1      -0.096  13.750  19.361  0.00  0.00    +0.000 C 
ATOM     14  C   UNL     1      -1.222  14.542  19.929  0.00  0.00    +0.000 C 
ENDBRANCH   8  12
BRANCH   1  15
ATOM     15  C   UNL     1       1.913   7.204  20.129  0.00  0.00    +0.000 C 
BRANCH  15  19
ATOM     16  C   UNL     1       4.677   5.881  17.057  0.00  0.00    +0.000 A 
ATOM     17  C   UNL     1       4.063   7.137  16.973  0.00  0.00    +0.000 A 
ATOM     18  C   UNL     1       3.147   7.554  17.945  0.00  0.00    +0.000 A 
ATOM     19  C   UNL     1       2.841   6.731  19.037  0.00  0.00    +0.000 A 
ATOM     20  C   UNL     1       3.441   5.468  19.112  0.00  0.00    +0.000 A 
ATOM     21  C   UNL     1       4.353   5.049  18.136  0.00  0.00    +0.000 A 
BRANCH  16  24
ATOM     22  C   UNL     1       6.800   4.570  14.368  0.00  0.00    +0.000 A 
ATOM     23  C   UNL     1       5.529   4.594  14.968  0.00  0.00    +0.000 A 
ATOM     24  C   UNL     1       5.642   5.466  16.037  0.00  0.00    +0.000 A 
ATOM     25  N   UNL     1       6.947   5.891  15.997  0.00  0.00    +0.000 N 
ATOM     26  N   UNL     1       7.668   5.366  14.991  0.00  0.00    +0.000 NA
ATOM     27  H   UNL     1       7.414   6.523  16.638  0.00  0.00    +0.000 HD
ENDBRANCH  16  24
ENDBRANCH  15  19
ENDBRANCH   1  15
TORSDOF 4
ENDMDL
MODEL 8
REMARK VINA RESULT:      -7.7      3.190      4.941
REMARK  Name = 
REMARK  4 active torsions:
REMARK  status: ('A' for Active; 'I' for Inactive)
REMARK    1  A    between atoms: C_3  and  C_4
REMARK    2  A    between atoms: C_7  and  C_8
REMARK    3  A    between atoms: C_8  and  N_9
REMARK    4  A    between atoms: C_16  and  C_17
REMARK                            x       y       z     vdW  Elec       q    Type
REMARK                         _______ _______ _______ _____ _____    ______ ____
ROOT
ATOM      1  N   UNL     1       1.812   8.563  18.895  0.00  0.00    +0.000 N 
ATOM      2  C   UNL     1       2.629   7.499  18.589  0.00  0.00    +0.000 A 
ATOM      3  C   UNL     1       3.700   7.624  17.542  0.00  0.00    +0.000 A 
ATOM      4  C   UNL     1       4.464   6.564  17.263  0.00  0.00    +0.000 A 
ATOM      5  C   UNL     1       4.248   5.368  17.966  0.00  0.00    +0.000 A 
ATOM      6  N   UNL     1       4.832   4.192  17.907  0.00  0.00    +0.000 NA
ATOM      7  N   UNL     1       4.217   3.377  18.828  0.00  0.00    +0.000 NA
ATOM      8  C   UNL     1       3.276   4.079  19.432  0.00  0.00    +0.000 A 
ATOM      9  N   UNL     1       3.250   5.357  18.918  0.00  0.00    +0.000 N 
ATOM     10  N   UNL     1       2.413   6.394  19.259  0.00  0.00    +0.000 NA
ATOM     11  H   UNL     1       1.043   8.294  19.503  0.00  0.00    +0.000 HD
ENDROOT
BRANCH   8  12
ATOM     12  C   UNL     1       2.379   3.525  20.528  0.00  0.00    +0.000 C 
ATOM     13  C   UNL     1       1.293   2.542  20.125  0.00  0.00    +0.000 C 
ATOM     14  C   UNL     1       0.914   3.925  20.528  0.00  0.00    +0.000 C 
ENDBRANCH   8  12
BRANCH   1  15
ATOM     15  C   UNL     1       1.500   9.641  17.981  0.00  0.00    +0.000 C 
BRANCH  15  19
ATOM     16  C   UNL     1      -2.599  11.028  18.311  0.00  0.00    +0.000 A 
ATOM     17  C   UNL     1      -1.598  11.554  19.137  0.00  0.00    +0.000 A 
ATOM     18  C   UNL     1      -0.281  11.087  19.055  0.00  0.00    +0.000 A 
ATOM     19  C   UNL     1       0.068  10.097  18.128  0.00  0.00    +0.000 A 
ATOM     20  C   UNL     1      -0.936   9.557  17.314  0.00  0.00    +0.000 A 
ATOM     21  C   UNL     1      -2.254  10.021  17.401  0.00  0.00    +0.000 A 
BRANCH  16  24
ATOM     22  C   UNL     1      -6.121  12.045  18.219  0.00  0.00    +0.000 A 
ATOM     23  C   UNL     1      -5.127  11.175  17.739  0.00  0.00    +0.000 A 
ATOM     24  C   UNL     1      -3.968  11.536  18.403  0.00  0.00    +0.000 A 
ATOM     25  N   UNL     1      -4.349  12.575  19.216  0.00  0.00    +0.000 N 
ATOM     26  N   UNL     1      -5.650  12.899  19.127  0.00  0.00    +0.000 NA
ATOM     27  H   UNL     1      -3.765  13.120  19.841  0.00  0.00    +0.000 HD
ENDBRANCH  16  24
ENDBRANCH  15  19
ENDBRANCH   1  15
TORSDOF 4
ENDMDL
MODEL 9
REMARK VINA RESULT:      -7.7      3.505     10.250
REMARK  Name = 
REMARK  4 active torsions:
REMARK  status: ('A' for Active; 'I' for Inactive)
REMARK    1  A    between atoms: C_3  and  C_4
REMARK    2  A    between atoms: C_7  and  C_8
REMARK    3  A    between atoms: C_8  and  N_9
REMARK    4  A    between atoms: C_16  and  C_17
REMARK                            x       y       z     vdW  Elec       q    Type
REMARK                         _______ _______ _______ _____ _____    ______ ____
ROOT
ATOM      1  N   UNL     1      -0.076  10.743  19.289  0.00  0.00    +0.000 N 
ATOM      2  C   UNL     1      -1.321  10.790  18.705  0.00  0.00    +0.000 A 
ATOM      3  C   UNL     1      -1.631   9.975  17.481  0.00  0.00    +0.000 A 
ATOM      4  C   UNL     1      -2.848  10.059  16.934  0.00  0.00    +0.000 A 
ATOM      5  C   UNL     1      -3.803  10.899  17.530  0.00  0.00    +0.000 A 
ATOM      6  N   UNL     1      -5.051  11.174  17.222  0.00  0.00    +0.000 NA
ATOM      7  N   UNL     1      -5.520  12.070  18.154  0.00  0.00    +0.000 NA
ATOM      8  C   UNL     1      -4.547  12.315  19.012  0.00  0.00    +0.000 A 
ATOM      9  N   UNL     1      -3.427  11.595  18.659  0.00  0.00    +0.000 N 
ATOM     10  N   UNL     1      -2.198  11.577  19.279  0.00  0.00    +0.000 NA
ATOM     11  H   UNL     1       0.037  11.452  20.008  0.00  0.00    +0.000 HD
ENDROOT
BRANCH   8  12
ATOM     12  C   UNL     1      -4.684  13.254  20.201  0.00  0.00    +0.000 C 
ATOM     13  C   UNL     1      -4.987  12.640  21.557  0.00  0.00    +0.000 C 
ATOM     14  C   UNL     1      -6.050  13.402  20.846  0.00  0.00    +0.000 C 
ENDBRANCH   8  12
BRANCH   1  15
ATOM     15  C   UNL     1       1.143  10.408  18.584  0.00  0.00    +0.000 C 
BRANCH  15  19
ATOM     16  C   UNL     1       2.400   6.361  19.517  0.00  0.00    +0.000 A 
ATOM     17  C   UNL     1       1.809   7.169  20.496  0.00  0.00    +0.000 A 
ATOM     18  C   UNL     1       1.430   8.485  20.208  0.00  0.00    +0.000 A 
ATOM     19  C   UNL     1       1.617   9.016  18.924  0.00  0.00    +0.000 A 
ATOM     20  C   UNL     1       2.224   8.214  17.950  0.00  0.00    +0.000 A 
ATOM     21  C   UNL     1       2.607   6.899  18.241  0.00  0.00    +0.000 A 
BRANCH  16  24
ATOM     22  C   UNL     1       3.028   2.908  20.582  0.00  0.00    +0.000 A 
ATOM     23  C   UNL     1       2.185   4.031  20.643  0.00  0.00    +0.000 A 
ATOM     24  C   UNL     1       2.779   4.983  19.833  0.00  0.00    +0.000 A 
ATOM     25  N   UNL     1       3.911   4.369  19.356  0.00  0.00    +0.000 N 
ATOM     26  N   UNL     1       4.082   3.109  19.791  0.00  0.00    +0.000 NA
ATOM     27  H   UNL     1       4.620   4.762  18.746  0.00  0.00    +0.000 HD
ENDBRANCH  16  24
ENDBRANCH  15  19
ENDBRANCH   1  15
TORSDOF 4
ENDMDL
