MODEL 1
REMARK VINA RESULT:      -7.1      0.000      0.000
REMARK  Name = 
REMARK  3 active torsions:
REMARK  status: ('A' for Active; 'I' for Inactive)
REMARK    1  A    between atoms: C_14  and  C_15
REMARK    2  A    between atoms: N_22  and  C_23
REMARK    3  A    between atoms: C_23  and  C_24
REMARK                            x       y       z     vdW  Elec       q    Type
REMARK                         _______ _______ _______ _____ _____    ______ ____
ROOT
ATOM      1  O   UNL     1       0.438  10.066  22.654  0.00  0.00    +0.000 OA
ATOM      2  C   UNL     1       0.110  10.893  21.828  0.00  0.00    +0.000 C 
ATOM      3  C   UNL     1      -1.102  11.735  21.908  0.00  0.00    +0.000 A 
ATOM      4  O   UNL     1      -2.043  11.583  22.876  0.00  0.00    +0.000 OA
ATOM      5  C   UNL     1      -2.438  12.755  23.464  0.00  0.00    +0.000 A 
ATOM      6  C   UNL     1      -3.643  12.797  24.143  0.00  0.00    +0.000 A 
ATOM      7  C   UNL     1      -3.881  13.872  24.991  0.00  0.00    +0.000 A 
ATOM      8  C   UNL     1      -2.887  14.839  25.196  0.00  0.00    +0.000 A 
ATOM      9  C   UNL     1      -1.722  14.835  24.426  0.00  0.00    +0.000 A 
ATOM     10  C   UNL     1      -1.560  13.836  23.478  0.00  0.00    +0.000 A 
ATOM     11  C   UNL     1      -0.503  13.869  22.434  0.00  0.00    +0.000 A 
ATOM     12  O   UNL     1       0.437  14.646  22.513  0.00  0.00    +0.000 OA
ATOM     13  C   UNL     1      -0.647  12.860  21.355  0.00  0.00    +0.000 A 
ATOM     14  C   UNL     1       0.248  12.510  20.207  0.00  0.00    +0.000 C 
ATOM     15  N   UNL     1       0.710  11.164  20.582  0.00  0.00    +0.000 N 
ENDROOT
BRANCH  14  16
ATOM     16  C   UNL     1       1.250  13.603  19.835  0.00  0.00    +0.000 A 
ATOM     17  C   UNL     1       0.920  14.711  19.049  0.00  0.00    +0.000 A 
ATOM     18  C   UNL     1       1.917  15.603  18.622  0.00  0.00    +0.000 A 
ATOM     19  C   UNL     1       3.247  15.393  18.975  0.00  0.00    +0.000 A 
ATOM     20  F   UNL     1       4.196  16.237  18.540  0.00  0.00    +0.000 F 
ATOM     21  C   UNL     1       3.609  14.312  19.751  0.00  0.00    +0.000 A 
ATOM     22  C   UNL     1       2.614  13.424  20.182  0.00  0.00    +0.000 A 
ENDBRANCH  14  16
BRANCH  15  23
ATOM     23  C   UNL     1       0.323  10.009  19.780  0.00  0.00    +0.000 C 
BRANCH  23  24
ATOM     24  C   UNL     1       1.341   9.006  19.371  0.00  0.00    +0.000 A 
ATOM     25  C   UNL     1       1.644   7.889  20.136  0.00  0.00    +0.000 A 
ATOM     26  C   UNL     1       2.529   6.967  19.606  0.00  0.00    +0.000 A 
ATOM     27  N   UNL     1       3.101   7.071  18.383  0.00  0.00    +0.000 NA
ATOM     28  C   UNL     1       2.752   8.135  17.636  0.00  0.00    +0.000 A 
ATOM     29  C   UNL     1       1.876   9.109  18.075  0.00  0.00    +0.000 A 
ENDBRANCH  23  24
ENDBRANCH  15  23
TORSDOF 3
ENDMDL
MODEL 2
REMARK VINA RESULT:      -6.9      4.120      7.203
REMARK  Name = 
REMARK  3 active torsions:
REMARK  status: ('A' for Active; 'I' for Inactive)
REMARK    1  A    between atoms: C_14  and  C_15
REMARK    2  A    between atoms: N_22  and  C_23
REMARK    3  A    between atoms: C_23  and  C_24
REMARK                            x       y       z     vdW  Elec       q    Type
REMARK                         _______ _______ _______ _____ _____    ______ ____
ROOT
ATOM      1  O   UNL     1       1.083   8.896  17.097  0.00  0.00    +0.000 OA
ATOM      2  C   UNL     1       1.688   8.453  18.052  0.00  0.00    +0.000 C 
ATOM      3  C   UNL     1       1.888   9.165  19.332  0.00  0.00    +0.000 A 
ATOM      4  O   UNL     1       1.502  10.453  19.528  0.00  0.00    +0.000 OA
ATOM      5  C   UNL     1       0.823  10.663  20.698  0.00  0.00    +0.000 A 
ATOM      6  C   UNL     1       0.739  11.947  21.208  0.00  0.00    +0.000 A 
ATOM      7  C   UNL     1      -0.200  12.200  22.200  0.00  0.00    +0.000 A 
ATOM      8  C   UNL     1      -1.080  11.187  22.609  0.00  0.00    +0.000 A 
ATOM      9  C   UNL     1      -0.913   9.876  22.158  0.00  0.00    +0.000 A 
ATOM     10  C   UNL     1       0.123   9.607  21.275  0.00  0.00    +0.000 A 
ATOM     11  C   UNL     1       0.559   8.230  20.929  0.00  0.00    +0.000 A 
ATOM     12  O   UNL     1      -0.134   7.262  21.202  0.00  0.00    +0.000 OA
ATOM     13  C   UNL     1       1.840   8.140  20.183  0.00  0.00    +0.000 A 
ATOM     14  C   UNL     1       2.546   6.969  19.576  0.00  0.00    +0.000 C 
ATOM     15  N   UNL     1       2.422   7.254  18.137  0.00  0.00    +0.000 N 
ENDROOT
BRANCH  14  16
ATOM     16  C   UNL     1       2.121   5.615  20.142  0.00  0.00    +0.000 A 
ATOM     17  C   UNL     1       2.564   5.125  21.374  0.00  0.00    +0.000 A 
ATOM     18  C   UNL     1       2.254   3.815  21.773  0.00  0.00    +0.000 A 
ATOM     19  C   UNL     1       1.501   2.987  20.944  0.00  0.00    +0.000 A 
ATOM     20  F   UNL     1       1.233   1.727  21.323  0.00  0.00    +0.000 F 
ATOM     21  C   UNL     1       1.046   3.437  19.722  0.00  0.00    +0.000 A 
ATOM     22  C   UNL     1       1.351   4.745  19.326  0.00  0.00    +0.000 A 
ENDBRANCH  14  16
BRANCH  15  23
ATOM     23  C   UNL     1       3.611   7.546  17.344  0.00  0.00    +0.000 C 
BRANCH  23  24
ATOM     24  C   UNL     1       4.686   6.530  17.203  0.00  0.00    +0.000 A 
ATOM     25  C   UNL     1       4.424   5.188  16.964  0.00  0.00    +0.000 A 
ATOM     26  C   UNL     1       5.504   4.352  16.743  0.00  0.00    +0.000 A 
ATOM     27  N   UNL     1       6.795   4.758  16.723  0.00  0.00    +0.000 NA
ATOM     28  C   UNL     1       7.022   6.073  16.904  0.00  0.00    +0.000 A 
ATOM     29  C   UNL     1       6.013   6.987  17.130  0.00  0.00    +0.000 A 
ENDBRANCH  23  24
ENDBRANCH  15  23
TORSDOF 3
ENDMDL
MODEL 3
REMARK VINA RESULT:      -6.9      0.430      1.327
REMARK  Name = 
REMARK  3 active torsions:
REMARK  status: ('A' for Active; 'I' for Inactive)
REMARK    1  A    between atoms: C_14  and  C_15
REMARK    2  A    between atoms: N_22  and  C_23
REMARK    3  A    between atoms: C_23  and  C_24
REMARK                            x       y       z     vdW  Elec       q    Type
REMARK                         _______ _______ _______ _____ _____    ______ ____
ROOT
ATOM      1  O   UNL     1       0.339  10.304  22.872  0.00  0.00    +0.000 OA
ATOM      2  C   UNL     1       0.060  11.116  22.013  0.00  0.00    +0.000 C 
ATOM      3  C   UNL     1      -1.054  12.083  22.093  0.00  0.00    +0.000 A 
ATOM      4  O   UNL     1      -1.961  12.083  23.105  0.00  0.00    +0.000 OA
ATOM      5  C   UNL     1      -2.205  13.320  23.640  0.00  0.00    +0.000 A 
ATOM      6  C   UNL     1      -3.367  13.524  24.364  0.00  0.00    +0.000 A 
ATOM      7  C   UNL     1      -3.455  14.661  25.156  0.00  0.00    +0.000 A 
ATOM      8  C   UNL     1      -2.359  15.529  25.264  0.00  0.00    +0.000 A 
ATOM      9  C   UNL     1      -1.237  15.362  24.449  0.00  0.00    +0.000 A 
ATOM     10  C   UNL     1      -1.222  14.302  23.555  0.00  0.00    +0.000 A 
ATOM     11  C   UNL     1      -0.217  14.168  22.469  0.00  0.00    +0.000 A 
ATOM     12  O   UNL     1       0.800  14.846  22.465  0.00  0.00    +0.000 OA
ATOM     13  C   UNL     1      -0.512  13.122  21.458  0.00  0.00    +0.000 A 
ATOM     14  C   UNL     1       0.288  12.620  20.297  0.00  0.00    +0.000 C 
ATOM     15  N   UNL     1       0.627  11.255  20.731  0.00  0.00    +0.000 N 
ENDROOT
BRANCH  14  16
ATOM     16  C   UNL     1       1.378  13.581  19.822  0.00  0.00    +0.000 A 
ATOM     17  C   UNL     1       2.707  13.505  20.251  0.00  0.00    +0.000 A 
ATOM     18  C   UNL     1       3.628  14.502  19.892  0.00  0.00    +0.000 A 
ATOM     19  C   UNL     1       3.229  15.579  19.105  0.00  0.00    +0.000 A 
ATOM     20  F   UNL     1       4.111  16.540  18.790  0.00  0.00    +0.000 F 
ATOM     21  C   UNL     1       1.927  15.685  18.663  0.00  0.00    +0.000 A 
ATOM     22  C   UNL     1       1.008  14.689  19.017  0.00  0.00    +0.000 A 
ENDBRANCH  14  16
BRANCH  15  23
ATOM     23  C   UNL     1       0.088  10.105  20.013  0.00  0.00    +0.000 C 
BRANCH  23  24
ATOM     24  C   UNL     1       1.003   9.127  19.369  0.00  0.00    +0.000 A 
ATOM     25  C   UNL     1       1.510   9.304  18.090  0.00  0.00    +0.000 A 
ATOM     26  C   UNL     1       2.438   8.384  17.634  0.00  0.00    +0.000 A 
ATOM     27  N   UNL     1       2.899   7.338  18.359  0.00  0.00    +0.000 NA
ATOM     28  C   UNL     1       2.433   7.217  19.617  0.00  0.00    +0.000 A 
ATOM     29  C   UNL     1       1.508   8.084  20.164  0.00  0.00    +0.000 A 
ENDBRANCH  23  24
ENDBRANCH  15  23
TORSDOF 3
ENDMDL
MODEL 4
REMARK VINA RESULT:      -6.8      7.880     11.671
REMARK  Name = 
REMARK  3 active torsions:
REMARK  status: ('A' for Active; 'I' for Inactive)
REMARK    1  A    between atoms: C_14  and  C_15
REMARK    2  A    between atoms: N_22  and  C_23
REMARK    3  A    between atoms: C_23  and  C_24
REMARK                            x       y       z     vdW  Elec       q    Type
REMARK                         _______ _______ _______ _____ _____    ______ ____
ROOT
ATOM      1  O   UNL     1       8.494   3.925  17.709  0.00  0.00    +0.000 OA
ATOM      2  C   UNL     1       7.692   4.820  17.534  0.00  0.00    +0.000 C 
ATOM      3  C   UNL     1       7.290   5.349  16.213  0.00  0.00    +0.000 A 
ATOM      4  O   UNL     1       7.873   4.955  15.051  0.00  0.00    +0.000 OA
ATOM      5  C   UNL     1       6.985   4.649  14.054  0.00  0.00    +0.000 A 
ATOM      6  C   UNL     1       7.424   4.638  12.741  0.00  0.00    +0.000 A 
ATOM      7  C   UNL     1       6.620   4.029  11.786  0.00  0.00    +0.000 A 
ATOM      8  C   UNL     1       5.436   3.384  12.172  0.00  0.00    +0.000 A 
ATOM      9  C   UNL     1       4.960   3.496  13.481  0.00  0.00    +0.000 A 
ATOM     10  C   UNL     1       5.701   4.231  14.393  0.00  0.00    +0.000 A 
ATOM     11  C   UNL     1       5.183   4.634  15.725  0.00  0.00    +0.000 A 
ATOM     12  O   UNL     1       4.175   4.124  16.191  0.00  0.00    +0.000 OA
ATOM     13  C   UNL     1       6.009   5.632  16.452  0.00  0.00    +0.000 A 
ATOM     14  C   UNL     1       5.883   6.198  17.831  0.00  0.00    +0.000 C 
ATOM     15  N   UNL     1       7.061   5.624  18.502  0.00  0.00    +0.000 N 
ENDROOT
BRANCH  14  16
ATOM     16  C   UNL     1       4.490   6.057  18.445  0.00  0.00    +0.000 A 
ATOM     17  C   UNL     1       3.444   6.948  18.185  0.00  0.00    +0.000 A 
ATOM     18  C   UNL     1       2.234   6.848  18.890  0.00  0.00    +0.000 A 
ATOM     19  C   UNL     1       2.062   5.862  19.858  0.00  0.00    +0.000 A 
ATOM     20  F   UNL     1       0.910   5.793  20.544  0.00  0.00    +0.000 F 
ATOM     21  C   UNL     1       3.072   4.965  20.139  0.00  0.00    +0.000 A 
ATOM     22  C   UNL     1       4.278   5.061  19.432  0.00  0.00    +0.000 A 
ENDBRANCH  14  16
BRANCH  15  23
ATOM     23  C   UNL     1       8.141   6.495  18.953  0.00  0.00    +0.000 C 
BRANCH  23  24
ATOM     24  C   UNL     1       8.198   7.911  18.505  0.00  0.00    +0.000 A 
ATOM     25  C   UNL     1       7.338   8.430  17.547  0.00  0.00    +0.000 A 
ATOM     26  C   UNL     1       7.412   9.788  17.287  0.00  0.00    +0.000 A 
ATOM     27  N   UNL     1       8.248  10.644  17.918  0.00  0.00    +0.000 NA
ATOM     28  C   UNL     1       9.036  10.128  18.881  0.00  0.00    +0.000 A 
ATOM     29  C   UNL     1       9.035   8.788  19.215  0.00  0.00    +0.000 A 
ENDBRANCH  23  24
ENDBRANCH  15  23
TORSDOF 3
ENDMDL
MODEL 5
REMARK VINA RESULT:      -6.8      3.123      7.020
REMARK  Name = 
REMARK  3 active torsions:
REMARK  status: ('A' for Active; 'I' for Inactive)
REMARK    1  A    between atoms: C_14  and  C_15
REMARK    2  A    between atoms: N_22  and  C_23
REMARK    3  A    between atoms: C_23  and  C_24
REMARK                            x       y       z     vdW  Elec       q    Type
REMARK                         _______ _______ _______ _____ _____    ______ ____
ROOT
ATOM      1  O   UNL     1      -1.464  15.537  22.081  0.00  0.00    +0.000 OA
ATOM      2  C   UNL     1      -1.399  14.683  21.220  0.00  0.00    +0.000 C 
ATOM      3  C   UNL     1      -0.935  14.910  19.836  0.00  0.00    +0.000 A 
ATOM      4  O   UNL     1      -0.636  16.144  19.351  0.00  0.00    +0.000 OA
ATOM      5  C   UNL     1       0.549  16.205  18.666  0.00  0.00    +0.000 A 
ATOM      6  C   UNL     1       0.770  17.256  17.793  0.00  0.00    +0.000 A 
ATOM      7  C   UNL     1       2.068  17.484  17.355  0.00  0.00    +0.000 A 
ATOM      8  C   UNL     1       3.124  16.705  17.851  0.00  0.00    +0.000 A 
ATOM      9  C   UNL     1       2.868  15.588  18.649  0.00  0.00    +0.000 A 
ATOM     10  C   UNL     1       1.552  15.286  18.962  0.00  0.00    +0.000 A 
ATOM     11  C   UNL     1       1.137  13.998  19.577  0.00  0.00    +0.000 A 
ATOM     12  O   UNL     1       1.958  13.243  20.074  0.00  0.00    +0.000 OA
ATOM     13  C   UNL     1      -0.327  13.748  19.596  0.00  0.00    +0.000 A 
ATOM     14  C   UNL     1      -1.129  12.643  20.207  0.00  0.00    +0.000 C 
ATOM     15  N   UNL     1      -1.843  13.348  21.285  0.00  0.00    +0.000 N 
ENDROOT
BRANCH  14  16
ATOM     16  C   UNL     1      -0.331  11.374  20.501  0.00  0.00    +0.000 A 
ATOM     17  C   UNL     1       0.134  10.512  19.503  0.00  0.00    +0.000 A 
ATOM     18  C   UNL     1       0.734   9.289  19.842  0.00  0.00    +0.000 A 
ATOM     19  C   UNL     1       0.873   8.919  21.177  0.00  0.00    +0.000 A 
ATOM     20  F   UNL     1       1.425   7.736  21.489  0.00  0.00    +0.000 F 
ATOM     21  C   UNL     1       0.428   9.745  22.188  0.00  0.00    +0.000 A 
ATOM     22  C   UNL     1      -0.167  10.967  21.850  0.00  0.00    +0.000 A 
ENDBRANCH  14  16
BRANCH  15  23
ATOM     23  C   UNL     1      -3.294  13.487  21.232  0.00  0.00    +0.000 C 
BRANCH  23  24
ATOM     24  C   UNL     1      -4.135  13.001  22.357  0.00  0.00    +0.000 A 
ATOM     25  C   UNL     1      -3.608  12.655  23.593  0.00  0.00    +0.000 A 
ATOM     26  C   UNL     1      -4.497  12.319  24.599  0.00  0.00    +0.000 A 
ATOM     27  N   UNL     1      -5.843  12.329  24.465  0.00  0.00    +0.000 NA
ATOM     28  C   UNL     1      -6.334  12.720  23.274  0.00  0.00    +0.000 A 
ATOM     29  C   UNL     1      -5.530  13.075  22.209  0.00  0.00    +0.000 A 
ENDBRANCH  23  24
ENDBRANCH  15  23
TORSDOF 3
ENDMDL
MODEL 6
REMARK VINA RESULT:      -6.8      3.772      6.187
REMARK  Name = 
REMARK  3 active torsions:
REMARK  status: ('A' for Active; 'I' for Inactive)
REMARK    1  A    between atoms: C_14  and  C_15
REMARK    2  A    between atoms: N_22  and  C_23
REMARK    3  A    between atoms: C_23  and  C_24
REMARK                            x       y       z     vdW  Elec       q    Type
REMARK                         _______ _______ _______ _____ _____    ______ ____
ROOT
ATOM      1  O   UNL     1      -0.545  13.502  18.131  0.00  0.00    +0.000 OA
ATOM      2  C   UNL     1      -0.649  12.942  19.203  0.00  0.00    +0.000 C 
ATOM      3  C   UNL     1       0.422  12.847  20.217  0.00  0.00    +0.000 A 
ATOM      4  O   UNL     1       1.688  13.289  19.997  0.00  0.00    +0.000 OA
ATOM      5  C   UNL     1       2.202  14.047  21.014  0.00  0.00    +0.000 A 
ATOM      6  C   UNL     1       3.574  14.207  21.109  0.00  0.00    +0.000 A 
ATOM      7  C   UNL     1       4.062  15.215  21.932  0.00  0.00    +0.000 A 
ATOM      8  C   UNL     1       3.173  16.082  22.583  0.00  0.00    +0.000 A 
ATOM      9  C   UNL     1       1.798  15.841  22.557  0.00  0.00    +0.000 A 
ATOM     10  C   UNL     1       1.332  14.744  21.849  0.00  0.00    +0.000 A 
ATOM     11  C   UNL     1      -0.061  14.238  21.955  0.00  0.00    +0.000 A 
ATOM     12  O   UNL     1      -0.938  14.913  22.474  0.00  0.00    +0.000 OA
ATOM     13  C   UNL     1      -0.302  12.911  21.334  0.00  0.00    +0.000 A 
ATOM     14  C   UNL     1      -1.563  12.128  21.144  0.00  0.00    +0.000 C 
ATOM     15  N   UNL     1      -1.729  12.173  19.681  0.00  0.00    +0.000 N 
ENDROOT
BRANCH  14  16
ATOM     16  C   UNL     1      -2.706  12.540  22.071  0.00  0.00    +0.000 A 
ATOM     17  C   UNL     1      -2.777  12.165  23.416  0.00  0.00    +0.000 A 
ATOM     18  C   UNL     1      -3.922  12.452  24.175  0.00  0.00    +0.000 A 
ATOM     19  C   UNL     1      -5.002  13.113  23.598  0.00  0.00    +0.000 A 
ATOM     20  F   UNL     1      -6.103  13.359  24.326  0.00  0.00    +0.000 F 
ATOM     21  C   UNL     1      -4.967  13.500  22.274  0.00  0.00    +0.000 A 
ATOM     22  C   UNL     1      -3.823  13.217  21.517  0.00  0.00    +0.000 A 
ENDBRANCH  14  16
BRANCH  15  23
ATOM     23  C   UNL     1      -1.625  10.948  18.897  0.00  0.00    +0.000 C 
BRANCH  23  24
ATOM     24  C   UNL     1      -2.509  10.733  17.721  0.00  0.00    +0.000 A 
ATOM     25  C   UNL     1      -3.701  11.420  17.544  0.00  0.00    +0.000 A 
ATOM     26  C   UNL     1      -4.388  11.219  16.360  0.00  0.00    +0.000 A 
ATOM     27  N   UNL     1      -3.965  10.417  15.355  0.00  0.00    +0.000 NA
ATOM     28  C   UNL     1      -2.779   9.802  15.526  0.00  0.00    +0.000 A 
ATOM     29  C   UNL     1      -2.017   9.940  16.670  0.00  0.00    +0.000 A 
ENDBRANCH  23  24
ENDBRANCH  15  23
TORSDOF 3
ENDMDL
MODEL 7
REMARK VINA RESULT:      -6.8      3.260      7.224
REMARK  Name = 
REMARK  3 active torsions:
REMARK  status: ('A' for Active; 'I' for Inactive)
REMARK    1  A    between atoms: C_14  and  C_15
REMARK    2  A    between atoms: N_22  and  C_23
REMARK    3  A    between atoms: C_23  and  C_24
REMARK                            x       y       z     vdW  Elec       q    Type
REMARK                         _______ _______ _______ _____ _____    ______ ____
ROOT
ATOM      1  O   UNL     1       0.486  15.762  23.132  0.00  0.00    +0.000 OA
ATOM      2  C   UNL     1      -0.065  15.056  22.313  0.00  0.00    +0.000 C 
ATOM      3  C   UNL     1       0.045  15.215  20.847  0.00  0.00    +0.000 A 
ATOM      4  O   UNL     1       0.696  16.256  20.265  0.00  0.00    +0.000 OA
ATOM      5  C   UNL     1       1.548  15.891  19.257  0.00  0.00    +0.000 A 
ATOM      6  C   UNL     1       1.945  16.841  18.332  0.00  0.00    +0.000 A 
ATOM      7  C   UNL     1       3.036  16.552  17.521  0.00  0.00    +0.000 A 
ATOM      8  C   UNL     1       3.747  15.357  17.700  0.00  0.00    +0.000 A 
ATOM      9  C   UNL     1       3.271  14.369  18.565  0.00  0.00    +0.000 A 
ATOM     10  C   UNL     1       2.098  14.611  19.264  0.00  0.00    +0.000 A 
ATOM     11  C   UNL     1       1.361  13.557  20.006  0.00  0.00    +0.000 A 
ATOM     12  O   UNL     1       1.882  12.480  20.254  0.00  0.00    +0.000 OA
ATOM     13  C   UNL     1       0.002  13.938  20.466  0.00  0.00    +0.000 A 
ATOM     14  C   UNL     1      -0.991  13.209  21.316  0.00  0.00    +0.000 C 
ATOM     15  N   UNL     1      -1.001  14.027  22.540  0.00  0.00    +0.000 N 
ENDROOT
BRANCH  14  16
ATOM     16  C   UNL     1      -0.768  11.699  21.390  0.00  0.00    +0.000 A 
ATOM     17  C   UNL     1      -0.443  11.029  22.573  0.00  0.00    +0.000 A 
ATOM     18  C   UNL     1      -0.108   9.665  22.550  0.00  0.00    +0.000 A 
ATOM     19  C   UNL     1      -0.095   8.964  21.347  0.00  0.00    +0.000 A 
ATOM     20  F   UNL     1       0.252   7.668  21.332  0.00  0.00    +0.000 F 
ATOM     21  C   UNL     1      -0.412   9.593  20.160  0.00  0.00    +0.000 A 
ATOM     22  C   UNL     1      -0.750  10.952  20.183  0.00  0.00    +0.000 A 
ENDBRANCH  14  16
BRANCH  15  23
ATOM     23  C   UNL     1      -2.203  14.763  22.917  0.00  0.00    +0.000 C 
BRANCH  23  24
ATOM     24  C   UNL     1      -3.459  14.034  23.232  0.00  0.00    +0.000 A 
ATOM     25  C   UNL     1      -4.536  13.984  22.358  0.00  0.00    +0.000 A 
ATOM     26  C   UNL     1      -5.612  13.187  22.710  0.00  0.00    +0.000 A 
ATOM     27  N   UNL     1      -5.673  12.437  23.835  0.00  0.00    +0.000 NA
ATOM     28  C   UNL     1      -4.595  12.459  24.642  0.00  0.00    +0.000 A 
ATOM     29  C   UNL     1      -3.473  13.221  24.378  0.00  0.00    +0.000 A 
ENDBRANCH  23  24
ENDBRANCH  15  23
TORSDOF 3
ENDMDL
MODEL 8
REMARK VINA RESULT:      -6.7      2.248      3.106
REMARK  Name = 
REMARK  3 active torsions:
REMARK  status: ('A' for Active; 'I' for Inactive)
REMARK    1  A    between atoms: C_14  and  C_15
REMARK    2  A    between atoms: N_22  and  C_23
REMARK    3  A    between atoms: C_23  and  C_24
REMARK                            x       y       z     vdW  Elec       q    Type
REMARK                         _______ _______ _______ _____ _____    ______ ____
ROOT
ATOM      1  O   UNL     1      -0.552  10.028  22.194  0.00  0.00    +0.000 OA
ATOM      2  C   UNL     1      -0.781  10.963  21.454  0.00  0.00    +0.000 C 
ATOM      3  C   UNL     1      -1.688  12.088  21.767  0.00  0.00    +0.000 A 
ATOM      4  O   UNL     1      -2.454  12.127  22.888  0.00  0.00    +0.000 OA
ATOM      5  C   UNL     1      -2.410  13.322  23.555  0.00  0.00    +0.000 A 
ATOM      6  C   UNL     1      -3.424  13.637  24.444  0.00  0.00    +0.000 A 
ATOM      7  C   UNL     1      -3.214  14.680  25.337  0.00  0.00    +0.000 A 
ATOM      8  C   UNL     1      -1.975  15.337  25.371  0.00  0.00    +0.000 A 
ATOM      9  C   UNL     1      -1.005  15.075  24.401  0.00  0.00    +0.000 A 
ATOM     10  C   UNL     1      -1.284  14.131  23.424  0.00  0.00    +0.000 A 
ATOM     11  C   UNL     1      -0.454  13.951  22.206  0.00  0.00    +0.000 A 
ATOM     12  O   UNL     1       0.660  14.447  22.124  0.00  0.00    +0.000 OA
ATOM     13  C   UNL     1      -1.047  13.085  21.157  0.00  0.00    +0.000 A 
ATOM     14  C   UNL     1      -0.492  12.586  19.860  0.00  0.00    +0.000 C 
ATOM     15  N   UNL     1      -0.353  11.145  20.125  0.00  0.00    +0.000 N 
ENDROOT
BRANCH  14  16
ATOM     16  C   UNL     1       0.689  13.398  19.328  0.00  0.00    +0.000 A 
ATOM     17  C   UNL     1       0.590  14.742  18.955  0.00  0.00    +0.000 A 
ATOM     18  C   UNL     1       1.672  15.391  18.338  0.00  0.00    +0.000 A 
ATOM     19  C   UNL     1       2.856  14.703  18.089  0.00  0.00    +0.000 A 
ATOM     20  F   UNL     1       3.875  15.325  17.475  0.00  0.00    +0.000 F 
ATOM     21  C   UNL     1       2.990  13.377  18.445  0.00  0.00    +0.000 A 
ATOM     22  C   UNL     1       1.913  12.730  19.064  0.00  0.00    +0.000 A 
ENDBRANCH  14  16
BRANCH  15  23
ATOM     23  C   UNL     1      -1.169  10.185  19.389  0.00  0.00    +0.000 C 
BRANCH  23  24
ATOM     24  C   UNL     1      -2.022  10.638  18.259  0.00  0.00    +0.000 A 
ATOM     25  C   UNL     1      -1.762  10.297  16.939  0.00  0.00    +0.000 A 
ATOM     26  C   UNL     1      -2.683  10.685  15.982  0.00  0.00    +0.000 A 
ATOM     27  N   UNL     1      -3.830  11.352  16.250  0.00  0.00    +0.000 NA
ATOM     28  C   UNL     1      -4.089  11.625  17.543  0.00  0.00    +0.000 A 
ATOM     29  C   UNL     1      -3.233  11.279  18.571  0.00  0.00    +0.000 A 
ENDBRANCH  23  24
ENDBRANCH  15  23
TORSDOF 3
ENDMDL
MODEL 9
REMARK VINA RESULT:      -6.7      3.316      7.200
REMARK  Name = 
REMARK  3 active torsions:
REMARK  status: ('A' for Active; 'I' for Inactive)
REMARK    1  A    between atoms: C_14  and  C_15
REMARK    2  A    between atoms: N_22  and  C_23
REMARK    3  A    between atoms: C_23  and  C_24
REMARK                            x       y       z     vdW  Elec       q    Type
REMARK                         _______ _______ _______ _____ _____    ______ ____
ROOT
ATOM      1  O   UNL     1       0.480  15.791  23.051  0.00  0.00    +0.000 OA
ATOM      2  C   UNL     1      -0.046  15.072  22.226  0.00  0.00    +0.000 C 
ATOM      3  C   UNL     1       0.029  15.266  20.762  0.00  0.00    +0.000 A 
ATOM      4  O   UNL     1       0.611  16.354  20.192  0.00  0.00    +0.000 OA
ATOM      5  C   UNL     1       1.465  16.058  19.163  0.00  0.00    +0.000 A 
ATOM      6  C   UNL     1       1.792  17.048  18.252  0.00  0.00    +0.000 A 
ATOM      7  C   UNL     1       2.882  16.838  17.418  0.00  0.00    +0.000 A 
ATOM      8  C   UNL     1       3.663  15.681  17.559  0.00  0.00    +0.000 A 
ATOM      9  C   UNL     1       3.258  14.651  18.411  0.00  0.00    +0.000 A 
ATOM     10  C   UNL     1       2.085  14.812  19.133  0.00  0.00    +0.000 A 
ATOM     11  C   UNL     1       1.421  13.703  19.864  0.00  0.00    +0.000 A 
ATOM     12  O   UNL     1       2.006  12.652  20.081  0.00  0.00    +0.000 OA
ATOM     13  C   UNL     1       0.051  13.997  20.355  0.00  0.00    +0.000 A 
ATOM     14  C   UNL     1      -0.884  13.197  21.205  0.00  0.00    +0.000 C 
ATOM     15  N   UNL     1      -0.918  13.988  22.446  0.00  0.00    +0.000 N 
ENDROOT
BRANCH  14  16
ATOM     16  C   UNL     1      -0.576  11.700  21.243  0.00  0.00    +0.000 A 
ATOM     17  C   UNL     1      -0.577  10.888  20.105  0.00  0.00    +0.000 A 
ATOM     18  C   UNL     1      -0.428   9.497  20.224  0.00  0.00    +0.000 A 
ATOM     19  C   UNL     1      -0.280   8.909  21.478  0.00  0.00    +0.000 A 
ATOM     20  F   UNL     1      -0.166   7.576  21.582  0.00  0.00    +0.000 F 
ATOM     21  C   UNL     1      -0.273   9.680  22.622  0.00  0.00    +0.000 A 
ATOM     22  C   UNL     1      -0.416  11.069  22.503  0.00  0.00    +0.000 A 
ENDBRANCH  14  16
BRANCH  15  23
ATOM     23  C   UNL     1      -2.153  14.647  22.859  0.00  0.00    +0.000 C 
BRANCH  23  24
ATOM     24  C   UNL     1      -3.349  13.840  23.217  0.00  0.00    +0.000 A 
ATOM     25  C   UNL     1      -3.388  13.008  24.326  0.00  0.00    +0.000 A 
ATOM     26  C   UNL     1      -4.590  12.388  24.622  0.00  0.00    +0.000 A 
ATOM     27  N   UNL     1      -5.732  12.558  23.917  0.00  0.00    +0.000 NA
ATOM     28  C   UNL     1      -5.685  13.412  22.877  0.00  0.00    +0.000 A 
ATOM     29  C   UNL     1      -4.535  14.079  22.502  0.00  0.00    +0.000 A 
ENDBRANCH  23  24
ENDBRANCH  15  23
TORSDOF 3
ENDMDL
