MODEL 1
REMARK VINA RESULT:      -8.8      0.000      0.000
REMARK  Name = 
REMARK  8 active torsions:
REMARK  status: ('A' for Active; 'I' for Inactive)
REMARK    1  A    between atoms: C_1  and  C_2
REMARK    2  A    between atoms: C_6  and  C_7
REMARK    3  A    between atoms: N_9  and  C_10
REMARK    4  A    between atoms: C_14  and  C_15
REMARK    5  A    between atoms: C_15  and  C_16
REMARK    6  A    between atoms: C_15  and  S_17
REMARK    7  A    between atoms: S_17  and  C_18
REMARK    8  A    between atoms: N_22  and  C_23
REMARK                            x       y       z     vdW  Elec       q    Type
REMARK                         _______ _______ _______ _____ _____    ______ ____
ROOT
ATOM      1  C   UNL     1       3.005   6.374  18.992  0.00  0.00    +0.000 A 
ATOM      2  C   UNL     1       2.718   5.244  19.775  0.00  0.00    +0.000 A 
ATOM      3  C   UNL     1       3.464   4.068  19.669  0.00  0.00    +0.000 A 
ATOM      4  C   UNL     1       4.522   3.994  18.770  0.00  0.00    +0.000 A 
ATOM      5  C   UNL     1       4.845   5.093  17.966  0.00  0.00    +0.000 A 
ATOM      6  C   UNL     1       4.076   6.268  18.086  0.00  0.00    +0.000 A 
ENDROOT
BRANCH   1   9
ATOM      7  C   UNL     1       1.060   9.251  20.009  0.00  0.00    +0.000 C 
ATOM      8  C   UNL     1       1.569   8.031  20.199  0.00  0.00    +0.000 C 
ATOM      9  N   UNL     1       2.253   7.571  19.108  0.00  0.00    +0.000 N 
ATOM     10  N   UNL     1       2.263   8.561  18.081  0.00  0.00    +0.000 NA
ATOM     11  C   UNL     1       1.393   9.651  18.607  0.00  0.00    +0.000 C 
ATOM     12  H   UNL     1       1.817   8.171  17.250  0.00  0.00    +0.000 HD
BRANCH   7  18
ATOM     13  C   UNL     1      -0.837  13.656  21.427  0.00  0.00    +0.000 C 
ATOM     14  C   UNL     1      -0.601  12.198  21.697  0.00  0.00    +0.000 A 
ATOM     15  C   UNL     1      -1.075  11.598  22.868  0.00  0.00    +0.000 A 
ATOM     16  C   UNL     1      -0.860  10.244  23.098  0.00  0.00    +0.000 A 
ATOM     17  C   UNL     1      -0.171   9.477  22.156  0.00  0.00    +0.000 A 
ATOM     18  C   UNL     1       0.314  10.055  20.972  0.00  0.00    +0.000 A 
ATOM     19  C   UNL     1       0.094  11.421  20.759  0.00  0.00    +0.000 A 
ENDBRANCH   7  18
ENDBRANCH   1   9
BRANCH   5  20
ATOM     20  C   UNL     1       6.021   5.074  17.004  0.00  0.00    +0.000 C 
ATOM     21  C   UNL     1       7.304   4.690  17.751  0.00  0.00    +0.000 C 
BRANCH  20  22
ATOM     22  S   UNL     1       5.804   3.908  15.616  0.00  0.00    +0.000 S 
BRANCH  22  23
ATOM     23  C   UNL     1       6.806   4.598  14.393  0.00  0.00    +0.000 A 
ATOM     24  N   UNL     1       7.740   5.509  14.530  0.00  0.00    +0.000 NA
ATOM     25  N   UNL     1       8.292   5.733  13.284  0.00  0.00    +0.000 NA
ATOM     26  C   UNL     1       7.677   4.944  12.430  0.00  0.00    +0.000 A 
ATOM     27  N   UNL     1       6.741   4.206  13.085  0.00  0.00    +0.000 N 
ATOM     28  C   UNL     1       5.868   3.225  12.501  0.00  0.00    +0.000 C 
ENDBRANCH  22  23
ENDBRANCH  20  22
ENDBRANCH   5  20
TORSDOF 5
ENDMDL
MODEL 2
REMARK VINA RESULT:      -8.7      3.917     10.583
REMARK  Name = 
REMARK  8 active torsions:
REMARK  status: ('A' for Active; 'I' for Inactive)
REMARK    1  A    between atoms: C_1  and  C_2
REMARK    2  A    between atoms: C_6  and  C_7
REMARK    3  A    between atoms: N_9  and  C_10
REMARK    4  A    between atoms: C_14  and  C_15
REMARK    5  A    between atoms: C_15  and  C_16
REMARK    6  A    between atoms: C_15  and  S_17
REMARK    7  A    between atoms: S_17  and  C_18
REMARK    8  A    between atoms: N_22  and  C_23
REMARK                            x       y       z     vdW  Elec       q    Type
REMARK                         _______ _______ _______ _____ _____    ______ ____
ROOT
ATOM      1  C   UNL     1       1.507   8.505  19.369  0.00  0.00    +0.000 A 
ATOM      2  C   UNL     1       1.308   9.396  18.301  0.00  0.00    +0.000 A 
ATOM      3  C   UNL     1       0.480  10.515  18.422  0.00  0.00    +0.000 A 
ATOM      4  C   UNL     1      -0.173  10.771  19.623  0.00  0.00    +0.000 A 
ATOM      5  C   UNL     1      -0.007   9.910  20.715  0.00  0.00    +0.000 A 
ATOM      6  C   UNL     1       0.829   8.785  20.568  0.00  0.00    +0.000 A 
ENDROOT
BRANCH   1   9
ATOM      7  C   UNL     1       3.991   6.016  18.514  0.00  0.00    +0.000 C 
ATOM      8  C   UNL     1       3.277   7.118  18.269  0.00  0.00    +0.000 C 
ATOM      9  N   UNL     1       2.356   7.376  19.247  0.00  0.00    +0.000 N 
ATOM     10  N   UNL     1       2.454   6.401  20.284  0.00  0.00    +0.000 NA
ATOM     11  C   UNL     1       3.462   5.424  19.782  0.00  0.00    +0.000 C 
ATOM     12  H   UNL     1       1.558   5.921  20.364  0.00  0.00    +0.000 HD
BRANCH   7  18
ATOM     13  C   UNL     1       5.678   4.222  14.162  0.00  0.00    +0.000 C 
ATOM     14  C   UNL     1       5.921   4.572  15.601  0.00  0.00    +0.000 A 
ATOM     15  C   UNL     1       7.175   4.374  16.188  0.00  0.00    +0.000 A 
ATOM     16  C   UNL     1       7.387   4.716  17.519  0.00  0.00    +0.000 A 
ATOM     17  C   UNL     1       6.347   5.263  18.273  0.00  0.00    +0.000 A 
ATOM     18  C   UNL     1       5.079   5.474  17.707  0.00  0.00    +0.000 A 
ATOM     19  C   UNL     1       4.881   5.117  16.368  0.00  0.00    +0.000 A 
ENDBRANCH   7  18
ENDBRANCH   1   9
BRANCH   5  20
ATOM     20  C   UNL     1      -0.662  10.174  22.060  0.00  0.00    +0.000 C 
ATOM     21  C   UNL     1       0.122   9.470  23.173  0.00  0.00    +0.000 C 
BRANCH  20  22
ATOM     22  S   UNL     1      -0.768  11.948  22.478  0.00  0.00    +0.000 S 
BRANCH  22  23
ATOM     23  C   UNL     1      -2.468  12.189  22.640  0.00  0.00    +0.000 A 
ATOM     24  N   UNL     1      -3.231  11.913  23.671  0.00  0.00    +0.000 NA
ATOM     25  N   UNL     1      -4.519  12.299  23.356  0.00  0.00    +0.000 NA
ATOM     26  C   UNL     1      -4.495  12.805  22.142  0.00  0.00    +0.000 A 
ATOM     27  N   UNL     1      -3.225  12.763  21.656  0.00  0.00    +0.000 N 
ATOM     28  C   UNL     1      -2.789  13.227  20.368  0.00  0.00    +0.000 C 
ENDBRANCH  22  23
ENDBRANCH  20  22
ENDBRANCH   5  20
TORSDOF 5
ENDMDL
MODEL 3
REMARK VINA RESULT:      -8.6      1.544      2.243
REMARK  Name = 
REMARK  8 active torsions:
REMARK  status: ('A' for Active; 'I' for Inactive)
REMARK    1  A    between atoms: C_1  and  C_2
REMARK    2  A    between atoms: C_6  and  C_7
REMARK    3  A    between atoms: N_9  and  C_10
REMARK    4  A    between atoms: C_14  and  C_15
REMARK    5  A    between atoms: C_15  and  C_16
REMARK    6  A    between atoms: C_15  and  S_17
REMARK    7  A    between atoms: S_17  and  C_18
REMARK    8  A    between atoms: N_22  and  C_23
REMARK                            x       y       z     vdW  Elec       q    Type
REMARK                         _______ _______ _______ _____ _____    ______ ____
ROOT
ATOM      1  C   UNL     1       2.808   6.047  19.187  0.00  0.00    +0.000 A 
ATOM      2  C   UNL     1       2.342   4.784  19.588  0.00  0.00    +0.000 A 
ATOM      3  C   UNL     1       2.941   3.604  19.142  0.00  0.00    +0.000 A 
ATOM      4  C   UNL     1       4.029   3.659  18.278  0.00  0.00    +0.000 A 
ATOM      5  C   UNL     1       4.528   4.894  17.848  0.00  0.00    +0.000 A 
ATOM      6  C   UNL     1       3.905   6.072  18.307  0.00  0.00    +0.000 A 
ENDROOT
BRANCH   1   9
ATOM      7  C   UNL     1       1.066   9.184  19.655  0.00  0.00    +0.000 C 
ATOM      8  C   UNL     1       1.651   8.249  18.903  0.00  0.00    +0.000 C 
ATOM      9  N   UNL     1       2.205   7.244  19.649  0.00  0.00    +0.000 N 
ATOM     10  N   UNL     1       1.955   7.467  21.035  0.00  0.00    +0.000 NA
ATOM     11  C   UNL     1       1.288   8.799  21.084  0.00  0.00    +0.000 C 
ATOM     12  H   UNL     1       2.851   7.542  21.518  0.00  0.00    +0.000 HD
BRANCH   7  18
ATOM     13  C   UNL     1      -2.615  11.230  16.959  0.00  0.00    +0.000 C 
ATOM     14  C   UNL     1      -1.428  11.389  17.864  0.00  0.00    +0.000 A 
ATOM     15  C   UNL     1      -0.990  12.657  18.259  0.00  0.00    +0.000 A 
ATOM     16  C   UNL     1       0.104  12.787  19.108  0.00  0.00    +0.000 A 
ATOM     17  C   UNL     1       0.766  11.649  19.572  0.00  0.00    +0.000 A 
ATOM     18  C   UNL     1       0.346  10.365  19.191  0.00  0.00    +0.000 A 
ATOM     19  C   UNL     1      -0.753  10.252  18.330  0.00  0.00    +0.000 A 
ENDBRANCH   7  18
ENDBRANCH   1   9
BRANCH   5  20
ATOM     20  C   UNL     1       5.742   5.005  16.942  0.00  0.00    +0.000 C 
ATOM     21  C   UNL     1       7.024   4.771  17.751  0.00  0.00    +0.000 C 
BRANCH  20  22
ATOM     22  S   UNL     1       5.724   3.817  15.556  0.00  0.00    +0.000 S 
BRANCH  22  23
ATOM     23  C   UNL     1       6.786   4.559  14.418  0.00  0.00    +0.000 A 
ATOM     24  N   UNL     1       7.741   5.428  14.648  0.00  0.00    +0.000 NA
ATOM     25  N   UNL     1       8.341   5.723  13.439  0.00  0.00    +0.000 NA
ATOM     26  C   UNL     1       7.732   5.015  12.513  0.00  0.00    +0.000 A 
ATOM     27  N   UNL     1       6.753   4.263  13.083  0.00  0.00    +0.000 N 
ATOM     28  C   UNL     1       5.872   3.354  12.403  0.00  0.00    +0.000 C 
ENDBRANCH  22  23
ENDBRANCH  20  22
ENDBRANCH   5  20
TORSDOF 5
ENDMDL
MODEL 4
REMARK VINA RESULT:      -8.5      2.175      3.830
REMARK  Name = 
REMARK  8 active torsions:
REMARK  status: ('A' for Active; 'I' for Inactive)
REMARK    1  A    between atoms: C_1  and  C_2
REMARK    2  A    between atoms: C_6  and  C_7
REMARK    3  A    between atoms: N_9  and  C_10
REMARK    4  A    between atoms: C_14  and  C_15
REMARK    5  A    between atoms: C_15  and  C_16
REMARK    6  A    between atoms: C_15  and  S_17
REMARK    7  A    between atoms: S_17  and  C_18
REMARK    8  A    between atoms: N_22  and  C_23
REMARK                            x       y       z     vdW  Elec       q    Type
REMARK                         _______ _______ _______ _____ _____    ______ ____
ROOT
ATOM      1  C   UNL     1       1.673   8.384  19.880  0.00  0.00    +0.000 A 
ATOM      2  C   UNL     1       1.871   8.922  18.598  0.00  0.00    +0.000 A 
ATOM      3  C   UNL     1       2.502   8.196  17.586  0.00  0.00    +0.000 A 
ATOM      4  C   UNL     1       2.954   6.904  17.834  0.00  0.00    +0.000 A 
ATOM      5  C   UNL     1       2.783   6.326  19.097  0.00  0.00    +0.000 A 
ATOM      6  C   UNL     1       2.147   7.079  20.104  0.00  0.00    +0.000 A 
ENDROOT
BRANCH   1   9
ATOM      7  C   UNL     1      -0.361  10.566  21.929  0.00  0.00    +0.000 C 
ATOM      8  C   UNL     1       0.163  10.174  20.765  0.00  0.00    +0.000 C 
ATOM      9  N   UNL     1       1.023   9.119  20.904  0.00  0.00    +0.000 N 
ATOM     10  N   UNL     1       1.080   8.708  22.269  0.00  0.00    +0.000 NA
ATOM     11  C   UNL     1       0.250   9.712  22.994  0.00  0.00    +0.000 C 
ATOM     12  H   UNL     1       2.043   8.797  22.594  0.00  0.00    +0.000 HD
BRANCH   7  18
ATOM     13  C   UNL     1      -4.134  12.508  24.574  0.00  0.00    +0.000 C 
ATOM     14  C   UNL     1      -3.199  12.583  23.402  0.00  0.00    +0.000 A 
ATOM     15  C   UNL     1      -3.261  13.649  22.500  0.00  0.00    +0.000 A 
ATOM     16  C   UNL     1      -2.379  13.710  21.426  0.00  0.00    +0.000 A 
ATOM     17  C   UNL     1      -1.425  12.707  21.250  0.00  0.00    +0.000 A 
ATOM     18  C   UNL     1      -1.341  11.626  22.142  0.00  0.00    +0.000 A 
ATOM     19  C   UNL     1      -2.241  11.576  23.213  0.00  0.00    +0.000 A 
ENDBRANCH   7  18
ENDBRANCH   1   9
BRANCH   5  20
ATOM     20  C   UNL     1       3.218   4.903  19.401  0.00  0.00    +0.000 C 
ATOM     21  C   UNL     1       2.039   4.103  19.967  0.00  0.00    +0.000 C 
BRANCH  20  22
ATOM     22  S   UNL     1       3.857   4.013  17.941  0.00  0.00    +0.000 S 
BRANCH  22  23
ATOM     23  C   UNL     1       5.549   4.333  18.023  0.00  0.00    +0.000 A 
ATOM     24  N   UNL     1       6.267   4.630  19.080  0.00  0.00    +0.000 NA
ATOM     25  N   UNL     1       7.578   4.777  18.669  0.00  0.00    +0.000 NA
ATOM     26  C   UNL     1       7.613   4.558  17.372  0.00  0.00    +0.000 A 
ATOM     27  N   UNL     1       6.362   4.267  16.925  0.00  0.00    +0.000 N 
ATOM     28  C   UNL     1       5.990   3.962  15.571  0.00  0.00    +0.000 C 
ENDBRANCH  22  23
ENDBRANCH  20  22
ENDBRANCH   5  20
TORSDOF 5
ENDMDL
MODEL 5
REMARK VINA RESULT:      -8.5      4.672     11.210
REMARK  Name = 
REMARK  8 active torsions:
REMARK  status: ('A' for Active; 'I' for Inactive)
REMARK    1  A    between atoms: C_1  and  C_2
REMARK    2  A    between atoms: C_6  and  C_7
REMARK    3  A    between atoms: N_9  and  C_10
REMARK    4  A    between atoms: C_14  and  C_15
REMARK    5  A    between atoms: C_15  and  C_16
REMARK    6  A    between atoms: C_15  and  S_17
REMARK    7  A    between atoms: S_17  and  C_18
REMARK    8  A    between atoms: N_22  and  C_23
REMARK                            x       y       z     vdW  Elec       q    Type
REMARK                         _______ _______ _______ _____ _____    ______ ____
ROOT
ATOM      1  C   UNL     1       0.607   9.613  20.887  0.00  0.00    +0.000 A 
ATOM      2  C   UNL     1       0.482   8.894  22.087  0.00  0.00    +0.000 A 
ATOM      3  C   UNL     1      -0.222   9.404  23.179  0.00  0.00    +0.000 A 
ATOM      4  C   UNL     1      -0.823  10.656  23.097  0.00  0.00    +0.000 A 
ATOM      5  C   UNL     1      -0.724  11.412  21.923  0.00  0.00    +0.000 A 
ATOM      6  C   UNL     1      -0.005  10.879  20.835  0.00  0.00    +0.000 A 
ENDROOT
BRANCH   1   9
ATOM      7  C   UNL     1       2.375   7.635  18.425  0.00  0.00    +0.000 C 
ATOM      8  C   UNL     1       1.882   7.850  19.647  0.00  0.00    +0.000 C 
ATOM      9  N   UNL     1       1.314   9.089  19.775  0.00  0.00    +0.000 N 
ATOM     10  N   UNL     1       1.376   9.788  18.533  0.00  0.00    +0.000 NA
ATOM     11  C   UNL     1       2.165   8.892  17.641  0.00  0.00    +0.000 C 
ATOM     12  H   UNL     1       1.909  10.648  18.671  0.00  0.00    +0.000 HD
BRANCH   7  18
ATOM     13  C   UNL     1       2.292   2.681  17.756  0.00  0.00    +0.000 C 
ATOM     14  C   UNL     1       3.001   3.996  17.615  0.00  0.00    +0.000 A 
ATOM     15  C   UNL     1       4.268   4.071  17.029  0.00  0.00    +0.000 A 
ATOM     16  C   UNL     1       4.907   5.299  16.895  0.00  0.00    +0.000 A 
ATOM     17  C   UNL     1       4.280   6.463  17.342  0.00  0.00    +0.000 A 
ATOM     18  C   UNL     1       3.007   6.416  17.932  0.00  0.00    +0.000 A 
ATOM     19  C   UNL     1       2.381   5.171  18.066  0.00  0.00    +0.000 A 
ENDBRANCH   7  18
ENDBRANCH   1   9
BRANCH   5  20
ATOM     20  C   UNL     1      -1.403  12.762  21.770  0.00  0.00    +0.000 C 
ATOM     21  C   UNL     1      -2.736  12.599  21.032  0.00  0.00    +0.000 C 
BRANCH  20  22
ATOM     22  S   UNL     1      -1.736  13.590  23.362  0.00  0.00    +0.000 S 
BRANCH  22  23
ATOM     23  C   UNL     1      -3.385  13.180  23.656  0.00  0.00    +0.000 A 
ATOM     24  N   UNL     1      -3.870  12.046  24.103  0.00  0.00    +0.000 NA
ATOM     25  N   UNL     1      -5.241  12.186  24.202  0.00  0.00    +0.000 NA
ATOM     26  C   UNL     1      -5.542  13.407  23.817  0.00  0.00    +0.000 A 
ATOM     27  N   UNL     1      -4.406  14.071  23.472  0.00  0.00    +0.000 N 
ATOM     28  C   UNL     1      -4.319  15.427  23.007  0.00  0.00    +0.000 C 
ENDBRANCH  22  23
ENDBRANCH  20  22
ENDBRANCH   5  20
TORSDOF 5
ENDMDL
MODEL 6
REMARK VINA RESULT:      -8.5      2.910      9.846
REMARK  Name = 
REMARK  8 active torsions:
REMARK  status: ('A' for Active; 'I' for Inactive)
REMARK    1  A    between atoms: C_1  and  C_2
REMARK    2  A    between atoms: C_6  and  C_7
REMARK    3  A    between atoms: N_9  and  C_10
REMARK    4  A    between atoms: C_14  and  C_15
REMARK    5  A    between atoms: C_15  and  C_16
REMARK    6  A    between atoms: C_15  and  S_17
REMARK    7  A    between atoms: S_17  and  C_18
REMARK    8  A    between atoms: N_22  and  C_23
REMARK                            x       y       z     vdW  Elec       q    Type
REMARK                         _______ _______ _______ _____ _____    ______ ____
ROOT
ATOM      1  C   UNL     1       3.811   5.594  18.737  0.00  0.00    +0.000 A 
ATOM      2  C   UNL     1       3.213   4.732  19.672  0.00  0.00    +0.000 A 
ATOM      3  C   UNL     1       2.179   5.159  20.508  0.00  0.00    +0.000 A 
ATOM      4  C   UNL     1       1.714   6.467  20.428  0.00  0.00    +0.000 A 
ATOM      5  C   UNL     1       2.280   7.364  19.514  0.00  0.00    +0.000 A 
ATOM      6  C   UNL     1       3.326   6.913  18.684  0.00  0.00    +0.000 A 
ENDROOT
BRANCH   1   9
ATOM      7  C   UNL     1       6.025   4.711  16.014  0.00  0.00    +0.000 C 
ATOM      8  C   UNL     1       4.835   5.047  16.519  0.00  0.00    +0.000 C 
ATOM      9  N   UNL     1       4.854   5.156  17.883  0.00  0.00    +0.000 N 
ATOM     10  N   UNL     1       6.171   4.917  18.376  0.00  0.00    +0.000 NA
ATOM     11  C   UNL     1       6.953   4.518  17.170  0.00  0.00    +0.000 C 
ATOM     12  H   UNL     1       6.140   4.119  19.012  0.00  0.00    +0.000 HD
BRANCH   7  18
ATOM     13  C   UNL     1       5.225   2.550  11.576  0.00  0.00    +0.000 C 
ATOM     14  C   UNL     1       6.016   3.494  12.435  0.00  0.00    +0.000 A 
ATOM     15  C   UNL     1       7.092   4.214  11.908  0.00  0.00    +0.000 A 
ATOM     16  C   UNL     1       7.807   5.094  12.714  0.00  0.00    +0.000 A 
ATOM     17  C   UNL     1       7.448   5.262  14.053  0.00  0.00    +0.000 A 
ATOM     18  C   UNL     1       6.371   4.552  14.605  0.00  0.00    +0.000 A 
ATOM     19  C   UNL     1       5.666   3.665  13.782  0.00  0.00    +0.000 A 
ENDBRANCH   7  18
ENDBRANCH   1   9
BRANCH   5  20
ATOM     20  C   UNL     1       1.775   8.787  19.359  0.00  0.00    +0.000 C 
ATOM     21  C   UNL     1       1.431   9.065  17.890  0.00  0.00    +0.000 C 
BRANCH  20  22
ATOM     22  S   UNL     1       0.293   9.144  20.363  0.00  0.00    +0.000 S 
BRANCH  22  23
ATOM     23  C   UNL     1       0.437  10.839  20.646  0.00  0.00    +0.000 A 
ATOM     24  N   UNL     1       1.187  11.452  21.531  0.00  0.00    +0.000 NA
ATOM     25  N   UNL     1       0.995  12.811  21.376  0.00  0.00    +0.000 NA
ATOM     26  C   UNL     1       0.136  12.979  20.393  0.00  0.00    +0.000 A 
ATOM     27  N   UNL     1      -0.235  11.767  19.900  0.00  0.00    +0.000 N 
ATOM     28  C   UNL     1      -1.152  11.532  18.819  0.00  0.00    +0.000 C 
ENDBRANCH  22  23
ENDBRANCH  20  22
ENDBRANCH   5  20
TORSDOF 5
ENDMDL
MODEL 7
REMARK VINA RESULT:      -8.4      4.535     10.725
REMARK  Name = 
REMARK  8 active torsions:
REMARK  status: ('A' for Active; 'I' for Inactive)
REMARK    1  A    between atoms: C_1  and  C_2
REMARK    2  A    between atoms: C_6  and  C_7
REMARK    3  A    between atoms: N_9  and  C_10
REMARK    4  A    between atoms: C_14  and  C_15
REMARK    5  A    between atoms: C_15  and  C_16
REMARK    6  A    between atoms: C_15  and  S_17
REMARK    7  A    between atoms: S_17  and  C_18
REMARK    8  A    between atoms: N_22  and  C_23
REMARK                            x       y       z     vdW  Elec       q    Type
REMARK                         _______ _______ _______ _____ _____    ______ ____
ROOT
ATOM      1  C   UNL     1       0.478   9.763  20.922  0.00  0.00    +0.000 A 
ATOM      2  C   UNL     1       0.410   9.090  22.153  0.00  0.00    +0.000 A 
ATOM      3  C   UNL     1      -0.325   9.597  23.228  0.00  0.00    +0.000 A 
ATOM      4  C   UNL     1      -1.014  10.798  23.095  0.00  0.00    +0.000 A 
ATOM      5  C   UNL     1      -0.973  11.506  21.889  0.00  0.00    +0.000 A 
ATOM      6  C   UNL     1      -0.222  10.979  20.820  0.00  0.00    +0.000 A 
ENDROOT
BRANCH   1   9
ATOM      7  C   UNL     1       2.291   7.787  18.492  0.00  0.00    +0.000 C 
ATOM      8  C   UNL     1       1.752   7.990  19.697  0.00  0.00    +0.000 C 
ATOM      9  N   UNL     1       1.216   9.242  19.829  0.00  0.00    +0.000 N 
ATOM     10  N   UNL     1       1.352   9.966  18.608  0.00  0.00    +0.000 NA
ATOM     11  C   UNL     1       2.151   9.066  17.728  0.00  0.00    +0.000 C 
ATOM     12  H   UNL     1       1.903  10.806  18.788  0.00  0.00    +0.000 HD
BRANCH   7  18
ATOM     13  C   UNL     1       2.150   2.833  17.830  0.00  0.00    +0.000 C 
ATOM     14  C   UNL     1       2.873   4.141  17.684  0.00  0.00    +0.000 A 
ATOM     15  C   UNL     1       4.138   4.200  17.092  0.00  0.00    +0.000 A 
ATOM     16  C   UNL     1       4.789   5.421  16.953  0.00  0.00    +0.000 A 
ATOM     17  C   UNL     1       4.177   6.593  17.401  0.00  0.00    +0.000 A 
ATOM     18  C   UNL     1       2.907   6.561  17.997  0.00  0.00    +0.000 A 
ATOM     19  C   UNL     1       2.268   5.322  18.136  0.00  0.00    +0.000 A 
ENDBRANCH   7  18
ENDBRANCH   1   9
BRANCH   5  20
ATOM     20  C   UNL     1      -1.747  12.797  21.683  0.00  0.00    +0.000 C 
ATOM     21  C   UNL     1      -0.775  13.961  21.454  0.00  0.00    +0.000 C 
BRANCH  20  22
ATOM     22  S   UNL     1      -2.897  12.735  20.266  0.00  0.00    +0.000 S 
BRANCH  22  23
ATOM     23  C   UNL     1      -4.426  12.534  21.039  0.00  0.00    +0.000 A 
ATOM     24  N   UNL     1      -4.680  12.457  22.324  0.00  0.00    +0.000 NA
ATOM     25  N   UNL     1      -6.046  12.324  22.474  0.00  0.00    +0.000 NA
ATOM     26  C   UNL     1      -6.579  12.330  21.271  0.00  0.00    +0.000 A 
ATOM     27  N   UNL     1      -5.598  12.468  20.339  0.00  0.00    +0.000 N 
ATOM     28  C   UNL     1      -5.778  12.525  18.914  0.00  0.00    +0.000 C 
ENDBRANCH  22  23
ENDBRANCH  20  22
ENDBRANCH   5  20
TORSDOF 5
ENDMDL
MODEL 8
REMARK VINA RESULT:      -8.4      0.826      1.431
REMARK  Name = 
REMARK  8 active torsions:
REMARK  status: ('A' for Active; 'I' for Inactive)
REMARK    1  A    between atoms: C_1  and  C_2
REMARK    2  A    between atoms: C_6  and  C_7
REMARK    3  A    between atoms: N_9  and  C_10
REMARK    4  A    between atoms: C_14  and  C_15
REMARK    5  A    between atoms: C_15  and  C_16
REMARK    6  A    between atoms: C_15  and  S_17
REMARK    7  A    between atoms: S_17  and  C_18
REMARK    8  A    between atoms: N_22  and  C_23
REMARK                            x       y       z     vdW  Elec       q    Type
REMARK                         _______ _______ _______ _____ _____    ______ ____
ROOT
ATOM      1  C   UNL     1       3.116   6.765  18.617  0.00  0.00    +0.000 A 
ATOM      2  C   UNL     1       2.777   5.781  19.561  0.00  0.00    +0.000 A 
ATOM      3  C   UNL     1       3.514   4.602  19.690  0.00  0.00    +0.000 A 
ATOM      4  C   UNL     1       4.615   4.376  18.871  0.00  0.00    +0.000 A 
ATOM      5  C   UNL     1       4.989   5.325  17.912  0.00  0.00    +0.000 A 
ATOM      6  C   UNL     1       4.229   6.506  17.797  0.00  0.00    +0.000 A 
ENDROOT
BRANCH   1   9
ATOM      7  C   UNL     1       1.032   9.697  19.011  0.00  0.00    +0.000 C 
ATOM      8  C   UNL     1       1.470   8.490  19.379  0.00  0.00    +0.000 C 
ATOM      9  N   UNL     1       2.373   7.966  18.495  0.00  0.00    +0.000 N 
ATOM     10  N   UNL     1       2.623   8.894  17.440  0.00  0.00    +0.000 NA
ATOM     11  C   UNL     1       1.673  10.014  17.697  0.00  0.00    +0.000 C 
ATOM     12  H   UNL     1       2.366   8.456  16.555  0.00  0.00    +0.000 HD
BRANCH   7  18
ATOM     13  C   UNL     1      -1.281  10.958  23.261  0.00  0.00    +0.000 C 
ATOM     14  C   UNL     1      -1.058  11.176  21.792  0.00  0.00    +0.000 A 
ATOM     15  C   UNL     1      -1.739  12.184  21.103  0.00  0.00    +0.000 A 
ATOM     16  C   UNL     1      -1.511  12.381  19.745  0.00  0.00    +0.000 A 
ATOM     17  C   UNL     1      -0.596  11.574  19.067  0.00  0.00    +0.000 A 
ATOM     18  C   UNL     1       0.102  10.556  19.736  0.00  0.00    +0.000 A 
ATOM     19  C   UNL     1      -0.144  10.366  21.102  0.00  0.00    +0.000 A 
ENDBRANCH   7  18
ENDBRANCH   1   9
BRANCH   5  20
ATOM     20  C   UNL     1       6.211   5.143  17.028  0.00  0.00    +0.000 C 
ATOM     21  C   UNL     1       7.398   4.652  17.867  0.00  0.00    +0.000 C 
BRANCH  20  22
ATOM     22  S   UNL     1       5.951   3.955  15.667  0.00  0.00    +0.000 S 
BRANCH  22  23
ATOM     23  C   UNL     1       6.883   4.644  14.390  0.00  0.00    +0.000 A 
ATOM     24  N   UNL     1       7.850   5.526  14.478  0.00  0.00    +0.000 NA
ATOM     25  N   UNL     1       8.318   5.764  13.201  0.00  0.00    +0.000 NA
ATOM     26  C   UNL     1       7.622   5.011  12.377  0.00  0.00    +0.000 A 
ATOM     27  N   UNL     1       6.713   4.284  13.082  0.00  0.00    +0.000 N 
ATOM     28  C   UNL     1       5.773   3.341  12.542  0.00  0.00    +0.000 C 
ENDBRANCH  22  23
ENDBRANCH  20  22
ENDBRANCH   5  20
TORSDOF 5
ENDMDL
MODEL 9
REMARK VINA RESULT:      -8.4      2.787      4.496
REMARK  Name = 
REMARK  8 active torsions:
REMARK  status: ('A' for Active; 'I' for Inactive)
REMARK    1  A    between atoms: C_1  and  C_2
REMARK    2  A    between atoms: C_6  and  C_7
REMARK    3  A    between atoms: N_9  and  C_10
REMARK    4  A    between atoms: C_14  and  C_15
REMARK    5  A    between atoms: C_15  and  C_16
REMARK    6  A    between atoms: C_15  and  S_17
REMARK    7  A    between atoms: S_17  and  C_18
REMARK    8  A    between atoms: N_22  and  C_23
REMARK                            x       y       z     vdW  Elec       q    Type
REMARK                         _______ _______ _______ _____ _____    ______ ____
ROOT
ATOM      1  C   UNL     1       1.116   9.022  20.199  0.00  0.00    +0.000 A 
ATOM      2  C   UNL     1       1.180   9.605  18.923  0.00  0.00    +0.000 A 
ATOM      3  C   UNL     1       1.847   8.984  17.865  0.00  0.00    +0.000 A 
ATOM      4  C   UNL     1       2.470   7.756  18.059  0.00  0.00    +0.000 A 
ATOM      5  C   UNL     1       2.436   7.137  19.314  0.00  0.00    +0.000 A 
ATOM      6  C   UNL     1       1.761   7.784  20.368  0.00  0.00    +0.000 A 
ENDROOT
BRANCH   1   9
ATOM      7  C   UNL     1      -0.732  11.176  22.446  0.00  0.00    +0.000 C 
ATOM      8  C   UNL     1      -0.025  10.938  21.337  0.00  0.00    +0.000 C 
ATOM      9  N   UNL     1       0.430   9.649  21.270  0.00  0.00    +0.000 N 
ATOM     10  N   UNL     1      -0.026   8.908  22.400  0.00  0.00    +0.000 NA
ATOM     11  C   UNL     1      -0.716   9.917  23.253  0.00  0.00    +0.000 C 
ATOM     12  H   UNL     1       0.787   8.562  22.911  0.00  0.00    +0.000 HD
BRANCH   7  18
ATOM     13  C   UNL     1      -0.595  16.134  23.077  0.00  0.00    +0.000 C 
ATOM     14  C   UNL     1      -1.347  14.837  23.156  0.00  0.00    +0.000 A 
ATOM     15  C   UNL     1      -2.674  14.801  23.595  0.00  0.00    +0.000 A 
ATOM     16  C   UNL     1      -3.361  13.593  23.650  0.00  0.00    +0.000 A 
ATOM     17  C   UNL     1      -2.726  12.412  23.263  0.00  0.00    +0.000 A 
ATOM     18  C   UNL     1      -1.395  12.421  22.817  0.00  0.00    +0.000 A 
ATOM     19  C   UNL     1      -0.716  13.644  22.774  0.00  0.00    +0.000 A 
ENDBRANCH   7  18
ENDBRANCH   1   9
BRANCH   5  20
ATOM     20  C   UNL     1       3.061   5.775  19.562  0.00  0.00    +0.000 C 
ATOM     21  C   UNL     1       1.966   4.734  19.822  0.00  0.00    +0.000 C 
BRANCH  20  22
ATOM     22  S   UNL     1       4.085   5.184  18.171  0.00  0.00    +0.000 S 
BRANCH  22  23
ATOM     23  C   UNL     1       5.687   5.407  18.769  0.00  0.00    +0.000 A 
ATOM     24  N   UNL     1       6.247   4.846  19.814  0.00  0.00    +0.000 NA
ATOM     25  N   UNL     1       7.547   5.305  19.891  0.00  0.00    +0.000 NA
ATOM     26  C   UNL     1       7.736   6.128  18.882  0.00  0.00    +0.000 A 
ATOM     27  N   UNL     1       6.596   6.216  18.145  0.00  0.00    +0.000 N 
ATOM     28  C   UNL     1       6.405   7.008  16.962  0.00  0.00    +0.000 C 
ENDBRANCH  22  23
ENDBRANCH  20  22
ENDBRANCH   5  20
TORSDOF 5
ENDMDL
