MODEL 1
REMARK VINA RESULT:      -8.6      0.000      0.000
REMARK  Name = 
REMARK  6 active torsions:
REMARK  status: ('A' for Active; 'I' for Inactive)
REMARK    1  A    between atoms: C_1  and  C_2
REMARK    2  A    between atoms: C_6  and  N_7
REMARK    3  A    between atoms: C_11  and  S_12
REMARK    4  A    between atoms: S_12  and  C_13
REMARK    5  A    between atoms: C_13  and  C_14
REMARK    6  A    between atoms: N_16  and  C_17
REMARK                            x       y       z     vdW  Elec       q    Type
REMARK                         _______ _______ _______ _____ _____    ______ ____
ROOT
ATOM      1  C   UNL     1       2.430   3.298  21.584  0.00  0.00    +0.000 C 
ENDROOT
BRANCH   1   2
ATOM      2  C   UNL     1       1.749   4.452  20.850  0.00  0.00    +0.000 C 
ATOM      3  O   UNL     1       0.642   4.286  20.340  0.00  0.00    +0.000 OA
ATOM      4  N   UNL     1       2.502   5.622  20.785  0.00  0.00    +0.000 N 
ATOM      5  H   UNL     1       3.477   5.558  21.050  0.00  0.00    +0.000 HD
BRANCH   4   6
ATOM      6  C   UNL     1       2.103   6.832  20.159  0.00  0.00    +0.000 A 
ATOM      7  C   UNL     1       2.454   7.155  18.836  0.00  0.00    +0.000 A 
ATOM      8  C   UNL     1       2.108   8.386  18.270  0.00  0.00    +0.000 A 
ATOM      9  C   UNL     1       1.414   9.300  19.040  0.00  0.00    +0.000 A 
ATOM     10  C   UNL     1       1.029   8.987  20.340  0.00  0.00    +0.000 A 
ATOM     11  C   UNL     1       1.341   7.748  20.902  0.00  0.00    +0.000 A 
ATOM     12  C   UNL     1       0.335  10.137  20.994  0.00  0.00    +0.000 C 
ATOM     13  C   UNL     1       0.314  11.220  19.902  0.00  0.00    +0.000 C 
ATOM     14  C   UNL     1       1.018  10.683  18.649  0.00  0.00    +0.000 C 
ENDBRANCH   4   6
ENDBRANCH   1   2
BRANCH   1  15
ATOM     15  S   UNL     1       3.871   2.769  20.618  0.00  0.00    +0.000 S 
BRANCH  15  20
ATOM     16  N   UNL     1       3.693   3.570  17.928  0.00  0.00    +0.000 N 
ATOM     17  N   UNL     1       2.899   3.257  16.865  0.00  0.00    +0.000 NA
ATOM     18  N   UNL     1       2.134   2.247  17.243  0.00  0.00    +0.000 NA
ATOM     19  N   UNL     1       2.367   1.910  18.545  0.00  0.00    +0.000 NA
ATOM     20  C   UNL     1       3.297   2.735  18.980  0.00  0.00    +0.000 A 
BRANCH  16  26
ATOM     21  C   UNL     1       7.910   5.749  19.449  0.00  0.00    +0.000 C 
ATOM     22  C   UNL     1       6.757   5.688  18.492  0.00  0.00    +0.000 A 
ATOM     23  C   UNL     1       6.637   6.597  17.438  0.00  0.00    +0.000 A 
ATOM     24  C   UNL     1       5.566   6.497  16.555  0.00  0.00    +0.000 A 
ATOM     25  C   UNL     1       4.602   5.500  16.722  0.00  0.00    +0.000 A 
ATOM     26  C   UNL     1       4.696   4.580  17.785  0.00  0.00    +0.000 A 
ATOM     27  C   UNL     1       5.790   4.680  18.648  0.00  0.00    +0.000 A 
ENDBRANCH  16  26
ENDBRANCH  15  20
ENDBRANCH   1  15
TORSDOF 5
ENDMDL
MODEL 2
REMARK VINA RESULT:      -8.3      2.967      3.874
REMARK  Name = 
REMARK  6 active torsions:
REMARK  status: ('A' for Active; 'I' for Inactive)
REMARK    1  A    between atoms: C_1  and  C_2
REMARK    2  A    between atoms: C_6  and  N_7
REMARK    3  A    between atoms: C_11  and  S_12
REMARK    4  A    between atoms: S_12  and  C_13
REMARK    5  A    between atoms: C_13  and  C_14
REMARK    6  A    between atoms: N_16  and  C_17
REMARK                            x       y       z     vdW  Elec       q    Type
REMARK                         _______ _______ _______ _____ _____    ______ ____
ROOT
ATOM      1  C   UNL     1       3.535   3.978  18.706  0.00  0.00    +0.000 C 
ENDROOT
BRANCH   1   2
ATOM      2  C   UNL     1       2.455   5.027  18.962  0.00  0.00    +0.000 C 
ATOM      3  O   UNL     1       1.267   4.709  18.914  0.00  0.00    +0.000 OA
ATOM      4  N   UNL     1       2.939   6.313  19.190  0.00  0.00    +0.000 N 
ATOM      5  H   UNL     1       3.917   6.480  18.986  0.00  0.00    +0.000 HD
BRANCH   4   6
ATOM      6  C   UNL     1       2.149   7.463  19.449  0.00  0.00    +0.000 A 
ATOM      7  C   UNL     1       1.898   8.447  18.475  0.00  0.00    +0.000 A 
ATOM      8  C   UNL     1       1.177   9.606  18.781  0.00  0.00    +0.000 A 
ATOM      9  C   UNL     1       0.713   9.781  20.071  0.00  0.00    +0.000 A 
ATOM     10  C   UNL     1       0.923   8.804  21.040  0.00  0.00    +0.000 A 
ATOM     11  C   UNL     1       1.613   7.629  20.736  0.00  0.00    +0.000 A 
ATOM     12  C   UNL     1       0.379   9.226  22.365  0.00  0.00    +0.000 C 
ATOM     13  C   UNL     1      -0.233  10.609  22.085  0.00  0.00    +0.000 C 
ATOM     14  C   UNL     1      -0.007  10.969  20.610  0.00  0.00    +0.000 C 
ENDBRANCH   4   6
ENDBRANCH   1   2
BRANCH   1  15
ATOM     15  S   UNL     1       4.197   4.227  17.035  0.00  0.00    +0.000 S 
BRANCH  15  20
ATOM     16  N   UNL     1       6.903   4.392  16.287  0.00  0.00    +0.000 N 
ATOM     17  N   UNL     1       8.099   4.408  16.941  0.00  0.00    +0.000 NA
ATOM     18  N   UNL     1       7.828   4.473  18.234  0.00  0.00    +0.000 NA
ATOM     19  N   UNL     1       6.482   4.455  18.458  0.00  0.00    +0.000 NA
ATOM     20  C   UNL     1       5.910   4.375  17.274  0.00  0.00    +0.000 A 
BRANCH  16  26
ATOM     21  C   UNL     1       4.944   2.903  11.953  0.00  0.00    +0.000 C 
ATOM     22  C   UNL     1       5.961   3.710  12.705  0.00  0.00    +0.000 A 
ATOM     23  C   UNL     1       6.897   4.504  12.038  0.00  0.00    +0.000 A 
ATOM     24  C   UNL     1       7.811   5.258  12.768  0.00  0.00    +0.000 A 
ATOM     25  C   UNL     1       7.808   5.215  14.164  0.00  0.00    +0.000 A 
ATOM     26  C   UNL     1       6.881   4.411  14.857  0.00  0.00    +0.000 A 
ATOM     27  C   UNL     1       5.956   3.680  14.109  0.00  0.00    +0.000 A 
ENDBRANCH  16  26
ENDBRANCH  15  20
ENDBRANCH   1  15
TORSDOF 5
ENDMDL
MODEL 3
REMARK VINA RESULT:      -8.3      0.921      1.464
REMARK  Name = 
REMARK  6 active torsions:
REMARK  status: ('A' for Active; 'I' for Inactive)
REMARK    1  A    between atoms: C_1  and  C_2
REMARK    2  A    between atoms: C_6  and  N_7
REMARK    3  A    between atoms: C_11  and  S_12
REMARK    4  A    between atoms: S_12  and  C_13
REMARK    5  A    between atoms: C_13  and  C_14
REMARK    6  A    between atoms: N_16  and  C_17
REMARK                            x       y       z     vdW  Elec       q    Type
REMARK                         _______ _______ _______ _____ _____    ______ ____
ROOT
ATOM      1  C   UNL     1       2.642   3.152  21.555  0.00  0.00    +0.000 C 
ENDROOT
BRANCH   1   2
ATOM      2  C   UNL     1       1.928   4.313  20.867  0.00  0.00    +0.000 C 
ATOM      3  O   UNL     1       0.736   4.214  20.577  0.00  0.00    +0.000 OA
ATOM      4  N   UNL     1       2.743   5.405  20.577  0.00  0.00    +0.000 N 
ATOM      5  H   UNL     1       3.742   5.271  20.668  0.00  0.00    +0.000 HD
BRANCH   4   6
ATOM      6  C   UNL     1       2.328   6.604  19.940  0.00  0.00    +0.000 A 
ATOM      7  C   UNL     1       2.569   6.863  18.579  0.00  0.00    +0.000 A 
ATOM      8  C   UNL     1       2.213   8.084  17.996  0.00  0.00    +0.000 A 
ATOM      9  C   UNL     1       1.621   9.051  18.787  0.00  0.00    +0.000 A 
ATOM     10  C   UNL     1       1.345   8.802  20.128  0.00  0.00    +0.000 A 
ATOM     11  C   UNL     1       1.666   7.574  20.710  0.00  0.00    +0.000 A 
ATOM     12  C   UNL     1       0.752   9.999  20.793  0.00  0.00    +0.000 C 
ATOM     13  C   UNL     1       0.667  11.040  19.664  0.00  0.00    +0.000 C 
ATOM     14  C   UNL     1       1.237  10.431  18.375  0.00  0.00    +0.000 C 
ENDBRANCH   4   6
ENDBRANCH   1   2
BRANCH   1  15
ATOM     15  S   UNL     1       3.940   2.534  20.448  0.00  0.00    +0.000 S 
BRANCH  15  20
ATOM     16  N   UNL     1       3.680   3.237  17.738  0.00  0.00    +0.000 N 
ATOM     17  N   UNL     1       2.730   3.077  16.773  0.00  0.00    +0.000 NA
ATOM     18  N   UNL     1       1.792   2.297  17.285  0.00  0.00    +0.000 NA
ATOM     19  N   UNL     1       2.073   1.971  18.580  0.00  0.00    +0.000 NA
ATOM     20  C   UNL     1       3.209   2.568  18.874  0.00  0.00    +0.000 A 
BRANCH  16  26
ATOM     21  C   UNL     1       7.087   4.846  14.475  0.00  0.00    +0.000 C 
ATOM     22  C   UNL     1       6.571   4.782  15.882  0.00  0.00    +0.000 A 
ATOM     23  C   UNL     1       7.224   5.439  16.928  0.00  0.00    +0.000 A 
ATOM     24  C   UNL     1       6.705   5.377  18.217  0.00  0.00    +0.000 A 
ATOM     25  C   UNL     1       5.540   4.651  18.476  0.00  0.00    +0.000 A 
ATOM     26  C   UNL     1       4.871   3.970  17.439  0.00  0.00    +0.000 A 
ATOM     27  C   UNL     1       5.394   4.063  16.147  0.00  0.00    +0.000 A 
ENDBRANCH  16  26
ENDBRANCH  15  20
ENDBRANCH   1  15
TORSDOF 5
ENDMDL
MODEL 4
REMARK VINA RESULT:      -7.8      2.360      3.519
REMARK  Name = 
REMARK  6 active torsions:
REMARK  status: ('A' for Active; 'I' for Inactive)
REMARK    1  A    between atoms: C_1  and  C_2
REMARK    2  A    between atoms: C_6  and  N_7
REMARK    3  A    between atoms: C_11  and  S_12
REMARK    4  A    between atoms: S_12  and  C_13
REMARK    5  A    between atoms: C_13  and  C_14
REMARK    6  A    between atoms: N_16  and  C_17
REMARK                            x       y       z     vdW  Elec       q    Type
REMARK                         _______ _______ _______ _____ _____    ______ ____
ROOT
ATOM      1  C   UNL     1       2.926   7.361  17.959  0.00  0.00    +0.000 C 
ENDROOT
BRANCH   1   2
ATOM      2  C   UNL     1       2.073   8.606  18.197  0.00  0.00    +0.000 C 
ATOM      3  O   UNL     1       2.062   9.510  17.363  0.00  0.00    +0.000 OA
ATOM      4  N   UNL     1       1.396   8.620  19.414  0.00  0.00    +0.000 N 
ATOM      5  H   UNL     1       1.662   7.923  20.098  0.00  0.00    +0.000 HD
BRANCH   4   6
ATOM      6  C   UNL     1       0.544   9.657  19.877  0.00  0.00    +0.000 A 
ATOM      7  C   UNL     1       0.145  10.733  19.064  0.00  0.00    +0.000 A 
ATOM      8  C   UNL     1      -0.636  11.777  19.570  0.00  0.00    +0.000 A 
ATOM      9  C   UNL     1      -1.009  11.745  20.900  0.00  0.00    +0.000 A 
ATOM     10  C   UNL     1      -0.652  10.673  21.713  0.00  0.00    +0.000 A 
ATOM     11  C   UNL     1       0.099   9.610  21.208  0.00  0.00    +0.000 A 
ATOM     12  C   UNL     1      -1.121  10.875  23.116  0.00  0.00    +0.000 C 
ATOM     13  C   UNL     1      -1.855  12.225  23.066  0.00  0.00    +0.000 C 
ATOM     14  C   UNL     1      -1.772  12.789  21.641  0.00  0.00    +0.000 C 
ENDBRANCH   4   6
ENDBRANCH   1   2
BRANCH   1  15
ATOM     15  S   UNL     1       2.743   6.254  19.385  0.00  0.00    +0.000 S 
BRANCH  15  20
ATOM     16  N   UNL     1       3.296   3.977  17.830  0.00  0.00    +0.000 N 
ATOM     17  N   UNL     1       2.604   2.871  17.436  0.00  0.00    +0.000 NA
ATOM     18  N   UNL     1       1.446   2.896  18.074  0.00  0.00    +0.000 NA
ATOM     19  N   UNL     1       1.331   4.015  18.847  0.00  0.00    +0.000 NA
ATOM     20  C   UNL     1       2.446   4.696  18.679  0.00  0.00    +0.000 A 
BRANCH  16  26
ATOM     21  C   UNL     1       6.593   4.351  14.111  0.00  0.00    +0.000 C 
ATOM     22  C   UNL     1       6.293   4.361  15.581  0.00  0.00    +0.000 A 
ATOM     23  C   UNL     1       7.298   4.574  16.527  0.00  0.00    +0.000 A 
ATOM     24  C   UNL     1       6.980   4.601  17.882  0.00  0.00    +0.000 A 
ATOM     25  C   UNL     1       5.662   4.403  18.302  0.00  0.00    +0.000 A 
ATOM     26  C   UNL     1       4.634   4.174  17.366  0.00  0.00    +0.000 A 
ATOM     27  C   UNL     1       4.968   4.175  16.010  0.00  0.00    +0.000 A 
ENDBRANCH  16  26
ENDBRANCH  15  20
ENDBRANCH   1  15
TORSDOF 5
ENDMDL
MODEL 5
REMARK VINA RESULT:      -7.6      2.209      3.419
REMARK  Name = 
REMARK  6 active torsions:
REMARK  status: ('A' for Active; 'I' for Inactive)
REMARK    1  A    between atoms: C_1  and  C_2
REMARK    2  A    between atoms: C_6  and  N_7
REMARK    3  A    between atoms: C_11  and  S_12
REMARK    4  A    between atoms: S_12  and  C_13
REMARK    5  A    between atoms: C_13  and  C_14
REMARK    6  A    between atoms: N_16  and  C_17
REMARK                            x       y       z     vdW  Elec       q    Type
REMARK                         _______ _______ _______ _____ _____    ______ ____
ROOT
ATOM      1  C   UNL     1       3.088   6.697  18.106  0.00  0.00    +0.000 C 
ENDROOT
BRANCH   1   2
ATOM      2  C   UNL     1       2.364   7.912  18.683  0.00  0.00    +0.000 C 
ATOM      3  O   UNL     1       2.311   8.958  18.037  0.00  0.00    +0.000 OA
ATOM      4  N   UNL     1       1.847   7.725  19.963  0.00  0.00    +0.000 N 
ATOM      5  H   UNL     1       2.147   6.898  20.465  0.00  0.00    +0.000 HD
BRANCH   4   6
ATOM      6  C   UNL     1       1.137   8.692  20.721  0.00  0.00    +0.000 A 
ATOM      7  C   UNL     1       1.115   8.689  22.127  0.00  0.00    +0.000 A 
ATOM      8  C   UNL     1       0.347   9.612  22.845  0.00  0.00    +0.000 A 
ATOM      9  C   UNL     1      -0.408  10.535  22.147  0.00  0.00    +0.000 A 
ATOM     10  C   UNL     1      -0.375  10.575  20.756  0.00  0.00    +0.000 A 
ATOM     11  C   UNL     1       0.414   9.680  20.032  0.00  0.00    +0.000 A 
ATOM     12  C   UNL     1      -1.301  11.616  20.220  0.00  0.00    +0.000 C 
ATOM     13  C   UNL     1      -1.909  12.251  21.482  0.00  0.00    +0.000 C 
ATOM     14  C   UNL     1      -1.341  11.546  22.722  0.00  0.00    +0.000 C 
ENDBRANCH   4   6
ENDBRANCH   1   2
BRANCH   1  15
ATOM     15  S   UNL     1       2.026   5.240  18.310  0.00  0.00    +0.000 S 
BRANCH  15  20
ATOM     16  N   UNL     1       4.315   3.693  18.836  0.00  0.00    +0.000 N 
ATOM     17  N   UNL     1       4.651   2.716  19.726  0.00  0.00    +0.000 NA
ATOM     18  N   UNL     1       3.646   2.612  20.579  0.00  0.00    +0.000 NA
ATOM     19  N   UNL     1       2.630   3.464  20.253  0.00  0.00    +0.000 NA
ATOM     20  C   UNL     1       3.019   4.106  19.171  0.00  0.00    +0.000 A 
BRANCH  16  26
ATOM     21  C   UNL     1       5.690   4.041  14.059  0.00  0.00    +0.000 C 
ATOM     22  C   UNL     1       5.981   4.283  15.510  0.00  0.00    +0.000 A 
ATOM     23  C   UNL     1       7.160   4.908  15.922  0.00  0.00    +0.000 A 
ATOM     24  C   UNL     1       7.387   5.137  17.276  0.00  0.00    +0.000 A 
ATOM     25  C   UNL     1       6.447   4.735  18.228  0.00  0.00    +0.000 A 
ATOM     26  C   UNL     1       5.256   4.091  17.837  0.00  0.00    +0.000 A 
ATOM     27  C   UNL     1       5.035   3.890  16.472  0.00  0.00    +0.000 A 
ENDBRANCH  16  26
ENDBRANCH  15  20
ENDBRANCH   1  15
TORSDOF 5
ENDMDL
MODEL 6
REMARK VINA RESULT:      -7.6      2.915      4.115
REMARK  Name = 
REMARK  6 active torsions:
REMARK  status: ('A' for Active; 'I' for Inactive)
REMARK    1  A    between atoms: C_1  and  C_2
REMARK    2  A    between atoms: C_6  and  N_7
REMARK    3  A    between atoms: C_11  and  S_12
REMARK    4  A    between atoms: S_12  and  C_13
REMARK    5  A    between atoms: C_13  and  C_14
REMARK    6  A    between atoms: N_16  and  C_17
REMARK                            x       y       z     vdW  Elec       q    Type
REMARK                         _______ _______ _______ _____ _____    ______ ____
ROOT
ATOM      1  C   UNL     1       2.696   7.856  18.078  0.00  0.00    +0.000 C 
ENDROOT
BRANCH   1   2
ATOM      2  C   UNL     1       1.590   8.674  18.741  0.00  0.00    +0.000 C 
ATOM      3  O   UNL     1       1.420   8.603  19.957  0.00  0.00    +0.000 OA
ATOM      4  N   UNL     1       0.813   9.421  17.858  0.00  0.00    +0.000 N 
ATOM      5  H   UNL     1       0.916   9.221  16.871  0.00  0.00    +0.000 HD
BRANCH   4   6
ATOM      6  C   UNL     1      -0.276  10.258  18.216  0.00  0.00    +0.000 A 
ATOM      7  C   UNL     1      -0.152  11.312  19.139  0.00  0.00    +0.000 A 
ATOM      8  C   UNL     1      -1.259  12.074  19.527  0.00  0.00    +0.000 A 
ATOM      9  C   UNL     1      -2.496  11.771  18.991  0.00  0.00    +0.000 A 
ATOM     10  C   UNL     1      -2.634  10.753  18.051  0.00  0.00    +0.000 A 
ATOM     11  C   UNL     1      -1.529  10.009  17.634  0.00  0.00    +0.000 A 
ATOM     12  C   UNL     1      -4.060  10.573  17.650  0.00  0.00    +0.000 C 
ATOM     13  C   UNL     1      -4.806  11.650  18.457  0.00  0.00    +0.000 C 
ATOM     14  C   UNL     1      -3.799  12.412  19.328  0.00  0.00    +0.000 C 
ENDBRANCH   4   6
ENDBRANCH   1   2
BRANCH   1  15
ATOM     15  S   UNL     1       3.172   6.512  19.199  0.00  0.00    +0.000 S 
BRANCH  15  20
ATOM     16  N   UNL     1       3.327   4.317  17.447  0.00  0.00    +0.000 N 
ATOM     17  N   UNL     1       2.469   3.353  17.010  0.00  0.00    +0.000 NA
ATOM     18  N   UNL     1       1.356   3.483  17.712  0.00  0.00    +0.000 NA
ATOM     19  N   UNL     1       1.436   4.539  18.573  0.00  0.00    +0.000 NA
ATOM     20  C   UNL     1       2.626   5.073  18.395  0.00  0.00    +0.000 A 
BRANCH  16  26
ATOM     21  C   UNL     1       6.489   4.167  13.597  0.00  0.00    +0.000 C 
ATOM     22  C   UNL     1       6.251   4.296  15.073  0.00  0.00    +0.000 A 
ATOM     23  C   UNL     1       7.308   4.479  15.967  0.00  0.00    +0.000 A 
ATOM     24  C   UNL     1       7.049   4.618  17.327  0.00  0.00    +0.000 A 
ATOM     25  C   UNL     1       5.738   4.563  17.806  0.00  0.00    +0.000 A 
ATOM     26  C   UNL     1       4.657   4.367  16.924  0.00  0.00    +0.000 A 
ATOM     27  C   UNL     1       4.934   4.253  15.560  0.00  0.00    +0.000 A 
ENDBRANCH  16  26
ENDBRANCH  15  20
ENDBRANCH   1  15
TORSDOF 5
ENDMDL
MODEL 7
REMARK VINA RESULT:      -7.6      4.007      8.227
REMARK  Name = 
REMARK  6 active torsions:
REMARK  status: ('A' for Active; 'I' for Inactive)
REMARK    1  A    between atoms: C_1  and  C_2
REMARK    2  A    between atoms: C_6  and  N_7
REMARK    3  A    between atoms: C_11  and  S_12
REMARK    4  A    between atoms: S_12  and  C_13
REMARK    5  A    between atoms: C_13  and  C_14
REMARK    6  A    between atoms: N_16  and  C_17
REMARK                            x       y       z     vdW  Elec       q    Type
REMARK                         _______ _______ _______ _____ _____    ______ ____
ROOT
ATOM      1  C   UNL     1       1.329   8.498  21.562  0.00  0.00    +0.000 C 
ENDROOT
BRANCH   1   2
ATOM      2  C   UNL     1       1.803   7.955  20.215  0.00  0.00    +0.000 C 
ATOM      3  O   UNL     1       1.562   8.581  19.183  0.00  0.00    +0.000 OA
ATOM      4  N   UNL     1       2.451   6.724  20.282  0.00  0.00    +0.000 N 
ATOM      5  H   UNL     1       2.389   6.218  21.157  0.00  0.00    +0.000 HD
BRANCH   4   6
ATOM      6  C   UNL     1       2.982   6.005  19.180  0.00  0.00    +0.000 A 
ATOM      7  C   UNL     1       2.807   4.618  19.022  0.00  0.00    +0.000 A 
ATOM      8  C   UNL     1       3.403   3.925  17.963  0.00  0.00    +0.000 A 
ATOM      9  C   UNL     1       4.185   4.626  17.065  0.00  0.00    +0.000 A 
ATOM     10  C   UNL     1       4.343   6.004  17.185  0.00  0.00    +0.000 A 
ATOM     11  C   UNL     1       3.725   6.710  18.219  0.00  0.00    +0.000 A 
ATOM     12  C   UNL     1       5.263   6.539  16.137  0.00  0.00    +0.000 C 
ATOM     13  C   UNL     1       5.644   5.295  15.316  0.00  0.00    +0.000 C 
ATOM     14  C   UNL     1       4.957   4.064  15.922  0.00  0.00    +0.000 C 
ENDBRANCH   4   6
ENDBRANCH   1   2
BRANCH   1  15
ATOM     15  S   UNL     1      -0.370   9.105  21.376  0.00  0.00    +0.000 S 
BRANCH  15  20
ATOM     16  N   UNL     1      -0.724  11.474  19.902  0.00  0.00    +0.000 N 
ATOM     17  N   UNL     1      -0.220  12.740  19.952  0.00  0.00    +0.000 NA
ATOM     18  N   UNL     1       0.511  12.819  21.051  0.00  0.00    +0.000 NA
ATOM     19  N   UNL     1       0.544  11.624  21.709  0.00  0.00    +0.000 NA
ATOM     20  C   UNL     1      -0.183  10.788  20.997  0.00  0.00    +0.000 A 
BRANCH  16  26
ATOM     21  C   UNL     1      -5.154  11.914  17.662  0.00  0.00    +0.000 C 
ATOM     22  C   UNL     1      -3.790  11.292  17.723  0.00  0.00    +0.000 A 
ATOM     23  C   UNL     1      -3.369  10.366  16.766  0.00  0.00    +0.000 A 
ATOM     24  C   UNL     1      -2.089   9.826  16.840  0.00  0.00    +0.000 A 
ATOM     25  C   UNL     1      -1.225  10.194  17.874  0.00  0.00    +0.000 A 
ATOM     26  C   UNL     1      -1.632  11.117  18.858  0.00  0.00    +0.000 A 
ATOM     27  C   UNL     1      -2.912  11.667  18.754  0.00  0.00    +0.000 A 
ENDBRANCH  16  26
ENDBRANCH  15  20
ENDBRANCH   1  15
TORSDOF 5
ENDMDL
MODEL 8
REMARK VINA RESULT:      -7.6      2.453      3.525
REMARK  Name = 
REMARK  6 active torsions:
REMARK  status: ('A' for Active; 'I' for Inactive)
REMARK    1  A    between atoms: C_1  and  C_2
REMARK    2  A    between atoms: C_6  and  N_7
REMARK    3  A    between atoms: C_11  and  S_12
REMARK    4  A    between atoms: S_12  and  C_13
REMARK    5  A    between atoms: C_13  and  C_14
REMARK    6  A    between atoms: N_16  and  C_17
REMARK                            x       y       z     vdW  Elec       q    Type
REMARK                         _______ _______ _______ _____ _____    ______ ____
ROOT
ATOM      1  C   UNL     1       2.709   7.643  17.813  0.00  0.00    +0.000 C 
ENDROOT
BRANCH   1   2
ATOM      2  C   UNL     1       2.015   8.953  18.180  0.00  0.00    +0.000 C 
ATOM      3  O   UNL     1       2.257   9.975  17.540  0.00  0.00    +0.000 OA
ATOM      4  N   UNL     1       1.171   8.871  19.285  0.00  0.00    +0.000 N 
ATOM      5  H   UNL     1       1.230   8.033  19.850  0.00  0.00    +0.000 HD
BRANCH   4   6
ATOM      6  C   UNL     1       0.415   9.940  19.832  0.00  0.00    +0.000 A 
ATOM      7  C   UNL     1       0.730  10.543  21.063  0.00  0.00    +0.000 A 
ATOM      8  C   UNL     1      -0.076  11.546  21.611  0.00  0.00    +0.000 A 
ATOM      9  C   UNL     1      -1.209  11.939  20.924  0.00  0.00    +0.000 A 
ATOM     10  C   UNL     1      -1.521  11.378  19.689  0.00  0.00    +0.000 A 
ATOM     11  C   UNL     1      -0.704  10.400  19.118  0.00  0.00    +0.000 A 
ATOM     12  C   UNL     1      -2.807  11.917  19.156  0.00  0.00    +0.000 C 
ATOM     13  C   UNL     1      -3.253  12.926  20.228  0.00  0.00    +0.000 C 
ATOM     14  C   UNL     1      -2.227  12.931  21.370  0.00  0.00    +0.000 C 
ENDBRANCH   4   6
ENDBRANCH   1   2
BRANCH   1  15
ATOM     15  S   UNL     1       2.638   6.530  19.245  0.00  0.00    +0.000 S 
BRANCH  15  20
ATOM     16  N   UNL     1       3.369   4.216  17.823  0.00  0.00    +0.000 N 
ATOM     17  N   UNL     1       2.728   3.098  17.380  0.00  0.00    +0.000 NA
ATOM     18  N   UNL     1       1.503   3.135  17.877  0.00  0.00    +0.000 NA
ATOM     19  N   UNL     1       1.299   4.273  18.603  0.00  0.00    +0.000 NA
ATOM     20  C   UNL     1       2.425   4.954  18.549  0.00  0.00    +0.000 A 
BRANCH  16  26
ATOM     21  C   UNL     1       7.950   5.687  19.126  0.00  0.00    +0.000 C 
ATOM     22  C   UNL     1       7.016   5.116  18.100  0.00  0.00    +0.000 A 
ATOM     23  C   UNL     1       7.468   4.746  16.831  0.00  0.00    +0.000 A 
ATOM     24  C   UNL     1       6.579   4.198  15.911  0.00  0.00    +0.000 A 
ATOM     25  C   UNL     1       5.233   4.027  16.244  0.00  0.00    +0.000 A 
ATOM     26  C   UNL     1       4.752   4.406  17.514  0.00  0.00    +0.000 A 
ATOM     27  C   UNL     1       5.664   4.932  18.432  0.00  0.00    +0.000 A 
ENDBRANCH  16  26
ENDBRANCH  15  20
ENDBRANCH   1  15
TORSDOF 5
ENDMDL
MODEL 9
REMARK VINA RESULT:      -7.6      4.082      8.328
REMARK  Name = 
REMARK  6 active torsions:
REMARK  status: ('A' for Active; 'I' for Inactive)
REMARK    1  A    between atoms: C_1  and  C_2
REMARK    2  A    between atoms: C_6  and  N_7
REMARK    3  A    between atoms: C_11  and  S_12
REMARK    4  A    between atoms: S_12  and  C_13
REMARK    5  A    between atoms: C_13  and  C_14
REMARK    6  A    between atoms: N_16  and  C_17
REMARK                            x       y       z     vdW  Elec       q    Type
REMARK                         _______ _______ _______ _____ _____    ______ ____
ROOT
ATOM      1  C   UNL     1       1.382   9.026  21.890  0.00  0.00    +0.000 C 
ENDROOT
BRANCH   1   2
ATOM      2  C   UNL     1       1.550   8.010  20.762  0.00  0.00    +0.000 C 
ATOM      3  O   UNL     1       1.518   8.384  19.590  0.00  0.00    +0.000 OA
ATOM      4  N   UNL     1       1.684   6.690  21.186  0.00  0.00    +0.000 N 
ATOM      5  H   UNL     1       1.475   6.494  22.157  0.00  0.00    +0.000 HD
BRANCH   4   6
ATOM      6  C   UNL     1       1.849   5.561  20.342  0.00  0.00    +0.000 A 
ATOM      7  C   UNL     1       1.079   4.391  20.478  0.00  0.00    +0.000 A 
ATOM      8  C   UNL     1       1.315   3.268  19.679  0.00  0.00    +0.000 A 
ATOM      9  C   UNL     1       2.333   3.316  18.746  0.00  0.00    +0.000 A 
ATOM     10  C   UNL     1       3.085   4.474  18.574  0.00  0.00    +0.000 A 
ATOM     11  C   UNL     1       2.836   5.612  19.344  0.00  0.00    +0.000 A 
ATOM     12  C   UNL     1       4.155   4.281  17.551  0.00  0.00    +0.000 C 
ATOM     13  C   UNL     1       3.952   2.832  17.078  0.00  0.00    +0.000 C 
ATOM     14  C   UNL     1       2.785   2.209  17.857  0.00  0.00    +0.000 C 
ENDBRANCH   4   6
ENDBRANCH   1   2
BRANCH   1  15
ATOM     15  S   UNL     1      -0.250   9.803  21.729  0.00  0.00    +0.000 S 
BRANCH  15  20
ATOM     16  N   UNL     1      -0.438  11.786  19.742  0.00  0.00    +0.000 N 
ATOM     17  N   UNL     1       0.182  12.972  19.483  0.00  0.00    +0.000 NA
ATOM     18  N   UNL     1       0.959  13.233  20.521  0.00  0.00    +0.000 NA
ATOM     19  N   UNL     1       0.907  12.228  21.443  0.00  0.00    +0.000 NA
ATOM     20  C   UNL     1       0.079  11.325  20.960  0.00  0.00    +0.000 A 
BRANCH  16  26
ATOM     21  C   UNL     1      -5.069  11.796  17.900  0.00  0.00    +0.000 C 
ATOM     22  C   UNL     1      -3.673  11.248  17.890  0.00  0.00    +0.000 A 
ATOM     23  C   UNL     1      -3.288  10.254  16.987  0.00  0.00    +0.000 A 
ATOM     24  C   UNL     1      -1.978   9.784  16.989  0.00  0.00    +0.000 A 
ATOM     25  C   UNL     1      -1.047  10.292  17.898  0.00  0.00    +0.000 A 
ATOM     26  C   UNL     1      -1.416  11.286  18.827  0.00  0.00    +0.000 A 
ATOM     27  C   UNL     1      -2.728  11.762  18.794  0.00  0.00    +0.000 A 
ENDBRANCH  16  26
ENDBRANCH  15  20
ENDBRANCH   1  15
TORSDOF 5
ENDMDL
