MODEL 1
REMARK VINA RESULT:      -8.8      0.000      0.000
REMARK  Name = 
REMARK  5 active torsions:
REMARK  status: ('A' for Active; 'I' for Inactive)
REMARK    1  A    between atoms: C_1  and  C_2
REMARK    2  A    between atoms: C_4  and  C_5
REMARK    3  A    between atoms: N_7  and  C_8
REMARK    4  A    between atoms: C_8  and  C_9
REMARK    5  A    between atoms: C_8  and  C_15
REMARK                            x       y       z     vdW  Elec       q    Type
REMARK                         _______ _______ _______ _____ _____    ______ ____
ROOT
ATOM      1  C   UNL     1       5.998   4.760  17.628  0.00  0.00    +0.000 C 
ENDROOT
BRANCH   1   2
ATOM      2  C   UNL     1       4.694   4.644  18.366  0.00  0.00    +0.000 A 
ATOM      3  C   UNL     1       4.230   5.174  19.558  0.00  0.00    +0.000 A 
ATOM      4  C   UNL     1       2.986   4.540  19.833  0.00  0.00    +0.000 A 
ATOM      5  C   UNL     1       2.053   4.554  20.885  0.00  0.00    +0.000 A 
ATOM      6  C   UNL     1       0.944   3.694  20.810  0.00  0.00    +0.000 A 
ATOM      7  C   UNL     1       0.749   2.860  19.706  0.00  0.00    +0.000 A 
ATOM      8  C   UNL     1       1.645   2.860  18.635  0.00  0.00    +0.000 A 
ATOM      9  C   UNL     1       2.747   3.702  18.751  0.00  0.00    +0.000 A 
ATOM     10  O   UNL     1       3.756   3.793  17.847  0.00  0.00    +0.000 OA
ENDBRANCH   1   2
BRANCH   1  11
ATOM     11  C   UNL     1       6.744   6.069  17.839  0.00  0.00    +0.000 A 
ATOM     12  C   UNL     1       7.813   6.201  18.739  0.00  0.00    +0.000 A 
ATOM     13  C   UNL     1       8.486   7.420  18.874  0.00  0.00    +0.000 A 
ATOM     14  C   UNL     1       8.088   8.529  18.129  0.00  0.00    +0.000 A 
ATOM     15  C   UNL     1       7.003   8.429  17.265  0.00  0.00    +0.000 A 
ATOM     16  C   UNL     1       6.332   7.212  17.126  0.00  0.00    +0.000 A 
ENDBRANCH   1  11
BRANCH   1  19
ATOM     17  C   UNL     1       6.766   4.389  15.304  0.00  0.00    +0.000 C 
ATOM     18  O   UNL     1       7.954   4.504  15.594  0.00  0.00    +0.000 OA
ATOM     19  N   UNL     1       5.755   4.517  16.224  0.00  0.00    +0.000 N 
ATOM     20  H   UNL     1       4.798   4.385  15.912  0.00  0.00    +0.000 HD
BRANCH  17  24
ATOM     21  C   UNL     1       4.194   3.064  11.123  0.00  0.00    +0.000 C 
ATOM     22  C   UNL     1       5.127   3.527  12.167  0.00  0.00    +0.000 A 
ATOM     23  C   UNL     1       5.017   3.753  13.515  0.00  0.00    +0.000 A 
ATOM     24  C   UNL     1       6.328   4.109  13.932  0.00  0.00    +0.000 A 
ATOM     25  N   UNL     1       7.165   4.143  12.878  0.00  0.00    +0.000 NA
ATOM     26  O   UNL     1       6.405   3.780  11.777  0.00  0.00    +0.000 OA
ENDBRANCH  17  24
ENDBRANCH   1  19
TORSDOF 4
ENDMDL
MODEL 2
REMARK VINA RESULT:      -8.4      0.894      1.052
REMARK  Name = 
REMARK  5 active torsions:
REMARK  status: ('A' for Active; 'I' for Inactive)
REMARK    1  A    between atoms: C_1  and  C_2
REMARK    2  A    between atoms: C_4  and  C_5
REMARK    3  A    between atoms: N_7  and  C_8
REMARK    4  A    between atoms: C_8  and  C_9
REMARK    5  A    between atoms: C_8  and  C_15
REMARK                            x       y       z     vdW  Elec       q    Type
REMARK                         _______ _______ _______ _____ _____    ______ ____
ROOT
ATOM      1  C   UNL     1       5.920   4.282  17.405  0.00  0.00    +0.000 C 
ENDROOT
BRANCH   1   2
ATOM      2  C   UNL     1       4.645   4.057  18.170  0.00  0.00    +0.000 A 
ATOM      3  C   UNL     1       3.384   4.625  18.098  0.00  0.00    +0.000 A 
ATOM      4  C   UNL     1       2.652   4.144  19.219  0.00  0.00    +0.000 A 
ATOM      5  C   UNL     1       1.381   4.376  19.774  0.00  0.00    +0.000 A 
ATOM      6  C   UNL     1       1.048   3.737  20.981  0.00  0.00    +0.000 A 
ATOM      7  C   UNL     1       1.943   2.866  21.609  0.00  0.00    +0.000 A 
ATOM      8  C   UNL     1       3.195   2.594  21.053  0.00  0.00    +0.000 A 
ATOM      9  C   UNL     1       3.506   3.263  19.872  0.00  0.00    +0.000 A 
ATOM     10  O   UNL     1       4.694   3.179  19.220  0.00  0.00    +0.000 OA
ENDBRANCH   1   2
BRANCH   1  11
ATOM     11  C   UNL     1       6.597   5.620  17.660  0.00  0.00    +0.000 A 
ATOM     12  C   UNL     1       7.694   5.768  18.523  0.00  0.00    +0.000 A 
ATOM     13  C   UNL     1       8.300   7.016  18.699  0.00  0.00    +0.000 A 
ATOM     14  C   UNL     1       7.806   8.138  18.034  0.00  0.00    +0.000 A 
ATOM     15  C   UNL     1       6.692   8.019  17.210  0.00  0.00    +0.000 A 
ATOM     16  C   UNL     1       6.088   6.773  17.030  0.00  0.00    +0.000 A 
ENDBRANCH   1  11
BRANCH   1  19
ATOM     17  C   UNL     1       6.626   4.183  15.035  0.00  0.00    +0.000 C 
ATOM     18  O   UNL     1       7.794   4.468  15.288  0.00  0.00    +0.000 OA
ATOM     19  N   UNL     1       5.652   4.090  15.998  0.00  0.00    +0.000 N 
ATOM     20  H   UNL     1       4.714   3.826  15.713  0.00  0.00    +0.000 HD
BRANCH  17  24
ATOM     21  C   UNL     1       3.945   3.148  10.842  0.00  0.00    +0.000 C 
ATOM     22  C   UNL     1       4.924   3.484  11.892  0.00  0.00    +0.000 A 
ATOM     23  C   UNL     1       4.829   3.789  13.225  0.00  0.00    +0.000 A 
ATOM     24  C   UNL     1       6.173   3.922  13.664  0.00  0.00    +0.000 A 
ATOM     25  N   UNL     1       7.025   3.753  12.635  0.00  0.00    +0.000 NA
ATOM     26  O   UNL     1       6.235   3.482  11.529  0.00  0.00    +0.000 OA
ENDBRANCH  17  24
ENDBRANCH   1  19
TORSDOF 4
ENDMDL
MODEL 3
REMARK VINA RESULT:      -8.4      4.047      7.893
REMARK  Name = 
REMARK  5 active torsions:
REMARK  status: ('A' for Active; 'I' for Inactive)
REMARK    1  A    between atoms: C_1  and  C_2
REMARK    2  A    between atoms: C_4  and  C_5
REMARK    3  A    between atoms: N_7  and  C_8
REMARK    4  A    between atoms: C_8  and  C_9
REMARK    5  A    between atoms: C_8  and  C_15
REMARK                            x       y       z     vdW  Elec       q    Type
REMARK                         _______ _______ _______ _____ _____    ______ ____
ROOT
ATOM      1  C   UNL     1       3.048   6.300  19.543  0.00  0.00    +0.000 C 
ENDROOT
BRANCH   1   2
ATOM      2  C   UNL     1       4.013   6.156  18.400  0.00  0.00    +0.000 A 
ATOM      3  C   UNL     1       3.976   6.547  17.072  0.00  0.00    +0.000 A 
ATOM      4  C   UNL     1       5.098   5.948  16.436  0.00  0.00    +0.000 A 
ATOM      5  C   UNL     1       5.595   5.871  15.122  0.00  0.00    +0.000 A 
ATOM      6  C   UNL     1       6.737   5.088  14.882  0.00  0.00    +0.000 A 
ATOM      7  C   UNL     1       7.387   4.418  15.922  0.00  0.00    +0.000 A 
ATOM      8  C   UNL     1       6.929   4.513  17.238  0.00  0.00    +0.000 A 
ATOM      9  C   UNL     1       5.781   5.274  17.440  0.00  0.00    +0.000 A 
ATOM     10  O   UNL     1       5.151   5.430  18.633  0.00  0.00    +0.000 OA
ENDBRANCH   1   2
BRANCH   1  11
ATOM     11  C   UNL     1       2.294   5.031  19.914  0.00  0.00    +0.000 A 
ATOM     12  C   UNL     1       2.279   4.506  21.216  0.00  0.00    +0.000 A 
ATOM     13  C   UNL     1       1.545   3.352  21.511  0.00  0.00    +0.000 A 
ATOM     14  C   UNL     1       0.834   2.694  20.507  0.00  0.00    +0.000 A 
ATOM     15  C   UNL     1       0.875   3.175  19.203  0.00  0.00    +0.000 A 
ATOM     16  C   UNL     1       1.604   4.329  18.907  0.00  0.00    +0.000 A 
ENDBRANCH   1  11
BRANCH   1  19
ATOM     17  C   UNL     1       1.614   8.205  20.208  0.00  0.00    +0.000 C 
ATOM     18  O   UNL     1       1.853   8.070  21.406  0.00  0.00    +0.000 OA
ATOM     19  N   UNL     1       2.136   7.380  19.243  0.00  0.00    +0.000 N 
ATOM     20  H   UNL     1       1.911   7.570  18.271  0.00  0.00    +0.000 HD
BRANCH  17  24
ATOM     21  C   UNL     1      -1.928  11.805  19.629  0.00  0.00    +0.000 C 
ATOM     22  C   UNL     1      -0.823  10.832  19.555  0.00  0.00    +0.000 A 
ATOM     23  C   UNL     1      -0.200  10.022  20.469  0.00  0.00    +0.000 A 
ATOM     24  C   UNL     1       0.735   9.268  19.710  0.00  0.00    +0.000 A 
ATOM     25  N   UNL     1       0.707   9.646  18.418  0.00  0.00    +0.000 NA
ATOM     26  O   UNL     1      -0.269  10.627  18.330  0.00  0.00    +0.000 OA
ENDBRANCH  17  24
ENDBRANCH   1  19
TORSDOF 4
ENDMDL
MODEL 4
REMARK VINA RESULT:      -8.3      2.499      6.973
REMARK  Name = 
REMARK  5 active torsions:
REMARK  status: ('A' for Active; 'I' for Inactive)
REMARK    1  A    between atoms: C_1  and  C_2
REMARK    2  A    between atoms: C_4  and  C_5
REMARK    3  A    between atoms: N_7  and  C_8
REMARK    4  A    between atoms: C_8  and  C_9
REMARK    5  A    between atoms: C_8  and  C_15
REMARK                            x       y       z     vdW  Elec       q    Type
REMARK                         _______ _______ _______ _____ _____    ______ ____
ROOT
ATOM      1  C   UNL     1       6.132   5.634  17.497  0.00  0.00    +0.000 C 
ENDROOT
BRANCH   1   2
ATOM      2  C   UNL     1       6.082   5.189  16.062  0.00  0.00    +0.000 A 
ATOM      3  C   UNL     1       5.264   4.313  15.368  0.00  0.00    +0.000 A 
ATOM      4  C   UNL     1       5.837   4.151  14.076  0.00  0.00    +0.000 A 
ATOM      5  C   UNL     1       5.567   3.368  12.940  0.00  0.00    +0.000 A 
ATOM      6  C   UNL     1       6.448   3.444  11.847  0.00  0.00    +0.000 A 
ATOM      7  C   UNL     1       7.555   4.297  11.869  0.00  0.00    +0.000 A 
ATOM      8  C   UNL     1       7.817   5.110  12.973  0.00  0.00    +0.000 A 
ATOM      9  C   UNL     1       6.943   4.992  14.050  0.00  0.00    +0.000 A 
ATOM     10  O   UNL     1       7.070   5.648  15.232  0.00  0.00    +0.000 OA
ENDBRANCH   1   2
BRANCH   1  11
ATOM     11  C   UNL     1       4.807   5.557  18.241  0.00  0.00    +0.000 A 
ATOM     12  C   UNL     1       4.530   4.574  19.205  0.00  0.00    +0.000 A 
ATOM     13  C   UNL     1       3.306   4.565  19.883  0.00  0.00    +0.000 A 
ATOM     14  C   UNL     1       2.335   5.523  19.595  0.00  0.00    +0.000 A 
ATOM     15  C   UNL     1       2.576   6.478  18.612  0.00  0.00    +0.000 A 
ATOM     16  C   UNL     1       3.798   6.490  17.936  0.00  0.00    +0.000 A 
ENDBRANCH   1  11
BRANCH   1  19
ATOM     17  C   UNL     1       7.771   7.298  18.315  0.00  0.00    +0.000 C 
ATOM     18  O   UNL     1       8.343   6.493  19.047  0.00  0.00    +0.000 OA
ATOM     19  N   UNL     1       6.683   6.969  17.547  0.00  0.00    +0.000 N 
ATOM     20  H   UNL     1       6.279   7.684  16.949  0.00  0.00    +0.000 HD
BRANCH  17  24
ATOM     21  C   UNL     1       9.849  11.880  19.041  0.00  0.00    +0.000 C 
ATOM     22  C   UNL     1       9.168  10.650  18.598  0.00  0.00    +0.000 A 
ATOM     23  C   UNL     1       9.148   9.354  19.047  0.00  0.00    +0.000 A 
ATOM     24  C   UNL     1       8.210   8.694  18.210  0.00  0.00    +0.000 A 
ATOM     25  N   UNL     1       7.731   9.540  17.279  0.00  0.00    +0.000 NA
ATOM     26  O   UNL     1       8.338  10.762  17.527  0.00  0.00    +0.000 OA
ENDBRANCH  17  24
ENDBRANCH   1  19
TORSDOF 4
ENDMDL
MODEL 5
REMARK VINA RESULT:      -8.2      0.704      1.205
REMARK  Name = 
REMARK  5 active torsions:
REMARK  status: ('A' for Active; 'I' for Inactive)
REMARK    1  A    between atoms: C_1  and  C_2
REMARK    2  A    between atoms: C_4  and  C_5
REMARK    3  A    between atoms: N_7  and  C_8
REMARK    4  A    between atoms: C_8  and  C_9
REMARK    5  A    between atoms: C_8  and  C_15
REMARK                            x       y       z     vdW  Elec       q    Type
REMARK                         _______ _______ _______ _____ _____    ______ ____
ROOT
ATOM      1  C   UNL     1       6.100   4.323  17.457  0.00  0.00    +0.000 C 
ENDROOT
BRANCH   1   2
ATOM      2  C   UNL     1       4.876   4.024  18.277  0.00  0.00    +0.000 A 
ATOM      3  C   UNL     1       4.052   2.916  18.381  0.00  0.00    +0.000 A 
ATOM      4  C   UNL     1       2.937   3.307  19.173  0.00  0.00    +0.000 A 
ATOM      5  C   UNL     1       1.731   2.713  19.587  0.00  0.00    +0.000 A 
ATOM      6  C   UNL     1       0.822   3.487  20.329  0.00  0.00    +0.000 A 
ATOM      7  C   UNL     1       1.112   4.809  20.676  0.00  0.00    +0.000 A 
ATOM      8  C   UNL     1       2.320   5.403  20.307  0.00  0.00    +0.000 A 
ATOM      9  C   UNL     1       3.188   4.621  19.549  0.00  0.00    +0.000 A 
ATOM     10  O   UNL     1       4.376   5.042  19.043  0.00  0.00    +0.000 OA
ENDBRANCH   1   2
BRANCH   1  11
ATOM     11  C   UNL     1       6.707   5.700  17.682  0.00  0.00    +0.000 A 
ATOM     12  C   UNL     1       7.783   5.927  18.554  0.00  0.00    +0.000 A 
ATOM     13  C   UNL     1       8.324   7.208  18.703  0.00  0.00    +0.000 A 
ATOM     14  C   UNL     1       7.784   8.285  18.000  0.00  0.00    +0.000 A 
ATOM     15  C   UNL     1       6.688   8.087  17.166  0.00  0.00    +0.000 A 
ATOM     16  C   UNL     1       6.150   6.808  17.013  0.00  0.00    +0.000 A 
ENDBRANCH   1  11
BRANCH   1  19
ATOM     17  C   UNL     1       6.709   4.250  15.059  0.00  0.00    +0.000 C 
ATOM     18  O   UNL     1       7.871   4.594  15.262  0.00  0.00    +0.000 OA
ATOM     19  N   UNL     1       5.783   4.112  16.063  0.00  0.00    +0.000 N 
ATOM     20  H   UNL     1       4.848   3.800  15.819  0.00  0.00    +0.000 HD
BRANCH  17  24
ATOM     21  C   UNL     1       3.902   3.087  10.983  0.00  0.00    +0.000 C 
ATOM     22  C   UNL     1       4.910   3.464  11.991  0.00  0.00    +0.000 A 
ATOM     23  C   UNL     1       4.857   3.780  13.324  0.00  0.00    +0.000 A 
ATOM     24  C   UNL     1       6.212   3.960  13.709  0.00  0.00    +0.000 A 
ATOM     25  N   UNL     1       7.028   3.810  12.649  0.00  0.00    +0.000 NA
ATOM     26  O   UNL     1       6.205   3.502  11.577  0.00  0.00    +0.000 OA
ENDBRANCH  17  24
ENDBRANCH   1  19
TORSDOF 4
ENDMDL
MODEL 6
REMARK VINA RESULT:      -8.2      4.226      7.972
REMARK  Name = 
REMARK  5 active torsions:
REMARK  status: ('A' for Active; 'I' for Inactive)
REMARK    1  A    between atoms: C_1  and  C_2
REMARK    2  A    between atoms: C_4  and  C_5
REMARK    3  A    between atoms: N_7  and  C_8
REMARK    4  A    between atoms: C_8  and  C_9
REMARK    5  A    between atoms: C_8  and  C_15
REMARK                            x       y       z     vdW  Elec       q    Type
REMARK                         _______ _______ _______ _____ _____    ______ ____
ROOT
ATOM      1  C   UNL     1       3.056   6.237  19.702  0.00  0.00    +0.000 C 
ENDROOT
BRANCH   1   2
ATOM      2  C   UNL     1       3.979   6.127  18.520  0.00  0.00    +0.000 A 
ATOM      3  C   UNL     1       3.879   6.531  17.199  0.00  0.00    +0.000 A 
ATOM      4  C   UNL     1       4.988   5.964  16.512  0.00  0.00    +0.000 A 
ATOM      5  C   UNL     1       5.434   5.912  15.179  0.00  0.00    +0.000 A 
ATOM      6  C   UNL     1       6.583   5.158  14.885  0.00  0.00    +0.000 A 
ATOM      7  C   UNL     1       7.289   4.493  15.891  0.00  0.00    +0.000 A 
ATOM      8  C   UNL     1       6.883   4.565  17.225  0.00  0.00    +0.000 A 
ATOM      9  C   UNL     1       5.726   5.296  17.481  0.00  0.00    +0.000 A 
ATOM     10  O   UNL     1       5.141   5.426  18.699  0.00  0.00    +0.000 OA
ENDBRANCH   1   2
BRANCH   1  11
ATOM     11  C   UNL     1       2.304   4.962  20.053  0.00  0.00    +0.000 A 
ATOM     12  C   UNL     1       1.444   4.311  19.155  0.00  0.00    +0.000 A 
ATOM     13  C   UNL     1       0.798   3.124  19.517  0.00  0.00    +0.000 A 
ATOM     14  C   UNL     1       0.985   2.581  20.787  0.00  0.00    +0.000 A 
ATOM     15  C   UNL     1       1.799   3.236  21.706  0.00  0.00    +0.000 A 
ATOM     16  C   UNL     1       2.447   4.419  21.345  0.00  0.00    +0.000 A 
ENDBRANCH   1  11
BRANCH   1  19
ATOM     17  C   UNL     1       1.632   8.100  20.493  0.00  0.00    +0.000 C 
ATOM     18  O   UNL     1       1.878   7.891  21.679  0.00  0.00    +0.000 OA
ATOM     19  N   UNL     1       2.146   7.336  19.475  0.00  0.00    +0.000 N 
ATOM     20  H   UNL     1       1.914   7.585  18.519  0.00  0.00    +0.000 HD
BRANCH  17  24
ATOM     21  C   UNL     1      -0.462  12.156  18.255  0.00  0.00    +0.000 C 
ATOM     22  C   UNL     1      -0.088  10.957  19.026  0.00  0.00    +0.000 A 
ATOM     23  C   UNL     1       0.960  10.074  18.972  0.00  0.00    +0.000 A 
ATOM     24  C   UNL     1       0.752   9.194  20.067  0.00  0.00    +0.000 A 
ATOM     25  N   UNL     1      -0.388   9.505  20.712  0.00  0.00    +0.000 NA
ATOM     26  O   UNL     1      -0.909  10.608  20.053  0.00  0.00    +0.000 OA
ENDBRANCH  17  24
ENDBRANCH   1  19
TORSDOF 4
ENDMDL
MODEL 7
REMARK VINA RESULT:      -8.1      1.861      6.362
REMARK  Name = 
REMARK  5 active torsions:
REMARK  status: ('A' for Active; 'I' for Inactive)
REMARK    1  A    between atoms: C_1  and  C_2
REMARK    2  A    between atoms: C_4  and  C_5
REMARK    3  A    between atoms: N_7  and  C_8
REMARK    4  A    between atoms: C_8  and  C_9
REMARK    5  A    between atoms: C_8  and  C_15
REMARK                            x       y       z     vdW  Elec       q    Type
REMARK                         _______ _______ _______ _____ _____    ______ ____
ROOT
ATOM      1  C   UNL     1       5.312   6.012  16.476  0.00  0.00    +0.000 C 
ENDROOT
BRANCH   1   2
ATOM      2  C   UNL     1       5.741   5.155  15.317  0.00  0.00    +0.000 A 
ATOM      3  C   UNL     1       6.958   4.947  14.692  0.00  0.00    +0.000 A 
ATOM      4  C   UNL     1       6.694   4.178  13.524  0.00  0.00    +0.000 A 
ATOM      5  C   UNL     1       7.444   3.701  12.435  0.00  0.00    +0.000 A 
ATOM      6  C   UNL     1       6.774   3.017  11.406  0.00  0.00    +0.000 A 
ATOM      7  C   UNL     1       5.396   2.788  11.468  0.00  0.00    +0.000 A 
ATOM      8  C   UNL     1       4.642   3.221  12.559  0.00  0.00    +0.000 A 
ATOM      9  C   UNL     1       5.329   3.919  13.549  0.00  0.00    +0.000 A 
ATOM     10  O   UNL     1       4.759   4.473  14.650  0.00  0.00    +0.000 OA
ENDBRANCH   1   2
BRANCH   1  11
ATOM     11  C   UNL     1       6.449   6.608  17.292  0.00  0.00    +0.000 A 
ATOM     12  C   UNL     1       6.948   7.902  17.075  0.00  0.00    +0.000 A 
ATOM     13  C   UNL     1       7.976   8.415  17.874  0.00  0.00    +0.000 A 
ATOM     14  C   UNL     1       8.535   7.635  18.886  0.00  0.00    +0.000 A 
ATOM     15  C   UNL     1       8.084   6.334  19.086  0.00  0.00    +0.000 A 
ATOM     16  C   UNL     1       7.056   5.823  18.292  0.00  0.00    +0.000 A 
ENDBRANCH   1  11
BRANCH   1  19
ATOM     17  C   UNL     1       3.303   5.786  17.904  0.00  0.00    +0.000 C 
ATOM     18  O   UNL     1       2.999   6.972  17.802  0.00  0.00    +0.000 OA
ATOM     19  N   UNL     1       4.416   5.245  17.310  0.00  0.00    +0.000 N 
ATOM     20  H   UNL     1       4.588   4.250  17.421  0.00  0.00    +0.000 HD
BRANCH  17  24
ATOM     21  C   UNL     1       1.365   2.746  21.488  0.00  0.00    +0.000 C 
ATOM     22  C   UNL     1       1.712   3.562  20.311  0.00  0.00    +0.000 A 
ATOM     23  C   UNL     1       2.644   4.537  20.065  0.00  0.00    +0.000 A 
ATOM     24  C   UNL     1       2.494   4.844  18.686  0.00  0.00    +0.000 A 
ATOM     25  N   UNL     1       1.491   4.126  18.149  0.00  0.00    +0.000 NA
ATOM     26  O   UNL     1       1.004   3.327  19.173  0.00  0.00    +0.000 OA
ENDBRANCH  17  24
ENDBRANCH   1  19
TORSDOF 4
ENDMDL
MODEL 8
REMARK VINA RESULT:      -7.9      3.194      5.431
REMARK  Name = 
REMARK  5 active torsions:
REMARK  status: ('A' for Active; 'I' for Inactive)
REMARK    1  A    between atoms: C_1  and  C_2
REMARK    2  A    between atoms: C_4  and  C_5
REMARK    3  A    between atoms: N_7  and  C_8
REMARK    4  A    between atoms: C_8  and  C_9
REMARK    5  A    between atoms: C_8  and  C_15
REMARK                            x       y       z     vdW  Elec       q    Type
REMARK                         _______ _______ _______ _____ _____    ______ ____
ROOT
ATOM      1  C   UNL     1       2.423   5.335  18.534  0.00  0.00    +0.000 C 
ENDROOT
BRANCH   1   2
ATOM      2  C   UNL     1       2.162   6.729  19.034  0.00  0.00    +0.000 A 
ATOM      3  C   UNL     1       1.810   7.242  20.271  0.00  0.00    +0.000 A 
ATOM      4  C   UNL     1       1.505   8.617  20.073  0.00  0.00    +0.000 A 
ATOM      5  C   UNL     1       1.020   9.671  20.869  0.00  0.00    +0.000 A 
ATOM      6  C   UNL     1       0.771  10.913  20.259  0.00  0.00    +0.000 A 
ATOM      7  C   UNL     1       1.022  11.113  18.898  0.00  0.00    +0.000 A 
ATOM      8  C   UNL     1       1.539  10.090  18.102  0.00  0.00    +0.000 A 
ATOM      9  C   UNL     1       1.749   8.865  18.728  0.00  0.00    +0.000 A 
ATOM     10  O   UNL     1       2.183   7.737  18.108  0.00  0.00    +0.000 OA
ENDBRANCH   1   2
BRANCH   1  11
ATOM     11  C   UNL     1       2.414   4.254  19.605  0.00  0.00    +0.000 A 
ATOM     12  C   UNL     1       3.574   3.581  20.020  0.00  0.00    +0.000 A 
ATOM     13  C   UNL     1       3.516   2.616  21.030  0.00  0.00    +0.000 A 
ATOM     14  C   UNL     1       2.297   2.293  21.626  0.00  0.00    +0.000 A 
ATOM     15  C   UNL     1       1.131   2.918  21.196  0.00  0.00    +0.000 A 
ATOM     16  C   UNL     1       1.187   3.885  20.190  0.00  0.00    +0.000 A 
ENDBRANCH   1  11
BRANCH   1  19
ATOM     17  C   UNL     1       3.976   4.391  16.854  0.00  0.00    +0.000 C 
ATOM     18  O   UNL     1       3.232   3.452  16.577  0.00  0.00    +0.000 OA
ATOM     19  N   UNL     1       3.669   5.335  17.802  0.00  0.00    +0.000 N 
ATOM     20  H   UNL     1       4.325   6.094  17.958  0.00  0.00    +0.000 HD
BRANCH  17  24
ATOM     21  C   UNL     1       7.758   5.035  13.518  0.00  0.00    +0.000 C 
ATOM     22  C   UNL     1       6.850   4.872  14.669  0.00  0.00    +0.000 A 
ATOM     23  C   UNL     1       5.487   4.872  14.818  0.00  0.00    +0.000 A 
ATOM     24  C   UNL     1       5.272   4.573  16.190  0.00  0.00    +0.000 A 
ATOM     25  N   UNL     1       6.446   4.451  16.836  0.00  0.00    +0.000 NA
ATOM     26  O   UNL     1       7.429   4.643  15.877  0.00  0.00    +0.000 OA
ENDBRANCH  17  24
ENDBRANCH   1  19
TORSDOF 4
ENDMDL
MODEL 9
REMARK VINA RESULT:      -7.8      1.944      6.533
REMARK  Name = 
REMARK  5 active torsions:
REMARK  status: ('A' for Active; 'I' for Inactive)
REMARK    1  A    between atoms: C_1  and  C_2
REMARK    2  A    between atoms: C_4  and  C_5
REMARK    3  A    between atoms: N_7  and  C_8
REMARK    4  A    between atoms: C_8  and  C_9
REMARK    5  A    between atoms: C_8  and  C_15
REMARK                            x       y       z     vdW  Elec       q    Type
REMARK                         _______ _______ _______ _____ _____    ______ ____
ROOT
ATOM      1  C   UNL     1       5.052   6.162  16.711  0.00  0.00    +0.000 C 
ENDROOT
BRANCH   1   2
ATOM      2  C   UNL     1       5.320   5.451  15.413  0.00  0.00    +0.000 A 
ATOM      3  C   UNL     1       4.730   4.365  14.788  0.00  0.00    +0.000 A 
ATOM      4  C   UNL     1       5.554   4.034  13.677  0.00  0.00    +0.000 A 
ATOM      5  C   UNL     1       5.578   3.022  12.700  0.00  0.00    +0.000 A 
ATOM      6  C   UNL     1       6.644   2.999  11.783  0.00  0.00    +0.000 A 
ATOM      7  C   UNL     1       7.647   3.972  11.816  0.00  0.00    +0.000 A 
ATOM      8  C   UNL     1       7.619   5.005  12.755  0.00  0.00    +0.000 A 
ATOM      9  C   UNL     1       6.567   4.985  13.666  0.00  0.00    +0.000 A 
ATOM     10  O   UNL     1       6.406   5.864  14.689  0.00  0.00    +0.000 OA
ENDBRANCH   1   2
BRANCH   1  11
ATOM     11  C   UNL     1       6.294   6.605  17.471  0.00  0.00    +0.000 A 
ATOM     12  C   UNL     1       6.922   7.841  17.251  0.00  0.00    +0.000 A 
ATOM     13  C   UNL     1       8.044   8.214  17.999  0.00  0.00    +0.000 A 
ATOM     14  C   UNL     1       8.568   7.350  18.959  0.00  0.00    +0.000 A 
ATOM     15  C   UNL     1       7.986   6.102  19.158  0.00  0.00    +0.000 A 
ATOM     16  C   UNL     1       6.863   5.730  18.416  0.00  0.00    +0.000 A 
ENDBRANCH   1  11
BRANCH   1  19
ATOM     17  C   UNL     1       3.073   5.782  18.148  0.00  0.00    +0.000 C 
ATOM     18  O   UNL     1       2.700   6.951  18.080  0.00  0.00    +0.000 OA
ATOM     19  N   UNL     1       4.209   5.322  17.531  0.00  0.00    +0.000 N 
ATOM     20  H   UNL     1       4.439   4.336  17.614  0.00  0.00    +0.000 HD
BRANCH  17  24
ATOM     21  C   UNL     1       1.307   2.587  21.685  0.00  0.00    +0.000 C 
ATOM     22  C   UNL     1       1.614   3.430  20.516  0.00  0.00    +0.000 A 
ATOM     23  C   UNL     1       2.466   4.481  20.292  0.00  0.00    +0.000 A 
ATOM     24  C   UNL     1       2.326   4.775  18.910  0.00  0.00    +0.000 A 
ATOM     25  N   UNL     1       1.401   3.974  18.348  0.00  0.00    +0.000 NA
ATOM     26  O   UNL     1       0.958   3.137  19.361  0.00  0.00    +0.000 OA
ENDBRANCH  17  24
ENDBRANCH   1  19
TORSDOF 4
ENDMDL
