MODEL 1
REMARK VINA RESULT:      -8.8      0.000      0.000
REMARK  Name = 
REMARK  6 active torsions:
REMARK  status: ('A' for Active; 'I' for Inactive)
REMARK    1  A    between atoms: C_2  and  C_19
REMARK    2  A    between atoms: N_3  and  C_4
REMARK    3  A    between atoms: C_9  and  O_10
REMARK    4  A    between atoms: O_10  and  C_11
REMARK    5  A    between atoms: CA_22  and  C_23
REMARK    6  A    between atoms: C_23  and  OXT_25
REMARK                            x       y       z     vdW  Elec       q    Type
REMARK                         _______ _______ _______ _____ _____    ______ ____
ROOT
ATOM      1  O   UNL     1       5.552   4.692  18.481  0.00  0.00    +0.000 OA
ATOM      2  C   UNL     1       4.892   5.174  17.568  0.00  0.00    +0.000 C 
ATOM      3  N   UNL     1       3.505   5.108  17.444  0.00  0.00    +0.000 N 
ATOM      4  H   UNL     1       3.092   5.460  16.578  0.00  0.00    +0.000 HD
ENDROOT
BRANCH   2   5
ATOM      5  C   UNL     1       5.640   5.951  16.481  0.00  0.00    +0.000 C 
ATOM      6  C   UNL     1       5.023   5.731  15.097  0.00  0.00    +0.000 C 
ATOM      7  C   UNL     1       5.444   4.396  14.498  0.00  0.00    +0.000 C 
ATOM      8  CA  UNL     1       6.963   4.195  14.540  0.00  0.00    +0.000 C 
ATOM      9  N   UNL     1       7.510   4.406  15.908  0.00  0.00    +0.000 NA
ATOM     10  C   UNL     1       7.143   5.715  16.476  0.00  0.00    +0.000 C 
ATOM     11  H   UNL     1       8.533   4.390  15.833  0.00  0.00    +0.000 HD
BRANCH   8  12
ATOM     12  C   UNL     1       7.710   5.043  13.484  0.00  0.00    +0.000 C 
ATOM     13  O   UNL     1       8.581   5.863  13.739  0.00  0.00    +0.000 OA
BRANCH  12  14
ATOM     14  OXT UNL     1       7.364   4.756  12.207  0.00  0.00    +0.000 OA
ATOM     15  HXT UNL     1       7.282   3.806  12.004  0.00  0.00    +0.000 HD
ENDBRANCH  12  14
ENDBRANCH   8  12
ENDBRANCH   2   5
BRANCH   3  16
ATOM     16  C   UNL     1       2.616   4.480  18.357  0.00  0.00    +0.000 A 
ATOM     17  C   UNL     1       1.971   3.284  18.001  0.00  0.00    +0.000 A 
ATOM     18  C   UNL     1       1.036   2.670  18.834  0.00  0.00    +0.000 A 
ATOM     19  C   UNL     1       0.776   3.201  20.084  0.00  0.00    +0.000 A 
ATOM     20  C   UNL     1       1.466   4.334  20.503  0.00  0.00    +0.000 A 
ATOM     21  C   UNL     1       2.345   5.025  19.637  0.00  0.00    +0.000 A 
BRANCH  21  22
ATOM     22  O   UNL     1       2.910   6.240  20.031  0.00  0.00    +0.000 OA
BRANCH  22  23
ATOM     23  C   UNL     1       2.132   7.387  19.875  0.00  0.00    +0.000 A 
ATOM     24  C   UNL     1       2.178   8.085  18.666  0.00  0.00    +0.000 A 
ATOM     25  C   UNL     1       1.474   9.292  18.540  0.00  0.00    +0.000 A 
ATOM     26  F   UNL     1       1.524   9.970  17.387  0.00  0.00    +0.000 F 
ATOM     27  C   UNL     1       0.739   9.820  19.600  0.00  0.00    +0.000 A 
ATOM     28  C   UNL     1       0.674   9.096  20.777  0.00  0.00    +0.000 A 
ATOM     29  F   UNL     1       0.006   9.599  21.824  0.00  0.00    +0.000 F 
ATOM     30  C   UNL     1       1.317   7.872  20.908  0.00  0.00    +0.000 A 
ENDBRANCH  22  23
ENDBRANCH  21  22
ENDBRANCH   3  16
TORSDOF 6
ENDMDL
MODEL 2
REMARK VINA RESULT:      -8.5      0.541      1.655
REMARK  Name = 
REMARK  6 active torsions:
REMARK  status: ('A' for Active; 'I' for Inactive)
REMARK    1  A    between atoms: C_2  and  C_19
REMARK    2  A    between atoms: N_3  and  C_4
REMARK    3  A    between atoms: C_9  and  O_10
REMARK    4  A    between atoms: O_10  and  C_11
REMARK    5  A    between atoms: CA_22  and  C_23
REMARK    6  A    between atoms: C_23  and  OXT_25
REMARK                            x       y       z     vdW  Elec       q    Type
REMARK                         _______ _______ _______ _____ _____    ______ ____
ROOT
ATOM      1  O   UNL     1       5.547   4.894  18.450  0.00  0.00    +0.000 OA
ATOM      2  C   UNL     1       4.885   5.399  17.552  0.00  0.00    +0.000 C 
ATOM      3  N   UNL     1       3.493   5.406  17.472  0.00  0.00    +0.000 N 
ATOM      4  H   UNL     1       3.073   5.769  16.614  0.00  0.00    +0.000 HD
ENDROOT
BRANCH   2   5
ATOM      5  C   UNL     1       5.638   6.121  16.432  0.00  0.00    +0.000 C 
ATOM      6  C   UNL     1       5.030   5.831  15.057  0.00  0.00    +0.000 C 
ATOM      7  C   UNL     1       5.457   4.468  14.529  0.00  0.00    +0.000 C 
ATOM      8  CA  UNL     1       6.976   4.272  14.590  0.00  0.00    +0.000 C 
ATOM      9  N   UNL     1       7.514   4.553  15.948  0.00  0.00    +0.000 NA
ATOM     10  C   UNL     1       7.142   5.889  16.447  0.00  0.00    +0.000 C 
ATOM     11  H   UNL     1       8.538   4.534  15.881  0.00  0.00    +0.000 HD
BRANCH   8  12
ATOM     12  C   UNL     1       7.728   5.066  13.497  0.00  0.00    +0.000 C 
ATOM     13  O   UNL     1       8.615   5.880  13.713  0.00  0.00    +0.000 OA
BRANCH  12  14
ATOM     14  OXT UNL     1       7.365   4.738  12.234  0.00  0.00    +0.000 OA
ATOM     15  HXT UNL     1       7.948   5.083  11.533  0.00  0.00    +0.000 HD
ENDBRANCH  12  14
ENDBRANCH   8  12
ENDBRANCH   2   5
BRANCH   3  16
ATOM     16  C   UNL     1       2.601   4.838  18.421  0.00  0.00    +0.000 A 
ATOM     17  C   UNL     1       2.004   3.592  18.167  0.00  0.00    +0.000 A 
ATOM     18  C   UNL     1       1.069   3.028  19.034  0.00  0.00    +0.000 A 
ATOM     19  C   UNL     1       0.759   3.667  20.221  0.00  0.00    +0.000 A 
ATOM     20  C   UNL     1       1.402   4.858  20.544  0.00  0.00    +0.000 A 
ATOM     21  C   UNL     1       2.280   5.493  19.636  0.00  0.00    +0.000 A 
BRANCH  21  22
ATOM     22  O   UNL     1       2.795   6.759  19.924  0.00  0.00    +0.000 OA
BRANCH  22  23
ATOM     23  C   UNL     1       1.883   7.805  20.057  0.00  0.00    +0.000 A 
ATOM     24  C   UNL     1       1.148   7.926  21.239  0.00  0.00    +0.000 A 
ATOM     25  C   UNL     1       0.160   8.917  21.338  0.00  0.00    +0.000 A 
ATOM     26  F   UNL     1      -0.555   9.029  22.464  0.00  0.00    +0.000 F 
ATOM     27  C   UNL     1      -0.117   9.776  20.276  0.00  0.00    +0.000 A 
ATOM     28  C   UNL     1       0.646   9.667  19.128  0.00  0.00    +0.000 A 
ATOM     29  F   UNL     1       0.376  10.456  18.079  0.00  0.00    +0.000 F 
ATOM     30  C   UNL     1       1.667   8.731  19.026  0.00  0.00    +0.000 A 
ENDBRANCH  22  23
ENDBRANCH  21  22
ENDBRANCH   3  16
TORSDOF 6
ENDMDL
MODEL 3
REMARK VINA RESULT:      -8.5      0.636      1.730
REMARK  Name = 
REMARK  6 active torsions:
REMARK  status: ('A' for Active; 'I' for Inactive)
REMARK    1  A    between atoms: C_2  and  C_19
REMARK    2  A    between atoms: N_3  and  C_4
REMARK    3  A    between atoms: C_9  and  O_10
REMARK    4  A    between atoms: O_10  and  C_11
REMARK    5  A    between atoms: CA_22  and  C_23
REMARK    6  A    between atoms: C_23  and  OXT_25
REMARK                            x       y       z     vdW  Elec       q    Type
REMARK                         _______ _______ _______ _____ _____    ______ ____
ROOT
ATOM      1  O   UNL     1       5.650   4.253  19.340  0.00  0.00    +0.000 OA
ATOM      2  C   UNL     1       5.258   4.665  18.256  0.00  0.00    +0.000 C 
ATOM      3  N   UNL     1       3.937   4.658  17.811  0.00  0.00    +0.000 N 
ATOM      4  H   UNL     1       3.764   4.934  16.843  0.00  0.00    +0.000 HD
ENDROOT
BRANCH   2   5
ATOM      5  C   UNL     1       6.295   5.278  17.310  0.00  0.00    +0.000 C 
ATOM      6  C   UNL     1       5.635   6.101  16.199  0.00  0.00    +0.000 C 
ATOM      7  C   UNL     1       5.083   5.211  15.093  0.00  0.00    +0.000 C 
ATOM      8  CA  UNL     1       6.121   4.203  14.587  0.00  0.00    +0.000 C 
ATOM      9  N   UNL     1       6.720   3.421  15.702  0.00  0.00    +0.000 NA
ATOM     10  C   UNL     1       7.296   4.276  16.756  0.00  0.00    +0.000 C 
ATOM     11  H   UNL     1       7.491   2.871  15.310  0.00  0.00    +0.000 HD
BRANCH   8  12
ATOM     12  C   UNL     1       7.202   4.852  13.693  0.00  0.00    +0.000 C 
ATOM     13  O   UNL     1       8.029   5.667  14.079  0.00  0.00    +0.000 OA
BRANCH  12  14
ATOM     14  OXT UNL     1       7.211   4.389  12.420  0.00  0.00    +0.000 OA
ATOM     15  HXT UNL     1       6.440   4.644  11.882  0.00  0.00    +0.000 HD
ENDBRANCH  12  14
ENDBRANCH   8  12
ENDBRANCH   2   5
BRANCH   3  16
ATOM     16  C   UNL     1       2.815   4.181  18.542  0.00  0.00    +0.000 A 
ATOM     17  C   UNL     1       2.123   3.041  18.102  0.00  0.00    +0.000 A 
ATOM     18  C   UNL     1       0.975   2.577  18.744  0.00  0.00    +0.000 A 
ATOM     19  C   UNL     1       0.529   3.205  19.893  0.00  0.00    +0.000 A 
ATOM     20  C   UNL     1       1.246   4.282  20.406  0.00  0.00    +0.000 A 
ATOM     21  C   UNL     1       2.355   4.825  19.717  0.00  0.00    +0.000 A 
BRANCH  21  22
ATOM     22  O   UNL     1       2.963   5.995  20.177  0.00  0.00    +0.000 OA
BRANCH  22  23
ATOM     23  C   UNL     1       2.289   7.196  19.955  0.00  0.00    +0.000 A 
ATOM     24  C   UNL     1       1.487   7.728  20.968  0.00  0.00    +0.000 A 
ATOM     25  C   UNL     1       0.731   8.882  20.713  0.00  0.00    +0.000 A 
ATOM     26  F   UNL     1      -0.047   9.388  21.677  0.00  0.00    +0.000 F 
ATOM     27  C   UNL     1       0.749   9.503  19.466  0.00  0.00    +0.000 A 
ATOM     28  C   UNL     1       1.577   8.985  18.487  0.00  0.00    +0.000 A 
ATOM     29  F   UNL     1       1.586   9.541  17.268  0.00  0.00    +0.000 F 
ATOM     30  C   UNL     1       2.377   7.877  18.731  0.00  0.00    +0.000 A 
ENDBRANCH  22  23
ENDBRANCH  21  22
ENDBRANCH   3  16
TORSDOF 6
ENDMDL
MODEL 4
REMARK VINA RESULT:      -8.2      3.562      7.259
REMARK  Name = 
REMARK  6 active torsions:
REMARK  status: ('A' for Active; 'I' for Inactive)
REMARK    1  A    between atoms: C_2  and  C_19
REMARK    2  A    between atoms: N_3  and  C_4
REMARK    3  A    between atoms: C_9  and  O_10
REMARK    4  A    between atoms: O_10  and  C_11
REMARK    5  A    between atoms: CA_22  and  C_23
REMARK    6  A    between atoms: C_23  and  OXT_25
REMARK                            x       y       z     vdW  Elec       q    Type
REMARK                         _______ _______ _______ _____ _____    ______ ____
ROOT
ATOM      1  O   UNL     1       1.782   7.494  17.988  0.00  0.00    +0.000 OA
ATOM      2  C   UNL     1       1.907   7.867  19.148  0.00  0.00    +0.000 C 
ATOM      3  N   UNL     1       2.099   7.040  20.253  0.00  0.00    +0.000 N 
ATOM      4  H   UNL     1       2.080   7.476  21.177  0.00  0.00    +0.000 HD
ENDROOT
BRANCH   2   5
ATOM      5  C   UNL     1       1.889   9.375  19.416  0.00  0.00    +0.000 C 
ATOM      6  C   UNL     1       0.880   9.747  20.506  0.00  0.00    +0.000 C 
ATOM      7  C   UNL     1      -0.544   9.780  19.968  0.00  0.00    +0.000 C 
ATOM      8  CA  UNL     1      -0.663  10.626  18.695  0.00  0.00    +0.000 C 
ATOM      9  N   UNL     1       0.328  10.215  17.664  0.00  0.00    +0.000 NA
ATOM     10  C   UNL     1       1.713  10.224  18.167  0.00  0.00    +0.000 C 
ATOM     11  H   UNL     1       0.281  10.902  16.905  0.00  0.00    +0.000 HD
BRANCH   8  12
ATOM     12  C   UNL     1      -0.606  12.145  18.977  0.00  0.00    +0.000 C 
ATOM     13  O   UNL     1      -0.606  12.647  20.092  0.00  0.00    +0.000 OA
BRANCH  12  14
ATOM     14  OXT UNL     1      -0.487  12.904  17.862  0.00  0.00    +0.000 OA
ATOM     15  HXT UNL     1       0.275  13.512  17.855  0.00  0.00    +0.000 HD
ENDBRANCH  12  14
ENDBRANCH   8  12
ENDBRANCH   2   5
BRANCH   3  16
ATOM     16  C   UNL     1       2.192   5.622  20.226  0.00  0.00    +0.000 A 
ATOM     17  C   UNL     1       1.053   4.838  20.471  0.00  0.00    +0.000 A 
ATOM     18  C   UNL     1       1.110   3.446  20.525  0.00  0.00    +0.000 A 
ATOM     19  C   UNL     1       2.302   2.796  20.263  0.00  0.00    +0.000 A 
ATOM     20  C   UNL     1       3.428   3.541  19.927  0.00  0.00    +0.000 A 
ATOM     21  C   UNL     1       3.413   4.955  19.961  0.00  0.00    +0.000 A 
BRANCH  21  22
ATOM     22  O   UNL     1       4.594   5.675  19.764  0.00  0.00    +0.000 OA
BRANCH  22  23
ATOM     23  C   UNL     1       5.249   5.507  18.544  0.00  0.00    +0.000 A 
ATOM     24  C   UNL     1       6.473   4.834  18.510  0.00  0.00    +0.000 A 
ATOM     25  C   UNL     1       7.180   4.750  17.302  0.00  0.00    +0.000 A 
ATOM     26  F   UNL     1       8.358   4.117  17.268  0.00  0.00    +0.000 F 
ATOM     27  C   UNL     1       6.696   5.337  16.134  0.00  0.00    +0.000 A 
ATOM     28  C   UNL     1       5.465   5.965  16.176  0.00  0.00    +0.000 A 
ATOM     29  F   UNL     1       4.994   6.568  15.077  0.00  0.00    +0.000 F 
ATOM     30  C   UNL     1       4.720   6.014  17.347  0.00  0.00    +0.000 A 
ENDBRANCH  22  23
ENDBRANCH  21  22
ENDBRANCH   3  16
TORSDOF 6
ENDMDL
MODEL 5
REMARK VINA RESULT:      -8.2      3.536      7.730
REMARK  Name = 
REMARK  6 active torsions:
REMARK  status: ('A' for Active; 'I' for Inactive)
REMARK    1  A    between atoms: C_2  and  C_19
REMARK    2  A    between atoms: N_3  and  C_4
REMARK    3  A    between atoms: C_9  and  O_10
REMARK    4  A    between atoms: O_10  and  C_11
REMARK    5  A    between atoms: CA_22  and  C_23
REMARK    6  A    between atoms: C_23  and  OXT_25
REMARK                            x       y       z     vdW  Elec       q    Type
REMARK                         _______ _______ _______ _____ _____    ______ ____
ROOT
ATOM      1  O   UNL     1       1.741   7.601  18.708  0.00  0.00    +0.000 OA
ATOM      2  C   UNL     1       1.832   7.636  19.929  0.00  0.00    +0.000 C 
ATOM      3  N   UNL     1       1.976   6.532  20.767  0.00  0.00    +0.000 N 
ATOM      4  H   UNL     1       1.932   6.696  21.775  0.00  0.00    +0.000 HD
ENDROOT
BRANCH   2   5
ATOM      5  C   UNL     1       1.827   9.011  20.604  0.00  0.00    +0.000 C 
ATOM      6  C   UNL     1       1.286   8.940  22.035  0.00  0.00    +0.000 C 
ATOM      7  C   UNL     1      -0.235   8.871  22.059  0.00  0.00    +0.000 C 
ATOM      8  CA  UNL     1      -0.879   9.968  21.204  0.00  0.00    +0.000 C 
ATOM      9  N   UNL     1      -0.330   9.985  19.822  0.00  0.00    +0.000 NA
ATOM     10  C   UNL     1       1.139  10.097  19.791  0.00  0.00    +0.000 C 
ATOM     11  H   UNL     1      -0.703  10.819  19.355  0.00  0.00    +0.000 HD
BRANCH   8  12
ATOM     12  C   UNL     1      -0.812  11.363  21.868  0.00  0.00    +0.000 C 
ATOM     13  O   UNL     1      -0.962  12.424  21.277  0.00  0.00    +0.000 OA
BRANCH  12  14
ATOM     14  OXT UNL     1      -0.631  11.323  23.209  0.00  0.00    +0.000 OA
ATOM     15  HXT UNL     1      -1.332  10.864  23.707  0.00  0.00    +0.000 HD
ENDBRANCH  12  14
ENDBRANCH   8  12
ENDBRANCH   2   5
BRANCH   3  16
ATOM     16  C   UNL     1       2.050   5.175  20.351  0.00  0.00    +0.000 A 
ATOM     17  C   UNL     1       0.921   4.346  20.451  0.00  0.00    +0.000 A 
ATOM     18  C   UNL     1       0.965   2.991  20.123  0.00  0.00    +0.000 A 
ATOM     19  C   UNL     1       2.130   2.445  19.615  0.00  0.00    +0.000 A 
ATOM     20  C   UNL     1       3.239   3.261  19.419  0.00  0.00    +0.000 A 
ATOM     21  C   UNL     1       3.243   4.612  19.834  0.00  0.00    +0.000 A 
BRANCH  21  22
ATOM     22  O   UNL     1       4.417   5.367  19.760  0.00  0.00    +0.000 OA
BRANCH  22  23
ATOM     23  C   UNL     1       5.092   5.380  18.540  0.00  0.00    +0.000 A 
ATOM     24  C   UNL     1       6.319   4.723  18.429  0.00  0.00    +0.000 A 
ATOM     25  C   UNL     1       7.047   4.818  17.233  0.00  0.00    +0.000 A 
ATOM     26  F   UNL     1       8.229   4.199  17.127  0.00  0.00    +0.000 F 
ATOM     27  C   UNL     1       6.579   5.567  16.155  0.00  0.00    +0.000 A 
ATOM     28  C   UNL     1       5.344   6.180  16.268  0.00  0.00    +0.000 A 
ATOM     29  F   UNL     1       4.889   6.936  15.261  0.00  0.00    +0.000 F 
ATOM     30  C   UNL     1       4.580   6.055  17.421  0.00  0.00    +0.000 A 
ENDBRANCH  22  23
ENDBRANCH  21  22
ENDBRANCH   3  16
TORSDOF 6
ENDMDL
MODEL 6
REMARK VINA RESULT:      -8.2      3.676      7.262
REMARK  Name = 
REMARK  6 active torsions:
REMARK  status: ('A' for Active; 'I' for Inactive)
REMARK    1  A    between atoms: C_2  and  C_19
REMARK    2  A    between atoms: N_3  and  C_4
REMARK    3  A    between atoms: C_9  and  O_10
REMARK    4  A    between atoms: O_10  and  C_11
REMARK    5  A    between atoms: CA_22  and  C_23
REMARK    6  A    between atoms: C_23  and  OXT_25
REMARK                            x       y       z     vdW  Elec       q    Type
REMARK                         _______ _______ _______ _____ _____    ______ ____
ROOT
ATOM      1  O   UNL     1       2.007   7.403  17.929  0.00  0.00    +0.000 OA
ATOM      2  C   UNL     1       1.980   7.764  19.099  0.00  0.00    +0.000 C 
ATOM      3  N   UNL     1       2.051   6.926  20.212  0.00  0.00    +0.000 N 
ATOM      4  H   UNL     1       1.909   7.350  21.130  0.00  0.00    +0.000 HD
ENDROOT
BRANCH   2   5
ATOM      5  C   UNL     1       1.898   9.267  19.379  0.00  0.00    +0.000 C 
ATOM      6  C   UNL     1       0.879   9.588  20.477  0.00  0.00    +0.000 C 
ATOM      7  C   UNL     1      -0.548   9.561  19.946  0.00  0.00    +0.000 C 
ATOM      8  CA  UNL     1      -0.711  10.410  18.680  0.00  0.00    +0.000 C 
ATOM      9  N   UNL     1       0.291  10.050  17.641  0.00  0.00    +0.000 NA
ATOM     10  C   UNL     1       1.678  10.117  18.136  0.00  0.00    +0.000 C 
ATOM     11  H   UNL     1       0.210  10.740  16.887  0.00  0.00    +0.000 HD
BRANCH   8  12
ATOM     12  C   UNL     1      -0.719  11.928  18.972  0.00  0.00    +0.000 C 
ATOM     13  O   UNL     1      -0.896  12.424  20.077  0.00  0.00    +0.000 OA
BRANCH  12  14
ATOM     14  OXT UNL     1      -0.442  12.695  17.892  0.00  0.00    +0.000 OA
ATOM     15  HXT UNL     1      -0.908  12.442  17.074  0.00  0.00    +0.000 HD
ENDBRANCH  12  14
ENDBRANCH   8  12
ENDBRANCH   2   5
BRANCH   3  16
ATOM     16  C   UNL     1       2.176   5.511  20.182  0.00  0.00    +0.000 A 
ATOM     17  C   UNL     1       1.048   4.701  20.388  0.00  0.00    +0.000 A 
ATOM     18  C   UNL     1       1.134   3.310  20.440  0.00  0.00    +0.000 A 
ATOM     19  C   UNL     1       2.348   2.688  20.211  0.00  0.00    +0.000 A 
ATOM     20  C   UNL     1       3.466   3.459  19.913  0.00  0.00    +0.000 A 
ATOM     21  C   UNL     1       3.419   4.872  19.951  0.00  0.00    +0.000 A 
BRANCH  21  22
ATOM     22  O   UNL     1       4.589   5.619  19.794  0.00  0.00    +0.000 OA
BRANCH  22  23
ATOM     23  C   UNL     1       5.372   5.350  18.671  0.00  0.00    +0.000 A 
ATOM     24  C   UNL     1       4.802   5.446  17.400  0.00  0.00    +0.000 A 
ATOM     25  C   UNL     1       5.558   5.081  16.275  0.00  0.00    +0.000 A 
ATOM     26  F   UNL     1       5.011   5.160  15.057  0.00  0.00    +0.000 F 
ATOM     27  C   UNL     1       6.864   4.610  16.399  0.00  0.00    +0.000 A 
ATOM     28  C   UNL     1       7.426   4.557  17.662  0.00  0.00    +0.000 A 
ATOM     29  F   UNL     1       8.665   4.073  17.812  0.00  0.00    +0.000 F 
ATOM     30  C   UNL     1       6.717   4.965  18.784  0.00  0.00    +0.000 A 
ENDBRANCH  22  23
ENDBRANCH  21  22
ENDBRANCH   3  16
TORSDOF 6
ENDMDL
MODEL 7
REMARK VINA RESULT:      -8.1      3.542      7.736
REMARK  Name = 
REMARK  6 active torsions:
REMARK  status: ('A' for Active; 'I' for Inactive)
REMARK    1  A    between atoms: C_2  and  C_19
REMARK    2  A    between atoms: N_3  and  C_4
REMARK    3  A    between atoms: C_9  and  O_10
REMARK    4  A    between atoms: O_10  and  C_11
REMARK    5  A    between atoms: CA_22  and  C_23
REMARK    6  A    between atoms: C_23  and  OXT_25
REMARK                            x       y       z     vdW  Elec       q    Type
REMARK                         _______ _______ _______ _____ _____    ______ ____
ROOT
ATOM      1  O   UNL     1       1.834   7.725  18.800  0.00  0.00    +0.000 OA
ATOM      2  C   UNL     1       1.849   7.690  20.024  0.00  0.00    +0.000 C 
ATOM      3  N   UNL     1       1.952   6.539  20.805  0.00  0.00    +0.000 N 
ATOM      4  H   UNL     1       1.844   6.644  21.815  0.00  0.00    +0.000 HD
ENDROOT
BRANCH   2   5
ATOM      5  C   UNL     1       1.788   9.022  20.775  0.00  0.00    +0.000 C 
ATOM      6  C   UNL     1       1.113   8.875  22.142  0.00  0.00    +0.000 C 
ATOM      7  C   UNL     1      -0.403   8.822  22.018  0.00  0.00    +0.000 C 
ATOM      8  CA  UNL     1      -0.956   9.975  21.173  0.00  0.00    +0.000 C 
ATOM      9  N   UNL     1      -0.279  10.066  19.852  0.00  0.00    +0.000 NA
ATOM     10  C   UNL     1       1.188  10.162  19.967  0.00  0.00    +0.000 C 
ATOM     11  H   UNL     1      -0.600  10.930  19.402  0.00  0.00    +0.000 HD
BRANCH   8  12
ATOM     12  C   UNL     1      -0.943  11.329  21.921  0.00  0.00    +0.000 C 
ATOM     13  O   UNL     1      -1.096  12.420  21.390  0.00  0.00    +0.000 OA
BRANCH  12  14
ATOM     14  OXT UNL     1      -0.810  11.211  23.263  0.00  0.00    +0.000 OA
ATOM     15  HXT UNL     1      -0.422  11.985  23.710  0.00  0.00    +0.000 HD
ENDBRANCH  12  14
ENDBRANCH   8  12
ENDBRANCH   2   5
BRANCH   3  16
ATOM     16  C   UNL     1       2.065   5.209  20.316  0.00  0.00    +0.000 A 
ATOM     17  C   UNL     1       0.952   4.354  20.341  0.00  0.00    +0.000 A 
ATOM     18  C   UNL     1       1.033   3.021  19.940  0.00  0.00    +0.000 A 
ATOM     19  C   UNL     1       2.221   2.526  19.433  0.00  0.00    +0.000 A 
ATOM     20  C   UNL     1       3.317   3.374  19.311  0.00  0.00    +0.000 A 
ATOM     21  C   UNL     1       3.282   4.700  19.800  0.00  0.00    +0.000 A 
BRANCH  21  22
ATOM     22  O   UNL     1       4.441   5.480  19.799  0.00  0.00    +0.000 OA
BRANCH  22  23
ATOM     23  C   UNL     1       5.169   5.541  18.610  0.00  0.00    +0.000 A 
ATOM     24  C   UNL     1       4.642   6.239  17.520  0.00  0.00    +0.000 A 
ATOM     25  C   UNL     1       5.324   6.219  16.295  0.00  0.00    +0.000 A 
ATOM     26  F   UNL     1       4.817   6.876  15.245  0.00  0.00    +0.000 F 
ATOM     27  C   UNL     1       6.511   5.506  16.134  0.00  0.00    +0.000 A 
ATOM     28  C   UNL     1       7.038   4.853  17.234  0.00  0.00    +0.000 A 
ATOM     29  F   UNL     1       8.157   4.131  17.097  0.00  0.00    +0.000 F 
ATOM     30  C   UNL     1       6.410   4.903  18.471  0.00  0.00    +0.000 A 
ENDBRANCH  22  23
ENDBRANCH  21  22
ENDBRANCH   3  16
TORSDOF 6
ENDMDL
MODEL 8
REMARK VINA RESULT:      -8.1      1.427      2.245
REMARK  Name = 
REMARK  6 active torsions:
REMARK  status: ('A' for Active; 'I' for Inactive)
REMARK    1  A    between atoms: C_2  and  C_19
REMARK    2  A    between atoms: N_3  and  C_4
REMARK    3  A    between atoms: C_9  and  O_10
REMARK    4  A    between atoms: O_10  and  C_11
REMARK    5  A    between atoms: CA_22  and  C_23
REMARK    6  A    between atoms: C_23  and  OXT_25
REMARK                            x       y       z     vdW  Elec       q    Type
REMARK                         _______ _______ _______ _____ _____    ______ ____
ROOT
ATOM      1  O   UNL     1       5.613   5.917  19.729  0.00  0.00    +0.000 OA
ATOM      2  C   UNL     1       5.651   5.114  18.805  0.00  0.00    +0.000 C 
ATOM      3  N   UNL     1       4.792   4.029  18.632  0.00  0.00    +0.000 N 
ATOM      4  H   UNL     1       5.002   3.377  17.875  0.00  0.00    +0.000 HD
ENDROOT
BRANCH   2   5
ATOM      5  C   UNL     1       6.706   5.330  17.717  0.00  0.00    +0.000 C 
ATOM      6  C   UNL     1       6.291   6.426  16.730  0.00  0.00    +0.000 C 
ATOM      7  C   UNL     1       5.279   5.914  15.714  0.00  0.00    +0.000 C 
ATOM      8  CA  UNL     1       5.739   4.616  15.042  0.00  0.00    +0.000 C 
ATOM      9  N   UNL     1       6.116   3.581  16.042  0.00  0.00    +0.000 NA
ATOM     10  C   UNL     1       7.129   4.056  17.002  0.00  0.00    +0.000 C 
ATOM     11  H   UNL     1       6.537   2.799  15.528  0.00  0.00    +0.000 HD
BRANCH   8  12
ATOM     12  C   UNL     1       6.856   4.843  13.997  0.00  0.00    +0.000 C 
ATOM     13  O   UNL     1       7.806   5.599  14.147  0.00  0.00    +0.000 OA
BRANCH  12  14
ATOM     14  OXT UNL     1       6.738   4.069  12.893  0.00  0.00    +0.000 OA
ATOM     15  HXT UNL     1       5.840   3.736  12.715  0.00  0.00    +0.000 HD
ENDBRANCH  12  14
ENDBRANCH   8  12
ENDBRANCH   2   5
BRANCH   3  16
ATOM     16  C   UNL     1       3.719   3.672  19.493  0.00  0.00    +0.000 A 
ATOM     17  C   UNL     1       3.900   2.678  20.468  0.00  0.00    +0.000 A 
ATOM     18  C   UNL     1       2.858   2.244  21.286  0.00  0.00    +0.000 A 
ATOM     19  C   UNL     1       1.617   2.848  21.198  0.00  0.00    +0.000 A 
ATOM     20  C   UNL     1       1.430   3.899  20.305  0.00  0.00    +0.000 A 
ATOM     21  C   UNL     1       2.446   4.288  19.401  0.00  0.00    +0.000 A 
BRANCH  21  22
ATOM     22  O   UNL     1       2.183   5.245  18.418  0.00  0.00    +0.000 OA
BRANCH  22  23
ATOM     23  C   UNL     1       2.058   6.570  18.833  0.00  0.00    +0.000 A 
ATOM     24  C   UNL     1       1.827   6.846  20.182  0.00  0.00    +0.000 A 
ATOM     25  C   UNL     1       1.603   8.171  20.587  0.00  0.00    +0.000 A 
ATOM     26  F   UNL     1       1.369   8.438  21.877  0.00  0.00    +0.000 F 
ATOM     27  C   UNL     1       1.591   9.219  19.669  0.00  0.00    +0.000 A 
ATOM     28  C   UNL     1       1.859   8.933  18.342  0.00  0.00    +0.000 A 
ATOM     29  F   UNL     1       1.818   9.917  17.434  0.00  0.00    +0.000 F 
ATOM     30  C   UNL     1       2.139   7.638  17.926  0.00  0.00    +0.000 A 
ENDBRANCH  22  23
ENDBRANCH  21  22
ENDBRANCH   3  16
TORSDOF 6
ENDMDL
MODEL 9
REMARK VINA RESULT:      -7.8      1.068      1.270
REMARK  Name = 
REMARK  6 active torsions:
REMARK  status: ('A' for Active; 'I' for Inactive)
REMARK    1  A    between atoms: C_2  and  C_19
REMARK    2  A    between atoms: N_3  and  C_4
REMARK    3  A    between atoms: C_9  and  O_10
REMARK    4  A    between atoms: O_10  and  C_11
REMARK    5  A    between atoms: CA_22  and  C_23
REMARK    6  A    between atoms: C_23  and  OXT_25
REMARK                            x       y       z     vdW  Elec       q    Type
REMARK                         _______ _______ _______ _____ _____    ______ ____
ROOT
ATOM      1  O   UNL     1       6.035   5.531  19.813  0.00  0.00    +0.000 OA
ATOM      2  C   UNL     1       5.733   5.213  18.670  0.00  0.00    +0.000 C 
ATOM      3  N   UNL     1       4.505   4.687  18.268  0.00  0.00    +0.000 N 
ATOM      4  H   UNL     1       4.424   4.366  17.302  0.00  0.00    +0.000 HD
ENDROOT
BRANCH   2   5
ATOM      5  C   UNL     1       6.771   5.443  17.569  0.00  0.00    +0.000 C 
ATOM      6  C   UNL     1       6.296   6.478  16.545  0.00  0.00    +0.000 C 
ATOM      7  C   UNL     1       5.310   5.877  15.553  0.00  0.00    +0.000 C 
ATOM      8  CA  UNL     1       5.834   4.580  14.928  0.00  0.00    +0.000 C 
ATOM      9  N   UNL     1       6.269   3.604  15.963  0.00  0.00    +0.000 NA
ATOM     10  C   UNL     1       7.258   4.166  16.900  0.00  0.00    +0.000 C 
ATOM     11  H   UNL     1       6.728   2.826  15.477  0.00  0.00    +0.000 HD
BRANCH   8  12
ATOM     12  C   UNL     1       6.935   4.825  13.870  0.00  0.00    +0.000 C 
ATOM     13  O   UNL     1       7.861   5.614  13.998  0.00  0.00    +0.000 OA
BRANCH  12  14
ATOM     14  OXT UNL     1       6.832   4.030  12.779  0.00  0.00    +0.000 OA
ATOM     15  HXT UNL     1       6.512   3.127  12.954  0.00  0.00    +0.000 HD
ENDBRANCH  12  14
ENDBRANCH   8  12
ENDBRANCH   2   5
BRANCH   3  16
ATOM     16  C   UNL     1       3.390   4.437  19.112  0.00  0.00    +0.000 A 
ATOM     17  C   UNL     1       3.004   3.117  19.395  0.00  0.00    +0.000 A 
ATOM     18  C   UNL     1       1.875   2.822  20.158  0.00  0.00    +0.000 A 
ATOM     19  C   UNL     1       1.140   3.849  20.723  0.00  0.00    +0.000 A 
ATOM     20  C   UNL     1       1.550   5.166  20.538  0.00  0.00    +0.000 A 
ATOM     21  C   UNL     1       2.634   5.488  19.689  0.00  0.00    +0.000 A 
BRANCH  21  22
ATOM     22  O   UNL     1       2.931   6.823  19.404  0.00  0.00    +0.000 OA
BRANCH  22  23
ATOM     23  C   UNL     1       1.991   7.781  19.784  0.00  0.00    +0.000 A 
ATOM     24  C   UNL     1       1.543   8.711  18.843  0.00  0.00    +0.000 A 
ATOM     25  C   UNL     1       0.674   9.736  19.246  0.00  0.00    +0.000 A 
ATOM     26  F   UNL     1       0.252  10.636  18.350  0.00  0.00    +0.000 F 
ATOM     27  C   UNL     1       0.258   9.857  20.571  0.00  0.00    +0.000 A 
ATOM     28  C   UNL     1       0.680   8.906  21.481  0.00  0.00    +0.000 A 
ATOM     29  F   UNL     1       0.324   9.020  22.767  0.00  0.00    +0.000 F 
ATOM     30  C   UNL     1       1.496   7.850  21.095  0.00  0.00    +0.000 A 
ENDBRANCH  22  23
ENDBRANCH  21  22
ENDBRANCH   3  16
TORSDOF 6
ENDMDL
