MODEL 1
REMARK VINA RESULT:      -8.9      0.000      0.000
REMARK  Name = 
REMARK  7 active torsions:
REMARK  status: ('A' for Active; 'I' for Inactive)
REMARK    1  A    between atoms: C_1  and  C_2
REMARK    2  A    between atoms: C_2  and  S_3
REMARK    3  A    between atoms: C_2  and  C_10
REMARK    4  A    between atoms: S_3  and  C_4
REMARK    5  A    between atoms: N_8  and  C_9
REMARK    6  A    between atoms: C_14  and  N_15
REMARK    7  A    between atoms: C_16  and  C_18
REMARK                            x       y       z     vdW  Elec       q    Type
REMARK                         _______ _______ _______ _____ _____    ______ ____
ROOT
ATOM      1  C   UNL     1       4.883   5.352  17.424  0.00  0.00    +0.000 A 
ATOM      2  C   UNL     1       5.124   4.672  16.214  0.00  0.00    +0.000 A 
ATOM      3  C   UNL     1       6.164   5.052  15.379  0.00  0.00    +0.000 A 
ATOM      4  C   UNL     1       6.957   6.146  15.717  0.00  0.00    +0.000 A 
ATOM      5  C   UNL     1       6.729   6.893  16.886  0.00  0.00    +0.000 A 
ATOM      6  C   UNL     1       5.717   6.453  17.762  0.00  0.00    +0.000 A 
ENDROOT
BRANCH   5   7
ATOM      7  N   UNL     1       7.520   8.062  17.165  0.00  0.00    +0.000 N 
ATOM      8  C   UNL     1       8.305   8.151  18.304  0.00  0.00    +0.000 C 
ATOM      9  O   UNL     1       8.575   7.179  19.017  0.00  0.00    +0.000 OA
ATOM     10  H   UNL     1       7.633   8.753  16.435  0.00  0.00    +0.000 HD
BRANCH   8  11
ATOM     11  C   UNL     1       8.798   9.482  18.789  0.00  0.00    +0.000 C 
ATOM     12  C   UNL     1       9.234  10.029  19.945  0.00  0.00    +0.000 C 
ATOM     13  C   UNL     1       9.967  11.269  19.601  0.00  0.00    +0.000 A 
ATOM     14  C   UNL     1      10.716  12.155  20.359  0.00  0.00    +0.000 A 
ATOM     15  C   UNL     1      11.630  12.995  19.693  0.00  0.00    +0.000 A 
ATOM     16  C   UNL     1      11.795  12.927  18.300  0.00  0.00    +0.000 A 
ATOM     17  C   UNL     1      10.953  12.128  17.539  0.00  0.00    +0.000 A 
ATOM     18  C   UNL     1      10.019  11.358  18.208  0.00  0.00    +0.000 A 
ATOM     19  C   UNL     1       9.000  10.445  17.631  0.00  0.00    +0.000 C 
ENDBRANCH   8  11
ENDBRANCH   5   7
BRANCH   1  21
ATOM     20  C   UNL     1       2.314   5.399  17.908  0.00  0.00    +0.000 C 
ATOM     21  C   UNL     1       3.700   4.858  18.252  0.00  0.00    +0.000 C 
BRANCH  21  22
ATOM     22  S   UNL     1       3.714   3.041  18.523  0.00  0.00    +0.000 S 
BRANCH  22  23
ATOM     23  C   UNL     1       2.916   2.829  20.025  0.00  0.00    +0.000 A 
ATOM     24  N   UNL     1       3.472   2.764  21.215  0.00  0.00    +0.000 NA
ATOM     25  N   UNL     1       2.463   2.606  22.149  0.00  0.00    +0.000 NA
ATOM     26  C   UNL     1       1.330   2.573  21.491  0.00  0.00    +0.000 A 
ATOM     27  N   UNL     1       1.564   2.685  20.156  0.00  0.00    +0.000 N 
ATOM     28  C   UNL     1       0.570   2.633  19.120  0.00  0.00    +0.000 C 
ENDBRANCH  22  23
ENDBRANCH  21  22
ENDBRANCH   1  21
TORSDOF 5
ENDMDL
MODEL 2
REMARK VINA RESULT:      -8.9      2.631      3.340
REMARK  Name = 
REMARK  7 active torsions:
REMARK  status: ('A' for Active; 'I' for Inactive)
REMARK    1  A    between atoms: C_1  and  C_2
REMARK    2  A    between atoms: C_2  and  S_3
REMARK    3  A    between atoms: C_2  and  C_10
REMARK    4  A    between atoms: S_3  and  C_4
REMARK    5  A    between atoms: N_8  and  C_9
REMARK    6  A    between atoms: C_14  and  N_15
REMARK    7  A    between atoms: C_16  and  C_18
REMARK                            x       y       z     vdW  Elec       q    Type
REMARK                         _______ _______ _______ _____ _____    ______ ____
ROOT
ATOM      1  C   UNL     1       4.291   5.827  17.368  0.00  0.00    +0.000 A 
ATOM      2  C   UNL     1       4.776   4.796  16.539  0.00  0.00    +0.000 A 
ATOM      3  C   UNL     1       6.065   4.840  16.028  0.00  0.00    +0.000 A 
ATOM      4  C   UNL     1       6.879   5.936  16.302  0.00  0.00    +0.000 A 
ATOM      5  C   UNL     1       6.429   7.018  17.078  0.00  0.00    +0.000 A 
ATOM      6  C   UNL     1       5.145   6.928  17.652  0.00  0.00    +0.000 A 
ENDROOT
BRANCH   5   7
ATOM      7  N   UNL     1       7.271   8.168  17.277  0.00  0.00    +0.000 N 
ATOM      8  C   UNL     1       8.199   8.217  18.306  0.00  0.00    +0.000 C 
ATOM      9  O   UNL     1       8.543   7.224  18.955  0.00  0.00    +0.000 OA
ATOM     10  H   UNL     1       7.300   8.875  16.554  0.00  0.00    +0.000 HD
BRANCH   8  11
ATOM     11  C   UNL     1       8.775   9.528  18.751  0.00  0.00    +0.000 C 
ATOM     12  C   UNL     1       9.248  10.080  19.890  0.00  0.00    +0.000 C 
ATOM     13  C   UNL     1      10.056  11.261  19.510  0.00  0.00    +0.000 A 
ATOM     14  C   UNL     1      10.861  12.121  20.240  0.00  0.00    +0.000 A 
ATOM     15  C   UNL     1      11.824  12.882  19.550  0.00  0.00    +0.000 A 
ATOM     16  C   UNL     1      11.981  12.764  18.159  0.00  0.00    +0.000 A 
ATOM     17  C   UNL     1      11.088  11.997  17.423  0.00  0.00    +0.000 A 
ATOM     18  C   UNL     1      10.110  11.307  18.115  0.00  0.00    +0.000 A 
ATOM     19  C   UNL     1       9.035  10.442  17.565  0.00  0.00    +0.000 C 
ENDBRANCH   8  11
ENDBRANCH   5   7
BRANCH   1  21
ATOM     20  C   UNL     1       2.183   4.316  17.704  0.00  0.00    +0.000 C 
ATOM     21  C   UNL     1       2.852   5.681  17.855  0.00  0.00    +0.000 C 
BRANCH  21  22
ATOM     22  S   UNL     1       2.564   6.443  19.500  0.00  0.00    +0.000 S 
BRANCH  22  23
ATOM     23  C   UNL     1       1.932   7.997  19.145  0.00  0.00    +0.000 A 
ATOM     24  N   UNL     1       1.967   8.620  17.988  0.00  0.00    +0.000 NA
ATOM     25  N   UNL     1       1.328   9.838  18.139  0.00  0.00    +0.000 NA
ATOM     26  C   UNL     1       0.935   9.915  19.388  0.00  0.00    +0.000 A 
ATOM     27  N   UNL     1       1.311   8.795  20.063  0.00  0.00    +0.000 N 
ATOM     28  C   UNL     1       1.105   8.548  21.463  0.00  0.00    +0.000 C 
ENDBRANCH  22  23
ENDBRANCH  21  22
ENDBRANCH   1  21
TORSDOF 5
ENDMDL
MODEL 3
REMARK VINA RESULT:      -8.5      4.853      8.330
REMARK  Name = 
REMARK  7 active torsions:
REMARK  status: ('A' for Active; 'I' for Inactive)
REMARK    1  A    between atoms: C_1  and  C_2
REMARK    2  A    between atoms: C_2  and  S_3
REMARK    3  A    between atoms: C_2  and  C_10
REMARK    4  A    between atoms: S_3  and  C_4
REMARK    5  A    between atoms: N_8  and  C_9
REMARK    6  A    between atoms: C_14  and  N_15
REMARK    7  A    between atoms: C_16  and  C_18
REMARK                            x       y       z     vdW  Elec       q    Type
REMARK                         _______ _______ _______ _____ _____    ______ ____
ROOT
ATOM      1  C   UNL     1       4.710   5.332  17.150  0.00  0.00    +0.000 A 
ATOM      2  C   UNL     1       4.083   4.090  16.928  0.00  0.00    +0.000 A 
ATOM      3  C   UNL     1       2.804   3.843  17.405  0.00  0.00    +0.000 A 
ATOM      4  C   UNL     1       2.145   4.818  18.150  0.00  0.00    +0.000 A 
ATOM      5  C   UNL     1       2.744   6.054  18.448  0.00  0.00    +0.000 A 
ATOM      6  C   UNL     1       4.013   6.321  17.895  0.00  0.00    +0.000 A 
ENDROOT
BRANCH   5   7
ATOM      7  N   UNL     1       2.063   7.007  19.283  0.00  0.00    +0.000 N 
ATOM      8  C   UNL     1       1.693   8.255  18.806  0.00  0.00    +0.000 C 
ATOM      9  O   UNL     1       1.691   8.548  17.606  0.00  0.00    +0.000 OA
ATOM     10  H   UNL     1       1.703   6.695  20.176  0.00  0.00    +0.000 HD
BRANCH   8  11
ATOM     11  C   UNL     1       1.357   9.366  19.756  0.00  0.00    +0.000 C 
ATOM     12  C   UNL     1       1.002  10.669  19.691  0.00  0.00    +0.000 C 
ATOM     13  C   UNL     1       0.405  11.033  20.996  0.00  0.00    +0.000 A 
ATOM     14  C   UNL     1      -0.230  12.178  21.449  0.00  0.00    +0.000 A 
ATOM     15  C   UNL     1      -1.055  12.078  22.586  0.00  0.00    +0.000 A 
ATOM     16  C   UNL     1      -1.249  10.848  23.236  0.00  0.00    +0.000 A 
ATOM     17  C   UNL     1      -0.511   9.737  22.852  0.00  0.00    +0.000 A 
ATOM     18  C   UNL     1       0.342   9.873  21.772  0.00  0.00    +0.000 A 
ATOM     19  C   UNL     1       1.244   8.851  21.182  0.00  0.00    +0.000 C 
ENDBRANCH   8  11
ENDBRANCH   5   7
BRANCH   1  21
ATOM     20  C   UNL     1       7.205   6.013  17.534  0.00  0.00    +0.000 C 
ATOM     21  C   UNL     1       6.124   5.482  16.596  0.00  0.00    +0.000 C 
BRANCH  21  22
ATOM     22  S   UNL     1       6.675   4.031  15.614  0.00  0.00    +0.000 S 
BRANCH  22  23
ATOM     23  C   UNL     1       7.257   4.704  14.149  0.00  0.00    +0.000 A 
ATOM     24  N   UNL     1       8.153   5.656  14.016  0.00  0.00    +0.000 NA
ATOM     25  N   UNL     1       8.341   5.880  12.663  0.00  0.00    +0.000 NA
ATOM     26  C   UNL     1       7.544   5.059  12.023  0.00  0.00    +0.000 A 
ATOM     27  N   UNL     1       6.828   4.318  12.910  0.00  0.00    +0.000 N 
ATOM     28  C   UNL     1       5.815   3.355  12.578  0.00  0.00    +0.000 C 
ENDBRANCH  22  23
ENDBRANCH  21  22
ENDBRANCH   1  21
TORSDOF 5
ENDMDL
MODEL 4
REMARK VINA RESULT:      -8.4      1.771      2.720
REMARK  Name = 
REMARK  7 active torsions:
REMARK  status: ('A' for Active; 'I' for Inactive)
REMARK    1  A    between atoms: C_1  and  C_2
REMARK    2  A    between atoms: C_2  and  S_3
REMARK    3  A    between atoms: C_2  and  C_10
REMARK    4  A    between atoms: S_3  and  C_4
REMARK    5  A    between atoms: N_8  and  C_9
REMARK    6  A    between atoms: C_14  and  N_15
REMARK    7  A    between atoms: C_16  and  C_18
REMARK                            x       y       z     vdW  Elec       q    Type
REMARK                         _______ _______ _______ _____ _____    ______ ____
ROOT
ATOM      1  C   UNL     1       5.777   6.099  17.636  0.00  0.00    +0.000 A 
ATOM      2  C   UNL     1       6.484   5.274  18.532  0.00  0.00    +0.000 A 
ATOM      3  C   UNL     1       7.686   5.689  19.086  0.00  0.00    +0.000 A 
ATOM      4  C   UNL     1       8.226   6.920  18.720  0.00  0.00    +0.000 A 
ATOM      5  C   UNL     1       7.591   7.760  17.789  0.00  0.00    +0.000 A 
ATOM      6  C   UNL     1       6.335   7.360  17.290  0.00  0.00    +0.000 A 
ENDROOT
BRANCH   5   7
ATOM      7  N   UNL     1       8.215   8.989  17.377  0.00  0.00    +0.000 N 
ATOM      8  C   UNL     1       8.810   9.842  18.295  0.00  0.00    +0.000 C 
ATOM      9  O   UNL     1       9.065   9.513  19.458  0.00  0.00    +0.000 OA
ATOM     10  H   UNL     1       8.367   9.146  16.390  0.00  0.00    +0.000 HD
BRANCH   8  11
ATOM     11  C   UNL     1       9.095  11.270  17.936  0.00  0.00    +0.000 C 
ATOM     12  C   UNL     1       8.415  12.433  17.834  0.00  0.00    +0.000 C 
ATOM     13  C   UNL     1       9.408  13.532  17.854  0.00  0.00    +0.000 A 
ATOM     14  C   UNL     1       9.279  14.911  17.899  0.00  0.00    +0.000 A 
ATOM     15  C   UNL     1      10.384  15.671  18.329  0.00  0.00    +0.000 A 
ATOM     16  C   UNL     1      11.582  15.051  18.721  0.00  0.00    +0.000 A 
ATOM     17  C   UNL     1      11.743  13.683  18.552  0.00  0.00    +0.000 A 
ATOM     18  C   UNL     1      10.666  12.963  18.067  0.00  0.00    +0.000 A 
ATOM     19  C   UNL     1      10.589  11.507  17.783  0.00  0.00    +0.000 C 
ENDBRANCH   8  11
ENDBRANCH   5   7
BRANCH   1  21
ATOM     20  C   UNL     1       4.499   4.101  16.536  0.00  0.00    +0.000 C 
ATOM     21  C   UNL     1       4.477   5.529  17.076  0.00  0.00    +0.000 C 
BRANCH  21  22
ATOM     22  S   UNL     1       3.019   5.872  18.139  0.00  0.00    +0.000 S 
BRANCH  22  23
ATOM     23  C   UNL     1       2.245   4.352  18.305  0.00  0.00    +0.000 A 
ATOM     24  N   UNL     1       1.222   3.905  17.610  0.00  0.00    +0.000 NA
ATOM     25  N   UNL     1       0.930   2.627  18.056  0.00  0.00    +0.000 NA
ATOM     26  C   UNL     1       1.782   2.348  19.013  0.00  0.00    +0.000 A 
ATOM     27  N   UNL     1       2.611   3.407  19.220  0.00  0.00    +0.000 N 
ATOM     28  C   UNL     1       3.634   3.489  20.225  0.00  0.00    +0.000 C 
ENDBRANCH  22  23
ENDBRANCH  21  22
ENDBRANCH   1  21
TORSDOF 5
ENDMDL
MODEL 5
REMARK VINA RESULT:      -8.3      4.670      7.931
REMARK  Name = 
REMARK  7 active torsions:
REMARK  status: ('A' for Active; 'I' for Inactive)
REMARK    1  A    between atoms: C_1  and  C_2
REMARK    2  A    between atoms: C_2  and  S_3
REMARK    3  A    between atoms: C_2  and  C_10
REMARK    4  A    between atoms: S_3  and  C_4
REMARK    5  A    between atoms: N_8  and  C_9
REMARK    6  A    between atoms: C_14  and  N_15
REMARK    7  A    between atoms: C_16  and  C_18
REMARK                            x       y       z     vdW  Elec       q    Type
REMARK                         _______ _______ _______ _____ _____    ______ ____
ROOT
ATOM      1  C   UNL     1       4.217   4.655  16.798  0.00  0.00    +0.000 A 
ATOM      2  C   UNL     1       3.278   3.629  17.022  0.00  0.00    +0.000 A 
ATOM      3  C   UNL     1       2.115   3.871  17.738  0.00  0.00    +0.000 A 
ATOM      4  C   UNL     1       1.889   5.135  18.279  0.00  0.00    +0.000 A 
ATOM      5  C   UNL     1       2.817   6.181  18.132  0.00  0.00    +0.000 A 
ATOM      6  C   UNL     1       3.958   5.943  17.341  0.00  0.00    +0.000 A 
ENDROOT
BRANCH   5   7
ATOM      7  N   UNL     1       2.585   7.450  18.769  0.00  0.00    +0.000 N 
ATOM      8  C   UNL     1       1.904   7.543  19.974  0.00  0.00    +0.000 C 
ATOM      9  O   UNL     1       1.671   6.568  20.695  0.00  0.00    +0.000 OA
ATOM     10  H   UNL     1       3.072   8.263  18.415  0.00  0.00    +0.000 HD
BRANCH   8  11
ATOM     11  C   UNL     1       1.325   8.850  20.423  0.00  0.00    +0.000 C 
ATOM     12  C   UNL     1       0.705   9.917  19.870  0.00  0.00    +0.000 C 
ATOM     13  C   UNL     1       0.020  10.648  20.960  0.00  0.00    +0.000 A 
ATOM     14  C   UNL     1      -0.850  11.726  20.962  0.00  0.00    +0.000 A 
ATOM     15  C   UNL     1      -1.658  11.930  22.097  0.00  0.00    +0.000 A 
ATOM     16  C   UNL     1      -1.601  11.055  23.195  0.00  0.00    +0.000 A 
ATOM     17  C   UNL     1      -0.639  10.055  23.235  0.00  0.00    +0.000 A 
ATOM     18  C   UNL     1       0.187   9.912  22.135  0.00  0.00    +0.000 A 
ATOM     19  C   UNL     1       1.295   8.942  21.940  0.00  0.00    +0.000 C 
ENDBRANCH   8  11
ENDBRANCH   5   7
BRANCH   1  21
ATOM     20  C   UNL     1       5.279   3.576  14.665  0.00  0.00    +0.000 C 
ATOM     21  C   UNL     1       5.468   4.265  16.014  0.00  0.00    +0.000 C 
BRANCH  21  22
ATOM     22  S   UNL     1       6.737   5.592  15.971  0.00  0.00    +0.000 S 
BRANCH  22  23
ATOM     23  C   UNL     1       7.342   5.655  17.574  0.00  0.00    +0.000 A 
ATOM     24  N   UNL     1       7.436   4.657  18.424  0.00  0.00    +0.000 NA
ATOM     25  N   UNL     1       7.995   5.143  19.593  0.00  0.00    +0.000 NA
ATOM     26  C   UNL     1       8.214   6.423  19.412  0.00  0.00    +0.000 A 
ATOM     27  N   UNL     1       7.800   6.795  18.171  0.00  0.00    +0.000 N 
ATOM     28  C   UNL     1       7.829   8.129  17.638  0.00  0.00    +0.000 C 
ENDBRANCH  22  23
ENDBRANCH  21  22
ENDBRANCH   1  21
TORSDOF 5
ENDMDL
MODEL 6
REMARK VINA RESULT:      -8.2      6.799      9.364
REMARK  Name = 
REMARK  7 active torsions:
REMARK  status: ('A' for Active; 'I' for Inactive)
REMARK    1  A    between atoms: C_1  and  C_2
REMARK    2  A    between atoms: C_2  and  S_3
REMARK    3  A    between atoms: C_2  and  C_10
REMARK    4  A    between atoms: S_3  and  C_4
REMARK    5  A    between atoms: N_8  and  C_9
REMARK    6  A    between atoms: C_14  and  N_15
REMARK    7  A    between atoms: C_16  and  C_18
REMARK                            x       y       z     vdW  Elec       q    Type
REMARK                         _______ _______ _______ _____ _____    ______ ____
ROOT
ATOM      1  C   UNL     1       2.546   6.924  19.442  0.00  0.00    +0.000 A 
ATOM      2  C   UNL     1       2.841   7.325  18.125  0.00  0.00    +0.000 A 
ATOM      3  C   UNL     1       2.414   8.553  17.642  0.00  0.00    +0.000 A 
ATOM      4  C   UNL     1       1.647   9.385  18.454  0.00  0.00    +0.000 A 
ATOM      5  C   UNL     1       1.277   9.012  19.758  0.00  0.00    +0.000 A 
ATOM      6  C   UNL     1       1.779   7.796  20.262  0.00  0.00    +0.000 A 
ENDROOT
BRANCH   5   7
ATOM      7  N   UNL     1       0.421   9.864  20.540  0.00  0.00    +0.000 N 
ATOM      8  C   UNL     1      -0.698  10.469  19.989  0.00  0.00    +0.000 C 
ATOM      9  O   UNL     1      -1.175  10.142  18.897  0.00  0.00    +0.000 OA
ATOM     10  H   UNL     1       0.546   9.882  21.544  0.00  0.00    +0.000 HD
BRANCH   8  11
ATOM     11  C   UNL     1      -1.344  11.640  20.667  0.00  0.00    +0.000 C 
ATOM     12  C   UNL     1      -2.077  12.721  20.320  0.00  0.00    +0.000 C 
ATOM     13  C   UNL     1      -2.743  13.219  21.546  0.00  0.00    +0.000 A 
ATOM     14  C   UNL     1      -3.690  14.207  21.762  0.00  0.00    +0.000 A 
ATOM     15  C   UNL     1      -4.434  14.169  22.957  0.00  0.00    +0.000 A 
ATOM     16  C   UNL     1      -4.239  13.146  23.900  0.00  0.00    +0.000 A 
ATOM     17  C   UNL     1      -3.204  12.236  23.733  0.00  0.00    +0.000 A 
ATOM     18  C   UNL     1      -2.443  12.331  22.582  0.00  0.00    +0.000 A 
ATOM     19  C   UNL     1      -1.281  11.499  22.180  0.00  0.00    +0.000 C 
ENDBRANCH   8  11
ENDBRANCH   5   7
BRANCH   1  21
ATOM     20  C   UNL     1       2.192   4.730  20.820  0.00  0.00    +0.000 C 
ATOM     21  C   UNL     1       3.051   5.544  19.856  0.00  0.00    +0.000 C 
BRANCH  21  22
ATOM     22  S   UNL     1       3.685   4.553  18.446  0.00  0.00    +0.000 S 
BRANCH  22  23
ATOM     23  C   UNL     1       5.388   4.738  18.526  0.00  0.00    +0.000 A 
ATOM     24  N   UNL     1       6.093   5.128  19.564  0.00  0.00    +0.000 NA
ATOM     25  N   UNL     1       7.429   5.121  19.200  0.00  0.00    +0.000 NA
ATOM     26  C   UNL     1       7.484   4.734  17.948  0.00  0.00    +0.000 A 
ATOM     27  N   UNL     1       6.229   4.506  17.476  0.00  0.00    +0.000 N 
ATOM     28  C   UNL     1       5.892   4.123  16.132  0.00  0.00    +0.000 C 
ENDBRANCH  22  23
ENDBRANCH  21  22
ENDBRANCH   1  21
TORSDOF 5
ENDMDL
MODEL 7
REMARK VINA RESULT:      -8.2      5.377      8.711
REMARK  Name = 
REMARK  7 active torsions:
REMARK  status: ('A' for Active; 'I' for Inactive)
REMARK    1  A    between atoms: C_1  and  C_2
REMARK    2  A    between atoms: C_2  and  S_3
REMARK    3  A    between atoms: C_2  and  C_10
REMARK    4  A    between atoms: S_3  and  C_4
REMARK    5  A    between atoms: N_8  and  C_9
REMARK    6  A    between atoms: C_14  and  N_15
REMARK    7  A    between atoms: C_16  and  C_18
REMARK                            x       y       z     vdW  Elec       q    Type
REMARK                         _______ _______ _______ _____ _____    ______ ____
ROOT
ATOM      1  C   UNL     1       4.794   5.447  17.640  0.00  0.00    +0.000 A 
ATOM      2  C   UNL     1       4.291   4.500  18.554  0.00  0.00    +0.000 A 
ATOM      3  C   UNL     1       3.117   4.738  19.253  0.00  0.00    +0.000 A 
ATOM      4  C   UNL     1       2.446   5.946  19.084  0.00  0.00    +0.000 A 
ATOM      5  C   UNL     1       2.931   6.949  18.226  0.00  0.00    +0.000 A 
ATOM      6  C   UNL     1       4.084   6.666  17.466  0.00  0.00    +0.000 A 
ENDROOT
BRANCH   5   7
ATOM      7  N   UNL     1       2.252   8.214  18.133  0.00  0.00    +0.000 N 
ATOM      8  C   UNL     1       1.574   8.754  19.216  0.00  0.00    +0.000 C 
ATOM      9  O   UNL     1       1.702   8.334  20.371  0.00  0.00    +0.000 OA
ATOM     10  H   UNL     1       2.416   8.791  17.319  0.00  0.00    +0.000 HD
BRANCH   8  11
ATOM     11  C   UNL     1       0.559   9.839  19.017  0.00  0.00    +0.000 C 
ATOM     12  C   UNL     1      -0.539  10.058  18.259  0.00  0.00    +0.000 C 
ATOM     13  C   UNL     1      -1.301  11.160  18.889  0.00  0.00    +0.000 A 
ATOM     14  C   UNL     1      -2.542  11.715  18.620  0.00  0.00    +0.000 A 
ATOM     15  C   UNL     1      -3.176  12.456  19.636  0.00  0.00    +0.000 A 
ATOM     16  C   UNL     1      -2.579  12.616  20.897  0.00  0.00    +0.000 A 
ATOM     17  C   UNL     1      -1.284  12.166  21.114  0.00  0.00    +0.000 A 
ATOM     18  C   UNL     1      -0.654  11.496  20.081  0.00  0.00    +0.000 A 
ATOM     19  C   UNL     1       0.722  10.938  20.054  0.00  0.00    +0.000 C 
ENDBRANCH   8  11
ENDBRANCH   5   7
BRANCH   1  21
ATOM     20  C   UNL     1       7.301   4.724  17.821  0.00  0.00    +0.000 C 
ATOM     21  C   UNL     1       6.103   5.084  16.944  0.00  0.00    +0.000 C 
BRANCH  21  22
ATOM     22  S   UNL     1       5.877   3.935  15.530  0.00  0.00    +0.000 S 
BRANCH  22  23
ATOM     23  C   UNL     1       6.844   4.600  14.281  0.00  0.00    +0.000 A 
ATOM     24  N   UNL     1       7.778   5.517  14.406  0.00  0.00    +0.000 NA
ATOM     25  N   UNL     1       8.319   5.749  13.153  0.00  0.00    +0.000 NA
ATOM     26  C   UNL     1       7.686   4.969  12.310  0.00  0.00    +0.000 A 
ATOM     27  N   UNL     1       6.738   4.248  12.966  0.00  0.00    +0.000 N 
ATOM     28  C   UNL     1       5.812   3.330  12.361  0.00  0.00    +0.000 C 
ENDBRANCH  22  23
ENDBRANCH  21  22
ENDBRANCH   1  21
TORSDOF 5
ENDMDL
MODEL 8
REMARK VINA RESULT:      -8.2      7.444     10.573
REMARK  Name = 
REMARK  7 active torsions:
REMARK  status: ('A' for Active; 'I' for Inactive)
REMARK    1  A    between atoms: C_1  and  C_2
REMARK    2  A    between atoms: C_2  and  S_3
REMARK    3  A    between atoms: C_2  and  C_10
REMARK    4  A    between atoms: S_3  and  C_4
REMARK    5  A    between atoms: N_8  and  C_9
REMARK    6  A    between atoms: C_14  and  N_15
REMARK    7  A    between atoms: C_16  and  C_18
REMARK                            x       y       z     vdW  Elec       q    Type
REMARK                         _______ _______ _______ _____ _____    ______ ____
ROOT
ATOM      1  C   UNL     1      -1.545  11.422  17.810  0.00  0.00    +0.000 A 
ATOM      2  C   UNL     1      -0.993  12.686  18.097  0.00  0.00    +0.000 A 
ATOM      3  C   UNL     1       0.189  12.801  18.813  0.00  0.00    +0.000 A 
ATOM      4  C   UNL     1       0.819  11.656  19.293  0.00  0.00    +0.000 A 
ATOM      5  C   UNL     1       0.286  10.373  19.082  0.00  0.00    +0.000 A 
ATOM      6  C   UNL     1      -0.875  10.264  18.291  0.00  0.00    +0.000 A 
ENDROOT
BRANCH   5   7
ATOM      7  N   UNL     1       0.925   9.219  19.658  0.00  0.00    +0.000 N 
ATOM      8  C   UNL     1       1.755   8.400  18.907  0.00  0.00    +0.000 C 
ATOM      9  O   UNL     1       2.197   8.720  17.798  0.00  0.00    +0.000 OA
ATOM     10  H   UNL     1       0.899   9.104  20.662  0.00  0.00    +0.000 HD
BRANCH   8  11
ATOM     11  C   UNL     1       2.089   7.016  19.376  0.00  0.00    +0.000 C 
ATOM     12  C   UNL     1       2.063   6.315  20.532  0.00  0.00    +0.000 C 
ATOM     13  C   UNL     1       2.118   4.878  20.181  0.00  0.00    +0.000 A 
ATOM     14  C   UNL     1       2.004   3.723  20.939  0.00  0.00    +0.000 A 
ATOM     15  C   UNL     1       1.679   2.522  20.281  0.00  0.00    +0.000 A 
ATOM     16  C   UNL     1       1.456   2.492  18.894  0.00  0.00    +0.000 A 
ATOM     17  C   UNL     1       1.697   3.625  18.128  0.00  0.00    +0.000 A 
ATOM     18  C   UNL     1       2.078   4.779  18.788  0.00  0.00    +0.000 A 
ATOM     19  C   UNL     1       2.408   6.104  18.204  0.00  0.00    +0.000 C 
ENDBRANCH   8  11
ENDBRANCH   5   7
BRANCH   1  21
ATOM     20  C   UNL     1      -2.831  10.926  15.587  0.00  0.00    +0.000 C 
ATOM     21  C   UNL     1      -2.858  11.419  17.032  0.00  0.00    +0.000 C 
BRANCH  21  22
ATOM     22  S   UNL     1      -4.268  10.743  17.995  0.00  0.00    +0.000 S 
BRANCH  22  23
ATOM     23  C   UNL     1      -4.874  12.089  18.867  0.00  0.00    +0.000 A 
ATOM     24  N   UNL     1      -4.424  12.561  20.008  0.00  0.00    +0.000 NA
ATOM     25  N   UNL     1      -5.188  13.664  20.345  0.00  0.00    +0.000 NA
ATOM     26  C   UNL     1      -6.082  13.817  19.398  0.00  0.00    +0.000 A 
ATOM     27  N   UNL     1      -5.940  12.841  18.462  0.00  0.00    +0.000 N 
ATOM     28  C   UNL     1      -6.775  12.653  17.308  0.00  0.00    +0.000 C 
ENDBRANCH  22  23
ENDBRANCH  21  22
ENDBRANCH   1  21
TORSDOF 5
ENDMDL
MODEL 9
REMARK VINA RESULT:      -8.1      6.814      9.070
REMARK  Name = 
REMARK  7 active torsions:
REMARK  status: ('A' for Active; 'I' for Inactive)
REMARK    1  A    between atoms: C_1  and  C_2
REMARK    2  A    between atoms: C_2  and  S_3
REMARK    3  A    between atoms: C_2  and  C_10
REMARK    4  A    between atoms: S_3  and  C_4
REMARK    5  A    between atoms: N_8  and  C_9
REMARK    6  A    between atoms: C_14  and  N_15
REMARK    7  A    between atoms: C_16  and  C_18
REMARK                            x       y       z     vdW  Elec       q    Type
REMARK                         _______ _______ _______ _____ _____    ______ ____
ROOT
ATOM      1  C   UNL     1       2.490   6.534  19.478  0.00  0.00    +0.000 A 
ATOM      2  C   UNL     1       2.538   7.046  18.167  0.00  0.00    +0.000 A 
ATOM      3  C   UNL     1       2.110   8.336  17.890  0.00  0.00    +0.000 A 
ATOM      4  C   UNL     1       1.586   9.123  18.913  0.00  0.00    +0.000 A 
ATOM      5  C   UNL     1       1.465   8.645  20.229  0.00  0.00    +0.000 A 
ATOM      6  C   UNL     1       1.971   7.360  20.512  0.00  0.00    +0.000 A 
ENDROOT
BRANCH   5   7
ATOM      7  N   UNL     1       0.849   9.459  21.243  0.00  0.00    +0.000 N 
ATOM      8  C   UNL     1      -0.174  10.344  20.939  0.00  0.00    +0.000 C 
ATOM      9  O   UNL     1      -0.788  10.326  19.867  0.00  0.00    +0.000 OA
ATOM     10  H   UNL     1       1.053   9.257  22.213  0.00  0.00    +0.000 HD
BRANCH   8  11
ATOM     11  C   UNL     1      -0.531  11.451  21.885  0.00  0.00    +0.000 C 
ATOM     12  C   UNL     1      -0.375  12.791  21.965  0.00  0.00    +0.000 C 
ATOM     13  C   UNL     1      -1.353  13.294  22.957  0.00  0.00    +0.000 A 
ATOM     14  C   UNL     1      -1.718  14.572  23.348  0.00  0.00    +0.000 A 
ATOM     15  C   UNL     1      -2.956  14.744  23.996  0.00  0.00    +0.000 A 
ATOM     16  C   UNL     1      -3.812  13.655  24.226  0.00  0.00    +0.000 A 
ATOM     17  C   UNL     1      -3.383  12.364  23.945  0.00  0.00    +0.000 A 
ATOM     18  C   UNL     1      -2.136  12.212  23.367  0.00  0.00    +0.000 A 
ATOM     19  C   UNL     1      -1.447  10.952  22.991  0.00  0.00    +0.000 C 
ENDBRANCH   8  11
ENDBRANCH   5   7
BRANCH   1  21
ATOM     20  C   UNL     1       2.022   4.108  20.335  0.00  0.00    +0.000 C 
ATOM     21  C   UNL     1       2.970   5.096  19.659  0.00  0.00    +0.000 C 
BRANCH  21  22
ATOM     22  S   UNL     1       3.773   4.407  18.158  0.00  0.00    +0.000 S 
BRANCH  22  23
ATOM     23  C   UNL     1       5.447   4.681  18.407  0.00  0.00    +0.000 A 
ATOM     24  N   UNL     1       6.029   5.066  19.522  0.00  0.00    +0.000 NA
ATOM     25  N   UNL     1       7.390   5.145  19.287  0.00  0.00    +0.000 NA
ATOM     26  C   UNL     1       7.586   4.813  18.034  0.00  0.00    +0.000 A 
ATOM     27  N   UNL     1       6.396   4.536  17.435  0.00  0.00    +0.000 N 
ATOM     28  C   UNL     1       6.209   4.191  16.053  0.00  0.00    +0.000 C 
ENDBRANCH  22  23
ENDBRANCH  21  22
ENDBRANCH   1  21
TORSDOF 5
ENDMDL
