MODEL 1
REMARK VINA RESULT:      -7.1      0.000      0.000
REMARK  Name = 
REMARK  5 active torsions:
REMARK  status: ('A' for Active; 'I' for Inactive)
REMARK    1  A    between atoms: C_1  and  C_2
REMARK    2  A    between atoms: C_2  and  C_3
REMARK    3  A    between atoms: N_9  and  C_10
REMARK    4  A    between atoms: C_10  and  C_11
REMARK    5  A    between atoms: C_16  and  C_17
REMARK                            x       y       z     vdW  Elec       q    Type
REMARK                         _______ _______ _______ _____ _____    ______ ____
ROOT
ATOM      1  C   UNL     1       1.204  14.712  18.711  0.00  0.00    +0.000 C 
ATOM      2  O   UNL     1       1.235  15.933  18.515  0.00  0.00    +0.000 OA
ATOM      3  N   UNL     1       0.005  14.129  18.995  0.00  0.00    +0.000 N 
ATOM      4  C   UNL     1      -0.178  12.790  19.128  0.00  0.00    +0.000 A 
ATOM      5  N   UNL     1       0.742  11.872  19.235  0.00  0.00    +0.000 NA
ATOM      6  C   UNL     1       0.166  10.621  19.234  0.00  0.00    +0.000 A 
ATOM      7  C   UNL     1      -1.209  10.627  19.095  0.00  0.00    +0.000 A 
ATOM      8  S   UNL     1      -1.788  12.249  19.077  0.00  0.00    +0.000 S 
ATOM      9  H   UNL     1      -0.798  14.740  19.007  0.00  0.00    +0.000 HD
ENDROOT
BRANCH   6  10
ATOM     10  C   UNL     1       0.997   9.432  19.372  0.00  0.00    +0.000 A 
ATOM     11  C   UNL     1       0.959   8.692  20.556  0.00  0.00    +0.000 A 
ATOM     12  C   UNL     1       1.630   7.474  20.671  0.00  0.00    +0.000 A 
ATOM     13  C   UNL     1       2.411   7.000  19.614  0.00  0.00    +0.000 A 
ATOM     14  C   UNL     1       2.529   7.783  18.452  0.00  0.00    +0.000 A 
ATOM     15  C   UNL     1       1.789   8.970  18.324  0.00  0.00    +0.000 A 
ATOM     16  C   UNL     1       3.397   7.363  17.298  0.00  0.00    +0.000 C 
ATOM     17  C   UNL     1       4.421   6.301  17.689  0.00  0.00    +0.000 C 
ATOM     18  C   UNL     1       3.738   5.176  18.458  0.00  0.00    +0.000 C 
ATOM     19  C   UNL     1       3.158   5.699  19.773  0.00  0.00    +0.000 C 
ENDBRANCH   6  10
BRANCH   1  20
ATOM     20  C   UNL     1       2.474  13.878  18.552  0.00  0.00    +0.000 C 
BRANCH  20  26
ATOM     21  C   UNL     1       6.741  15.320  20.447  0.00  0.00    +0.000 C 
ATOM     22  C   UNL     1       5.255  15.611  20.306  0.00  0.00    +0.000 C 
ATOM     23  N   UNL     1       4.512  14.927  21.328  0.00  0.00    +0.000 N 
ATOM     24  C   UNL     1       3.491  14.145  20.804  0.00  0.00    +0.000 C 
ATOM     25  O   UNL     1       2.711  13.525  21.502  0.00  0.00    +0.000 OA
ATOM     26  N   UNL     1       3.566  14.182  19.450  0.00  0.00    +0.000 N 
ATOM     27  C   UNL     1       4.599  14.987  19.056  0.00  0.00    +0.000 C 
ATOM     28  O   UNL     1       4.846  15.335  17.906  0.00  0.00    +0.000 OA
ATOM     29  H   UNL     1       4.636  15.013  22.325  0.00  0.00    +0.000 HD
BRANCH  22  30
ATOM     30  C   UNL     1       4.972  17.090  20.204  0.00  0.00    +0.000 C 
ATOM     31  C   UNL     1       5.939  18.204  20.511  0.00  0.00    +0.000 C 
ATOM     32  C   UNL     1       4.778  17.950  21.436  0.00  0.00    +0.000 C 
ENDBRANCH  22  30
ENDBRANCH  20  26
ENDBRANCH   1  20
TORSDOF 4
ENDMDL
MODEL 2
REMARK VINA RESULT:      -7.0      2.285      3.189
REMARK  Name = 
REMARK  5 active torsions:
REMARK  status: ('A' for Active; 'I' for Inactive)
REMARK    1  A    between atoms: C_1  and  C_2
REMARK    2  A    between atoms: C_2  and  C_3
REMARK    3  A    between atoms: N_9  and  C_10
REMARK    4  A    between atoms: C_10  and  C_11
REMARK    5  A    between atoms: C_16  and  C_17
REMARK                            x       y       z     vdW  Elec       q    Type
REMARK                         _______ _______ _______ _____ _____    ______ ____
ROOT
ATOM      1  C   UNL     1      -0.538  13.248  21.463  0.00  0.00    +0.000 C 
ATOM      2  O   UNL     1      -1.031  14.334  21.790  0.00  0.00    +0.000 OA
ATOM      3  N   UNL     1      -0.608  12.210  22.342  0.00  0.00    +0.000 N 
ATOM      4  C   UNL     1      -0.198  10.945  22.063  0.00  0.00    +0.000 A 
ATOM      5  N   UNL     1       0.511  10.551  21.043  0.00  0.00    +0.000 NA
ATOM      6  C   UNL     1       0.623   9.178  21.046  0.00  0.00    +0.000 A 
ATOM      7  C   UNL     1      -0.048   8.553  22.081  0.00  0.00    +0.000 A 
ATOM      8  S   UNL     1      -0.737   9.735  23.128  0.00  0.00    +0.000 S 
ATOM      9  H   UNL     1      -1.083  12.393  23.213  0.00  0.00    +0.000 HD
ENDROOT
BRANCH   6  10
ATOM     10  C   UNL     1       1.399   8.504  20.013  0.00  0.00    +0.000 A 
ATOM     11  C   UNL     1       1.560   9.105  18.762  0.00  0.00    +0.000 A 
ATOM     12  C   UNL     1       2.411   8.559  17.800  0.00  0.00    +0.000 A 
ATOM     13  C   UNL     1       3.074   7.355  18.051  0.00  0.00    +0.000 A 
ATOM     14  C   UNL     1       2.846   6.696  19.272  0.00  0.00    +0.000 A 
ATOM     15  C   UNL     1       2.044   7.295  20.258  0.00  0.00    +0.000 A 
ATOM     16  C   UNL     1       3.480   5.369  19.586  0.00  0.00    +0.000 C 
ATOM     17  C   UNL     1       3.991   4.652  18.339  0.00  0.00    +0.000 C 
ATOM     18  C   UNL     1       4.822   5.608  17.492  0.00  0.00    +0.000 C 
ATOM     19  C   UNL     1       3.959   6.763  16.982  0.00  0.00    +0.000 C 
ENDBRANCH   6  10
BRANCH   1  20
ATOM     20  C   UNL     1       0.055  13.066  20.066  0.00  0.00    +0.000 C 
BRANCH  20  26
ATOM     21  C   UNL     1       2.704  16.585  17.951  0.00  0.00    +0.000 C 
ATOM     22  C   UNL     1       1.971  16.132  19.202  0.00  0.00    +0.000 C 
ATOM     23  N   UNL     1       2.840  15.347  20.035  0.00  0.00    +0.000 N 
ATOM     24  C   UNL     1       2.291  14.113  20.356  0.00  0.00    +0.000 C 
ATOM     25  O   UNL     1       2.842  13.317  21.094  0.00  0.00    +0.000 OA
ATOM     26  N   UNL     1       1.117  13.973  19.690  0.00  0.00    +0.000 N 
ATOM     27  C   UNL     1       0.858  15.093  18.950  0.00  0.00    +0.000 C 
ATOM     28  O   UNL     1      -0.182  15.335  18.345  0.00  0.00    +0.000 OA
ATOM     29  H   UNL     1       3.728  15.632  20.419  0.00  0.00    +0.000 HD
BRANCH  22  30
ATOM     30  C   UNL     1       1.287  17.278  19.908  0.00  0.00    +0.000 C 
ATOM     31  C   UNL     1       0.952  18.618  19.308  0.00  0.00    +0.000 C 
ATOM     32  C   UNL     1       2.049  18.518  20.335  0.00  0.00    +0.000 C 
ENDBRANCH  22  30
ENDBRANCH  20  26
ENDBRANCH   1  20
TORSDOF 4
ENDMDL
MODEL 3
REMARK VINA RESULT:      -7.0      5.986      8.719
REMARK  Name = 
REMARK  5 active torsions:
REMARK  status: ('A' for Active; 'I' for Inactive)
REMARK    1  A    between atoms: C_1  and  C_2
REMARK    2  A    between atoms: C_2  and  C_3
REMARK    3  A    between atoms: N_9  and  C_10
REMARK    4  A    between atoms: C_10  and  C_11
REMARK    5  A    between atoms: C_16  and  C_17
REMARK                            x       y       z     vdW  Elec       q    Type
REMARK                         _______ _______ _______ _____ _____    ______ ____
ROOT
ATOM      1  C   UNL     1       4.820   3.861  16.387  0.00  0.00    +0.000 C 
ATOM      2  O   UNL     1       5.498   3.127  15.659  0.00  0.00    +0.000 OA
ATOM      3  N   UNL     1       4.262   3.329  17.510  0.00  0.00    +0.000 N 
ATOM      4  C   UNL     1       3.585   4.051  18.441  0.00  0.00    +0.000 A 
ATOM      5  N   UNL     1       3.161   5.279  18.334  0.00  0.00    +0.000 NA
ATOM      6  C   UNL     1       2.622   5.700  19.529  0.00  0.00    +0.000 A 
ATOM      7  C   UNL     1       2.681   4.762  20.543  0.00  0.00    +0.000 A 
ATOM      8  S   UNL     1       3.329   3.285  19.936  0.00  0.00    +0.000 S 
ATOM      9  H   UNL     1       4.459   2.356  17.689  0.00  0.00    +0.000 HD
ENDROOT
BRANCH   6  10
ATOM     10  C   UNL     1       2.054   7.037  19.647  0.00  0.00    +0.000 A 
ATOM     11  C   UNL     1       2.111   7.913  18.560  0.00  0.00    +0.000 A 
ATOM     12  C   UNL     1       1.455   9.145  18.587  0.00  0.00    +0.000 A 
ATOM     13  C   UNL     1       0.775   9.553  19.737  0.00  0.00    +0.000 A 
ATOM     14  C   UNL     1       0.791   8.717  20.869  0.00  0.00    +0.000 A 
ATOM     15  C   UNL     1       1.394   7.450  20.800  0.00  0.00    +0.000 A 
ATOM     16  C   UNL     1       0.131   9.118  22.159  0.00  0.00    +0.000 C 
ATOM     17  C   UNL     1      -0.138  10.618  22.240  0.00  0.00    +0.000 C 
ATOM     18  C   UNL     1      -0.818  11.096  20.963  0.00  0.00    +0.000 C 
ATOM     19  C   UNL     1       0.106  10.904  19.759  0.00  0.00    +0.000 C 
ENDBRANCH   6  10
BRANCH   1  20
ATOM     20  C   UNL     1       4.690   5.349  16.065  0.00  0.00    +0.000 C 
BRANCH  20  26
ATOM     21  C   UNL     1       7.908   8.706  17.567  0.00  0.00    +0.000 C 
ATOM     22  C   UNL     1       7.502   7.242  17.591  0.00  0.00    +0.000 C 
ATOM     23  N   UNL     1       8.061   6.549  16.464  0.00  0.00    +0.000 N 
ATOM     24  C   UNL     1       7.097   5.873  15.728  0.00  0.00    +0.000 C 
ATOM     25  O   UNL     1       7.366   5.181  14.764  0.00  0.00    +0.000 OA
ATOM     26  N   UNL     1       5.876   6.158  16.247  0.00  0.00    +0.000 N 
ATOM     27  C   UNL     1       6.003   6.990  17.325  0.00  0.00    +0.000 C 
ATOM     28  O   UNL     1       5.105   7.322  18.091  0.00  0.00    +0.000 OA
ATOM     29  H   UNL     1       9.037   6.479  16.221  0.00  0.00    +0.000 HD
BRANCH  22  30
ATOM     30  C   UNL     1       7.778   6.597  18.928  0.00  0.00    +0.000 C 
ATOM     31  C   UNL     1       8.364   5.227  19.150  0.00  0.00    +0.000 C 
ATOM     32  C   UNL     1       6.912   5.474  19.464  0.00  0.00    +0.000 C 
ENDBRANCH  22  30
ENDBRANCH  20  26
ENDBRANCH   1  20
TORSDOF 4
ENDMDL
MODEL 4
REMARK VINA RESULT:      -7.0      6.203      9.428
REMARK  Name = 
REMARK  5 active torsions:
REMARK  status: ('A' for Active; 'I' for Inactive)
REMARK    1  A    between atoms: C_1  and  C_2
REMARK    2  A    between atoms: C_2  and  C_3
REMARK    3  A    between atoms: N_9  and  C_10
REMARK    4  A    between atoms: C_10  and  C_11
REMARK    5  A    between atoms: C_16  and  C_17
REMARK                            x       y       z     vdW  Elec       q    Type
REMARK                         _______ _______ _______ _____ _____    ______ ____
ROOT
ATOM      1  C   UNL     1       4.726   2.469  19.938  0.00  0.00    +0.000 C 
ATOM      2  O   UNL     1       5.402   1.440  20.052  0.00  0.00    +0.000 OA
ATOM      3  N   UNL     1       3.382   2.390  20.145  0.00  0.00    +0.000 N 
ATOM      4  C   UNL     1       2.547   3.462  20.150  0.00  0.00    +0.000 A 
ATOM      5  N   UNL     1       2.814   4.674  19.754  0.00  0.00    +0.000 NA
ATOM      6  C   UNL     1       1.752   5.507  20.025  0.00  0.00    +0.000 A 
ATOM      7  C   UNL     1       0.692   4.890  20.663  0.00  0.00    +0.000 A 
ATOM      8  S   UNL     1       1.007   3.203  20.819  0.00  0.00    +0.000 S 
ATOM      9  H   UNL     1       3.021   1.484  20.403  0.00  0.00    +0.000 HD
ENDROOT
BRANCH   6  10
ATOM     10  C   UNL     1       1.807   6.913  19.644  0.00  0.00    +0.000 A 
ATOM     11  C   UNL     1       2.336   7.276  18.403  0.00  0.00    +0.000 A 
ATOM     12  C   UNL     1       2.275   8.593  17.946  0.00  0.00    +0.000 A 
ATOM     13  C   UNL     1       1.734   9.593  18.758  0.00  0.00    +0.000 A 
ATOM     14  C   UNL     1       1.282   9.253  20.046  0.00  0.00    +0.000 A 
ATOM     15  C   UNL     1       1.284   7.911  20.461  0.00  0.00    +0.000 A 
ATOM     16  C   UNL     1       0.742  10.287  20.995  0.00  0.00    +0.000 C 
ATOM     17  C   UNL     1       1.139  11.707  20.604  0.00  0.00    +0.000 C 
ATOM     18  C   UNL     1       0.854  11.941  19.126  0.00  0.00    +0.000 C 
ATOM     19  C   UNL     1       1.712  11.017  18.261  0.00  0.00    +0.000 C 
ENDBRANCH   6  10
BRANCH   1  20
ATOM     20  C   UNL     1       5.408   3.806  19.654  0.00  0.00    +0.000 C 
BRANCH  20  26
ATOM     21  C   UNL     1       6.304   3.748  14.851  0.00  0.00    +0.000 C 
ATOM     22  C   UNL     1       5.954   4.595  16.063  0.00  0.00    +0.000 C 
ATOM     23  N   UNL     1       7.148   5.014  16.743  0.00  0.00    +0.000 N 
ATOM     24  C   UNL     1       7.131   4.685  18.092  0.00  0.00    +0.000 C 
ATOM     25  O   UNL     1       8.023   4.996  18.859  0.00  0.00    +0.000 OA
ATOM     26  N   UNL     1       6.011   3.963  18.349  0.00  0.00    +0.000 N 
ATOM     27  C   UNL     1       5.270   3.820  17.209  0.00  0.00    +0.000 C 
ATOM     28  O   UNL     1       4.144   3.338  17.134  0.00  0.00    +0.000 OA
ATOM     29  H   UNL     1       7.915   5.538  16.351  0.00  0.00    +0.000 HD
BRANCH  22  30
ATOM     30  C   UNL     1       4.999   5.714  15.719  0.00  0.00    +0.000 C 
ATOM     31  C   UNL     1       5.302   6.903  14.847  0.00  0.00    +0.000 C 
ATOM     32  C   UNL     1       5.137   7.093  16.331  0.00  0.00    +0.000 C 
ENDBRANCH  22  30
ENDBRANCH  20  26
ENDBRANCH   1  20
TORSDOF 4
ENDMDL
MODEL 5
REMARK VINA RESULT:      -7.0      1.628      2.684
REMARK  Name = 
REMARK  5 active torsions:
REMARK  status: ('A' for Active; 'I' for Inactive)
REMARK    1  A    between atoms: C_1  and  C_2
REMARK    2  A    between atoms: C_2  and  C_3
REMARK    3  A    between atoms: N_9  and  C_10
REMARK    4  A    between atoms: C_10  and  C_11
REMARK    5  A    between atoms: C_16  and  C_17
REMARK                            x       y       z     vdW  Elec       q    Type
REMARK                         _______ _______ _______ _____ _____    ______ ____
ROOT
ATOM      1  C   UNL     1       1.767  14.527  21.583  0.00  0.00    +0.000 C 
ATOM      2  O   UNL     1       1.922  15.669  22.030  0.00  0.00    +0.000 OA
ATOM      3  N   UNL     1       0.522  13.975  21.627  0.00  0.00    +0.000 N 
ATOM      4  C   UNL     1       0.201  12.774  21.078  0.00  0.00    +0.000 A 
ATOM      5  N   UNL     1       1.020  11.865  20.630  0.00  0.00    +0.000 NA
ATOM      6  C   UNL     1       0.314  10.839  20.042  0.00  0.00    +0.000 A 
ATOM      7  C   UNL     1      -1.056  11.020  20.036  0.00  0.00    +0.000 A 
ATOM      8  S   UNL     1      -1.459  12.462  20.889  0.00  0.00    +0.000 S 
ATOM      9  H   UNL     1      -0.211  14.552  22.011  0.00  0.00    +0.000 HD
ENDROOT
BRANCH   6  10
ATOM     10  C   UNL     1       1.017   9.687  19.492  0.00  0.00    +0.000 A 
ATOM     11  C   UNL     1       1.563   9.756  18.208  0.00  0.00    +0.000 A 
ATOM     12  C   UNL     1       2.363   8.729  17.704  0.00  0.00    +0.000 A 
ATOM     13  C   UNL     1       2.580   7.574  18.460  0.00  0.00    +0.000 A 
ATOM     14  C   UNL     1       1.958   7.456  19.716  0.00  0.00    +0.000 A 
ATOM     15  C   UNL     1       1.217   8.529  20.238  0.00  0.00    +0.000 A 
ATOM     16  C   UNL     1       2.100   6.218  20.558  0.00  0.00    +0.000 C 
ATOM     17  C   UNL     1       2.578   5.013  19.753  0.00  0.00    +0.000 C 
ATOM     18  C   UNL     1       3.791   5.394  18.913  0.00  0.00    +0.000 C 
ATOM     19  C   UNL     1       3.416   6.459  17.881  0.00  0.00    +0.000 C 
ENDBRANCH   6  10
BRANCH   1  20
ATOM     20  C   UNL     1       2.935  13.797  20.921  0.00  0.00    +0.000 C 
BRANCH  20  26
ATOM     21  C   UNL     1       5.896  16.764  18.409  0.00  0.00    +0.000 C 
ATOM     22  C   UNL     1       5.592  15.334  18.825  0.00  0.00    +0.000 C 
ATOM     23  N   UNL     1       4.667  14.731  17.906  0.00  0.00    +0.000 N 
ATOM     24  C   UNL     1       3.556  14.200  18.548  0.00  0.00    +0.000 C 
ATOM     25  O   UNL     1       2.678  13.599  17.959  0.00  0.00    +0.000 OA
ATOM     26  N   UNL     1       3.630  14.505  19.868  0.00  0.00    +0.000 N 
ATOM     27  C   UNL     1       4.774  15.208  20.128  0.00  0.00    +0.000 C 
ATOM     28  O   UNL     1       5.199  15.513  21.237  0.00  0.00    +0.000 OA
ATOM     29  H   UNL     1       4.786  14.625  16.911  0.00  0.00    +0.000 HD
BRANCH  22  30
ATOM     30  C   UNL     1       6.849  14.534  19.071  0.00  0.00    +0.000 C 
ATOM     31  C   UNL     1       8.263  15.032  18.922  0.00  0.00    +0.000 C 
ATOM     32  C   UNL     1       7.715  14.042  17.928  0.00  0.00    +0.000 C 
ENDBRANCH  22  30
ENDBRANCH  20  26
ENDBRANCH   1  20
TORSDOF 4
ENDMDL
MODEL 6
REMARK VINA RESULT:      -6.9      4.352      7.654
REMARK  Name = 
REMARK  5 active torsions:
REMARK  status: ('A' for Active; 'I' for Inactive)
REMARK    1  A    between atoms: C_1  and  C_2
REMARK    2  A    between atoms: C_2  and  C_3
REMARK    3  A    between atoms: N_9  and  C_10
REMARK    4  A    between atoms: C_10  and  C_11
REMARK    5  A    between atoms: C_16  and  C_17
REMARK                            x       y       z     vdW  Elec       q    Type
REMARK                         _______ _______ _______ _____ _____    ______ ____
ROOT
ATOM      1  C   UNL     1       0.031  10.035  18.547  0.00  0.00    +0.000 C 
ATOM      2  O   UNL     1       1.174   9.587  18.397  0.00  0.00    +0.000 OA
ATOM      3  N   UNL     1      -0.688  10.369  17.439  0.00  0.00    +0.000 N 
ATOM      4  C   UNL     1      -1.985  10.774  17.465  0.00  0.00    +0.000 A 
ATOM      5  N   UNL     1      -2.684  11.122  18.509  0.00  0.00    +0.000 NA
ATOM      6  C   UNL     1      -3.992  11.354  18.147  0.00  0.00    +0.000 A 
ATOM      7  C   UNL     1      -4.260  11.142  16.808  0.00  0.00    +0.000 A 
ATOM      8  S   UNL     1      -2.803  10.750  15.976  0.00  0.00    +0.000 S 
ATOM      9  H   UNL     1      -0.240  10.209  16.550  0.00  0.00    +0.000 HD
ENDROOT
BRANCH   6  10
ATOM     10  C   UNL     1      -4.963  11.786  19.145  0.00  0.00    +0.000 A 
ATOM     11  C   UNL     1      -6.327  11.591  18.916  0.00  0.00    +0.000 A 
ATOM     12  C   UNL     1      -7.274  11.860  19.906  0.00  0.00    +0.000 A 
ATOM     13  C   UNL     1      -6.873  12.395  21.133  0.00  0.00    +0.000 A 
ATOM     14  C   UNL     1      -5.512  12.681  21.338  0.00  0.00    +0.000 A 
ATOM     15  C   UNL     1      -4.564  12.336  20.359  0.00  0.00    +0.000 A 
ATOM     16  C   UNL     1      -5.017  13.311  22.611  0.00  0.00    +0.000 C 
ATOM     17  C   UNL     1      -6.134  13.979  23.408  0.00  0.00    +0.000 C 
ATOM     18  C   UNL     1      -7.317  13.029  23.546  0.00  0.00    +0.000 C 
ATOM     19  C   UNL     1      -7.917  12.714  22.174  0.00  0.00    +0.000 C 
ENDBRANCH   6  10
BRANCH   1  20
ATOM     20  C   UNL     1      -0.578  10.126  19.946  0.00  0.00    +0.000 C 
BRANCH  20  26
ATOM     21  C   UNL     1       1.151  14.434  21.471  0.00  0.00    +0.000 C 
ATOM     22  C   UNL     1      -0.084  13.594  21.187  0.00  0.00    +0.000 C 
ATOM     23  N   UNL     1      -0.432  12.810  22.340  0.00  0.00    +0.000 N 
ATOM     24  C   UNL     1      -0.549  11.459  22.044  0.00  0.00    +0.000 C 
ATOM     25  O   UNL     1      -0.887  10.629  22.867  0.00  0.00    +0.000 OA
ATOM     26  N   UNL     1      -0.193  11.265  20.749  0.00  0.00    +0.000 N 
ATOM     27  C   UNL     1       0.137  12.457  20.166  0.00  0.00    +0.000 C 
ATOM     28  O   UNL     1       0.371  12.641  18.976  0.00  0.00    +0.000 OA
ATOM     29  H   UNL     1      -0.637  13.154  23.265  0.00  0.00    +0.000 HD
BRANCH  22  30
ATOM     30  C   UNL     1      -1.215  14.418  20.620  0.00  0.00    +0.000 C 
ATOM     31  C   UNL     1      -1.243  15.918  20.490  0.00  0.00    +0.000 C 
ATOM     32  C   UNL     1      -2.122  15.244  21.510  0.00  0.00    +0.000 C 
ENDBRANCH  22  30
ENDBRANCH  20  26
ENDBRANCH   1  20
TORSDOF 4
ENDMDL
MODEL 7
REMARK VINA RESULT:      -6.8      3.304      6.021
REMARK  Name = 
REMARK  5 active torsions:
REMARK  status: ('A' for Active; 'I' for Inactive)
REMARK    1  A    between atoms: C_1  and  C_2
REMARK    2  A    between atoms: C_2  and  C_3
REMARK    3  A    between atoms: N_9  and  C_10
REMARK    4  A    between atoms: C_10  and  C_11
REMARK    5  A    between atoms: C_16  and  C_17
REMARK                            x       y       z     vdW  Elec       q    Type
REMARK                         _______ _______ _______ _____ _____    ______ ____
ROOT
ATOM      1  C   UNL     1       0.768   8.226  21.237  0.00  0.00    +0.000 C 
ATOM      2  O   UNL     1       0.027   8.838  22.015  0.00  0.00    +0.000 OA
ATOM      3  N   UNL     1       0.993   6.901  21.460  0.00  0.00    +0.000 N 
ATOM      4  C   UNL     1       1.702   6.097  20.625  0.00  0.00    +0.000 A 
ATOM      5  N   UNL     1       2.455   6.462  19.626  0.00  0.00    +0.000 NA
ATOM      6  C   UNL     1       2.912   5.355  18.946  0.00  0.00    +0.000 A 
ATOM      7  C   UNL     1       2.456   4.150  19.447  0.00  0.00    +0.000 A 
ATOM      8  S   UNL     1       1.523   4.425  20.870  0.00  0.00    +0.000 S 
ATOM      9  H   UNL     1       0.515   6.492  22.249  0.00  0.00    +0.000 HD
ENDROOT
BRANCH   6  10
ATOM     10  C   UNL     1       3.800   5.512  17.802  0.00  0.00    +0.000 A 
ATOM     11  C   UNL     1       4.296   6.777  17.476  0.00  0.00    +0.000 A 
ATOM     12  C   UNL     1       5.257   6.944  16.478  0.00  0.00    +0.000 A 
ATOM     13  C   UNL     1       5.699   5.844  15.738  0.00  0.00    +0.000 A 
ATOM     14  C   UNL     1       5.138   4.581  15.997  0.00  0.00    +0.000 A 
ATOM     15  C   UNL     1       4.226   4.419  17.053  0.00  0.00    +0.000 A 
ATOM     16  C   UNL     1       5.522   3.365  15.201  0.00  0.00    +0.000 C 
ATOM     17  C   UNL     1       6.194   3.718  13.877  0.00  0.00    +0.000 C 
ATOM     18  C   UNL     1       7.297   4.744  14.108  0.00  0.00    +0.000 C 
ATOM     19  C   UNL     1       6.710   6.053  14.639  0.00  0.00    +0.000 C 
ENDBRANCH   6  10
BRANCH   1  20
ATOM     20  C   UNL     1       1.344   8.933  20.011  0.00  0.00    +0.000 C 
BRANCH  20  26
ATOM     21  C   UNL     1      -0.202  13.567  19.884  0.00  0.00    +0.000 C 
ATOM     22  C   UNL     1       0.745  12.532  19.299  0.00  0.00    +0.000 C 
ATOM     23  N   UNL     1       0.103  11.809  18.236  0.00  0.00    +0.000 N 
ATOM     24  C   UNL     1       0.156  10.434  18.425  0.00  0.00    +0.000 C 
ATOM     25  O   UNL     1      -0.282   9.639  17.615  0.00  0.00    +0.000 OA
ATOM     26  N   UNL     1       0.722  10.183  19.632  0.00  0.00    +0.000 N 
ATOM     27  C   UNL     1       1.069  11.356  20.245  0.00  0.00    +0.000 C 
ATOM     28  O   UNL     1       1.718  11.467  21.280  0.00  0.00    +0.000 OA
ATOM     29  H   UNL     1      -0.303  12.199  17.400  0.00  0.00    +0.000 HD
BRANCH  22  30
ATOM     30  C   UNL     1       2.085  13.127  18.937  0.00  0.00    +0.000 C 
ATOM     31  C   UNL     1       2.769  14.269  19.641  0.00  0.00    +0.000 C 
ATOM     32  C   UNL     1       2.199  14.479  18.263  0.00  0.00    +0.000 C 
ENDBRANCH  22  30
ENDBRANCH  20  26
ENDBRANCH   1  20
TORSDOF 4
ENDMDL
MODEL 8
REMARK VINA RESULT:      -6.8      1.526      1.943
REMARK  Name = 
REMARK  5 active torsions:
REMARK  status: ('A' for Active; 'I' for Inactive)
REMARK    1  A    between atoms: C_1  and  C_2
REMARK    2  A    between atoms: C_2  and  C_3
REMARK    3  A    between atoms: N_9  and  C_10
REMARK    4  A    between atoms: C_10  and  C_11
REMARK    5  A    between atoms: C_16  and  C_17
REMARK                            x       y       z     vdW  Elec       q    Type
REMARK                         _______ _______ _______ _____ _____    ______ ____
ROOT
ATOM      1  C   UNL     1      -0.376  14.243  19.684  0.00  0.00    +0.000 C 
ATOM      2  O   UNL     1      -0.665  15.436  19.837  0.00  0.00    +0.000 OA
ATOM      3  N   UNL     1      -1.295  13.419  19.106  0.00  0.00    +0.000 N 
ATOM      4  C   UNL     1      -1.061  12.119  18.791  0.00  0.00    +0.000 A 
ATOM      5  N   UNL     1      -0.053  11.383  19.166  0.00  0.00    +0.000 NA
ATOM      6  C   UNL     1      -0.106  10.153  18.548  0.00  0.00    +0.000 A 
ATOM      7  C   UNL     1      -1.168  10.000  17.675  0.00  0.00    +0.000 A 
ATOM      8  S   UNL     1      -2.174  11.398  17.728  0.00  0.00    +0.000 S 
ATOM      9  H   UNL     1      -2.161  13.848  18.817  0.00  0.00    +0.000 HD
ENDROOT
BRANCH   6  10
ATOM     10  C   UNL     1       0.905   9.144  18.834  0.00  0.00    +0.000 A 
ATOM     11  C   UNL     1       0.966   8.563  20.103  0.00  0.00    +0.000 A 
ATOM     12  C   UNL     1       1.824   7.496  20.371  0.00  0.00    +0.000 A 
ATOM     13  C   UNL     1       2.691   7.027  19.381  0.00  0.00    +0.000 A 
ATOM     14  C   UNL     1       2.702   7.666  18.128  0.00  0.00    +0.000 A 
ATOM     15  C   UNL     1       1.781   8.690  17.852  0.00  0.00    +0.000 A 
ATOM     16  C   UNL     1       3.649   7.253  17.035  0.00  0.00    +0.000 C 
ATOM     17  C   UNL     1       4.825   6.431  17.557  0.00  0.00    +0.000 C 
ATOM     18  C   UNL     1       4.320   5.316  18.464  0.00  0.00    +0.000 C 
ATOM     19  C   UNL     1       3.638   5.898  19.703  0.00  0.00    +0.000 C 
ENDBRANCH   6  10
BRANCH   1  20
ATOM     20  C   UNL     1       1.016  13.738  20.062  0.00  0.00    +0.000 C 
BRANCH  20  26
ATOM     21  C   UNL     1       4.600  16.534  18.271  0.00  0.00    +0.000 C 
ATOM     22  C   UNL     1       4.243  15.303  19.087  0.00  0.00    +0.000 C 
ATOM     23  N   UNL     1       4.084  14.162  18.228  0.00  0.00    +0.000 N 
ATOM     24  C   UNL     1       2.861  13.530  18.409  0.00  0.00    +0.000 C 
ATOM     25  O   UNL     1       2.549  12.514  17.818  0.00  0.00    +0.000 OA
ATOM     26  N   UNL     1       2.125  14.253  19.290  0.00  0.00    +0.000 N 
ATOM     27  C   UNL     1       2.835  15.341  19.718  0.00  0.00    +0.000 C 
ATOM     28  O   UNL     1       2.506  16.113  20.613  0.00  0.00    +0.000 OA
ATOM     29  H   UNL     1       4.769  13.785  17.591  0.00  0.00    +0.000 HD
BRANCH  22  30
ATOM     30  C   UNL     1       5.189  15.093  20.245  0.00  0.00    +0.000 C 
ATOM     31  C   UNL     1       6.117  16.124  20.831  0.00  0.00    +0.000 C 
ATOM     32  C   UNL     1       6.686  14.977  20.038  0.00  0.00    +0.000 C 
ENDBRANCH  22  30
ENDBRANCH  20  26
ENDBRANCH   1  20
TORSDOF 4
ENDMDL
MODEL 9
REMARK VINA RESULT:      -6.8      1.918      2.176
REMARK  Name = 
REMARK  5 active torsions:
REMARK  status: ('A' for Active; 'I' for Inactive)
REMARK    1  A    between atoms: C_1  and  C_2
REMARK    2  A    between atoms: C_2  and  C_3
REMARK    3  A    between atoms: N_9  and  C_10
REMARK    4  A    between atoms: C_10  and  C_11
REMARK    5  A    between atoms: C_16  and  C_17
REMARK                            x       y       z     vdW  Elec       q    Type
REMARK                         _______ _______ _______ _____ _____    ______ ____
ROOT
ATOM      1  C   UNL     1      -0.165  13.408  20.665  0.00  0.00    +0.000 C 
ATOM      2  O   UNL     1      -0.518  14.531  21.045  0.00  0.00    +0.000 OA
ATOM      3  N   UNL     1      -0.993  12.711  19.838  0.00  0.00    +0.000 N 
ATOM      4  C   UNL     1      -0.677  11.517  19.272  0.00  0.00    +0.000 A 
ATOM      5  N   UNL     1       0.326  10.740  19.572  0.00  0.00    +0.000 NA
ATOM      6  C   UNL     1       0.380   9.676  18.699  0.00  0.00    +0.000 A 
ATOM      7  C   UNL     1      -0.593   9.694  17.718  0.00  0.00    +0.000 A 
ATOM      8  S   UNL     1      -1.659  11.022  17.977  0.00  0.00    +0.000 S 
ATOM      9  H   UNL     1      -1.849  13.172  19.568  0.00  0.00    +0.000 HD
ENDROOT
BRANCH   6  10
ATOM     10  C   UNL     1       1.406   8.652  18.855  0.00  0.00    +0.000 A 
ATOM     11  C   UNL     1       1.481   7.920  20.042  0.00  0.00    +0.000 A 
ATOM     12  C   UNL     1       2.354   6.839  20.172  0.00  0.00    +0.000 A 
ATOM     13  C   UNL     1       3.222   6.507  19.128  0.00  0.00    +0.000 A 
ATOM     14  C   UNL     1       3.217   7.296  17.964  0.00  0.00    +0.000 A 
ATOM     15  C   UNL     1       2.282   8.335  17.821  0.00  0.00    +0.000 A 
ATOM     16  C   UNL     1       4.163   7.034  16.825  0.00  0.00    +0.000 C 
ATOM     17  C   UNL     1       5.352   6.169  17.236  0.00  0.00    +0.000 C 
ATOM     18  C   UNL     1       4.866   4.944  18.000  0.00  0.00    +0.000 C 
ATOM     19  C   UNL     1       4.184   5.359  19.305  0.00  0.00    +0.000 C 
ENDBRANCH   6  10
BRANCH   1  20
ATOM     20  C   UNL     1       1.209  12.864  21.055  0.00  0.00    +0.000 C 
BRANCH  20  26
ATOM     21  C   UNL     1       4.792  14.636  18.244  0.00  0.00    +0.000 C 
ATOM     22  C   UNL     1       3.469  14.919  18.938  0.00  0.00    +0.000 C 
ATOM     23  N   UNL     1       3.696  15.352  20.290  0.00  0.00    +0.000 N 
ATOM     24  C   UNL     1       2.987  14.595  21.212  0.00  0.00    +0.000 C 
ATOM     25  O   UNL     1       2.997  14.829  22.406  0.00  0.00    +0.000 OA
ATOM     26  N   UNL     1       2.358  13.587  20.556  0.00  0.00    +0.000 N 
ATOM     27  C   UNL     1       2.611  13.666  19.215  0.00  0.00    +0.000 C 
ATOM     28  O   UNL     1       2.085  12.989  18.338  0.00  0.00    +0.000 OA
ATOM     29  H   UNL     1       4.248  16.142  20.587  0.00  0.00    +0.000 HD
BRANCH  22  30
ATOM     30  C   UNL     1       2.583  15.832  18.124  0.00  0.00    +0.000 C 
ATOM     31  C   UNL     1       3.041  16.984  17.270  0.00  0.00    +0.000 C 
ATOM     32  C   UNL     1       2.302  17.258  18.553  0.00  0.00    +0.000 C 
ENDBRANCH  22  30
ENDBRANCH  20  26
ENDBRANCH   1  20
TORSDOF 4
ENDMDL
