MODEL 1
REMARK VINA RESULT:      -9.3      0.000      0.000
REMARK  Name = 
REMARK  10 active torsions:
REMARK  status: ('A' for Active; 'I' for Inactive)
REMARK    1  A    between atoms: C_1  and  C_2
REMARK    2  A    between atoms: C_4  and  N_5
REMARK    3  A    between atoms: N_5  and  S_6
REMARK    4  A    between atoms: S_6  and  C_9
REMARK    5  A    between atoms: C_12  and  N_13
REMARK    6  A    between atoms: C_14  and  C_16
REMARK    7  A    between atoms: C_16  and  C_17
REMARK    8  A    between atoms: C_17  and  C_18
REMARK    9  A    between atoms: C_18  and  N_19
REMARK   10  A    between atoms: C_33  and  C_34
REMARK                            x       y       z     vdW  Elec       q    Type
REMARK                         _______ _______ _______ _____ _____    ______ ____
ROOT
ATOM      1  C   UNL     1       0.447  10.103  19.912  0.00  0.00    +0.000 A 
ATOM      2  C   UNL     1       1.155   9.481  18.882  0.00  0.00    +0.000 A 
ATOM      3  C   UNL     1       1.788   8.266  19.122  0.00  0.00    +0.000 A 
ATOM      4  C   UNL     1       1.723   7.644  20.378  0.00  0.00    +0.000 A 
ATOM      5  C   UNL     1       0.987   8.260  21.396  0.00  0.00    +0.000 A 
ATOM      6  C   UNL     1       0.391   9.513  21.179  0.00  0.00    +0.000 A 
ENDROOT
BRANCH   4   7
ATOM      7  N   UNL     1       2.385   6.412  20.631  0.00  0.00    +0.000 N 
ATOM      8  C   UNL     1       1.703   5.214  20.753  0.00  0.00    +0.000 C 
ATOM      9  O   UNL     1       0.508   5.091  20.485  0.00  0.00    +0.000 OA
ATOM     10  H   UNL     1       3.380   6.368  20.444  0.00  0.00    +0.000 HD
BRANCH   8  11
ATOM     11  C   UNL     1       2.515   3.993  21.189  0.00  0.00    +0.000 C 
BRANCH  11  12
ATOM     12  C   UNL     1       2.793   2.985  20.037  0.00  0.00    +0.000 C 
BRANCH  12  13
ATOM     13  C   UNL     1       4.149   3.278  19.383  0.00  0.00    +0.000 C 
BRANCH  13  14
ATOM     14  N   UNL     1       4.586   4.633  19.058  0.00  0.00    +0.000 N 
ATOM     15  C   UNL     1       3.985   4.981  17.855  0.00  0.00    +0.000 C 
ATOM     16  O   UNL     1       2.824   5.284  17.649  0.00  0.00    +0.000 OA
ATOM     17  C   UNL     1       5.002   4.835  16.814  0.00  0.00    +0.000 A 
ATOM     18  C   UNL     1       4.893   4.585  15.461  0.00  0.00    +0.000 A 
ATOM     19  C   UNL     1       6.086   4.443  14.745  0.00  0.00    +0.000 A 
ATOM     20  C   UNL     1       7.335   4.523  15.397  0.00  0.00    +0.000 A 
ATOM     21  C   UNL     1       7.411   4.698  16.782  0.00  0.00    +0.000 A 
ATOM     22  C   UNL     1       6.218   4.829  17.462  0.00  0.00    +0.000 A 
ATOM     23  C   UNL     1       5.932   4.876  18.895  0.00  0.00    +0.000 C 
ATOM     24  O   UNL     1       6.746   5.236  19.724  0.00  0.00    +0.000 OA
ENDBRANCH  13  14
ENDBRANCH  12  13
ENDBRANCH  11  12
ENDBRANCH   8  11
ENDBRANCH   4   7
BRANCH   1  25
ATOM     25  S   UNL     1      -0.327  11.684  19.598  0.00  0.00    +0.000 S 
ATOM     26  O   UNL     1      -0.058  12.026  18.226  0.00  0.00    +0.000 OA
ATOM     27  O   UNL     1       0.024  12.577  20.681  0.00  0.00    +0.000 OA
BRANCH  25  28
ATOM     28  N   UNL     1      -1.944  11.336  19.676  0.00  0.00    +0.000 N 
ATOM     29  H   UNL     1      -2.366  11.135  20.575  0.00  0.00    +0.000 HD
BRANCH  28  33
ATOM     30  C   UNL     1      -2.730   9.836  15.074  0.00  0.00    +0.000 C 
ATOM     31  C   UNL     1      -3.104  10.563  16.330  0.00  0.00    +0.000 A 
ATOM     32  C   UNL     1      -2.258  10.586  17.414  0.00  0.00    +0.000 A 
ATOM     33  C   UNL     1      -2.710  11.287  18.505  0.00  0.00    +0.000 A 
ATOM     34  N   UNL     1      -3.900  11.888  18.588  0.00  0.00    +0.000 NA
ATOM     35  C   UNL     1      -4.651  11.830  17.477  0.00  0.00    +0.000 A 
ATOM     36  C   UNL     1      -5.972  12.538  17.483  0.00  0.00    +0.000 C 
ATOM     37  N   UNL     1      -4.299  11.192  16.344  0.00  0.00    +0.000 NA
ENDBRANCH  28  33
ENDBRANCH  25  28
ENDBRANCH   1  25
TORSDOF 8
ENDMDL
MODEL 2
REMARK VINA RESULT:      -9.0      2.741      3.364
REMARK  Name = 
REMARK  10 active torsions:
REMARK  status: ('A' for Active; 'I' for Inactive)
REMARK    1  A    between atoms: C_1  and  C_2
REMARK    2  A    between atoms: C_4  and  N_5
REMARK    3  A    between atoms: N_5  and  S_6
REMARK    4  A    between atoms: S_6  and  C_9
REMARK    5  A    between atoms: C_12  and  N_13
REMARK    6  A    between atoms: C_14  and  C_16
REMARK    7  A    between atoms: C_16  and  C_17
REMARK    8  A    between atoms: C_17  and  C_18
REMARK    9  A    between atoms: C_18  and  N_19
REMARK   10  A    between atoms: C_33  and  C_34
REMARK                            x       y       z     vdW  Elec       q    Type
REMARK                         _______ _______ _______ _____ _____    ______ ____
ROOT
ATOM      1  C   UNL     1       0.622   9.756  20.059  0.00  0.00    +0.000 A 
ATOM      2  C   UNL     1       1.383   9.167  19.048  0.00  0.00    +0.000 A 
ATOM      3  C   UNL     1       1.984   7.933  19.274  0.00  0.00    +0.000 A 
ATOM      4  C   UNL     1       1.834   7.260  20.496  0.00  0.00    +0.000 A 
ATOM      5  C   UNL     1       1.045   7.845  21.493  0.00  0.00    +0.000 A 
ATOM      6  C   UNL     1       0.481   9.115  21.294  0.00  0.00    +0.000 A 
ENDROOT
BRANCH   4   7
ATOM      7  N   UNL     1       2.462   6.008  20.736  0.00  0.00    +0.000 N 
ATOM      8  C   UNL     1       1.761   4.815  20.746  0.00  0.00    +0.000 C 
ATOM      9  O   UNL     1       0.589   4.722  20.382  0.00  0.00    +0.000 OA
ATOM     10  H   UNL     1       3.469   5.960  20.624  0.00  0.00    +0.000 HD
BRANCH   8  11
ATOM     11  C   UNL     1       2.526   3.563  21.180  0.00  0.00    +0.000 C 
BRANCH  11  12
ATOM     12  C   UNL     1       2.801   2.565  20.019  0.00  0.00    +0.000 C 
BRANCH  12  13
ATOM     13  C   UNL     1       4.075   2.960  19.262  0.00  0.00    +0.000 C 
BRANCH  13  14
ATOM     14  N   UNL     1       4.440   4.351  19.013  0.00  0.00    +0.000 N 
ATOM     15  C   UNL     1       3.857   4.719  17.806  0.00  0.00    +0.000 C 
ATOM     16  O   UNL     1       2.687   4.961  17.573  0.00  0.00    +0.000 OA
ATOM     17  C   UNL     1       4.914   4.680  16.796  0.00  0.00    +0.000 A 
ATOM     18  C   UNL     1       4.863   4.487  15.430  0.00  0.00    +0.000 A 
ATOM     19  C   UNL     1       6.085   4.447  14.750  0.00  0.00    +0.000 A 
ATOM     20  C   UNL     1       7.305   4.571  15.447  0.00  0.00    +0.000 A 
ATOM     21  C   UNL     1       7.327   4.686  16.840  0.00  0.00    +0.000 A 
ATOM     22  C   UNL     1       6.107   4.715  17.484  0.00  0.00    +0.000 A 
ATOM     23  C   UNL     1       5.773   4.681  18.907  0.00  0.00    +0.000 C 
ATOM     24  O   UNL     1       6.538   5.049  19.779  0.00  0.00    +0.000 OA
ENDBRANCH  13  14
ENDBRANCH  12  13
ENDBRANCH  11  12
ENDBRANCH   8  11
ENDBRANCH   4   7
BRANCH   1  25
ATOM     25  S   UNL     1      -0.111  11.361  19.766  0.00  0.00    +0.000 S 
ATOM     26  O   UNL     1      -1.232  11.488  20.661  0.00  0.00    +0.000 OA
ATOM     27  O   UNL     1      -0.264  11.530  18.337  0.00  0.00    +0.000 OA
BRANCH  25  28
ATOM     28  N   UNL     1       1.042  12.411  20.323  0.00  0.00    +0.000 N 
ATOM     29  H   UNL     1       1.588  12.161  21.139  0.00  0.00    +0.000 HD
BRANCH  28  33
ATOM     30  C   UNL     1       3.688  15.510  17.597  0.00  0.00    +0.000 C 
ATOM     31  C   UNL     1       2.472  15.113  18.378  0.00  0.00    +0.000 A 
ATOM     32  C   UNL     1       2.398  13.890  19.002  0.00  0.00    +0.000 A 
ATOM     33  C   UNL     1       1.236  13.644  19.689  0.00  0.00    +0.000 A 
ATOM     34  N   UNL     1       0.190  14.474  19.746  0.00  0.00    +0.000 NA
ATOM     35  C   UNL     1       0.359  15.652  19.124  0.00  0.00    +0.000 A 
ATOM     36  C   UNL     1      -0.752  16.654  19.203  0.00  0.00    +0.000 C 
ATOM     37  N   UNL     1       1.464  16.009  18.442  0.00  0.00    +0.000 NA
ENDBRANCH  28  33
ENDBRANCH  25  28
ENDBRANCH   1  25
TORSDOF 8
ENDMDL
MODEL 3
REMARK VINA RESULT:      -9.0      4.300     10.496
REMARK  Name = 
REMARK  10 active torsions:
REMARK  status: ('A' for Active; 'I' for Inactive)
REMARK    1  A    between atoms: C_1  and  C_2
REMARK    2  A    between atoms: C_4  and  N_5
REMARK    3  A    between atoms: N_5  and  S_6
REMARK    4  A    between atoms: S_6  and  C_9
REMARK    5  A    between atoms: C_12  and  N_13
REMARK    6  A    between atoms: C_14  and  C_16
REMARK    7  A    between atoms: C_16  and  C_17
REMARK    8  A    between atoms: C_17  and  C_18
REMARK    9  A    between atoms: C_18  and  N_19
REMARK   10  A    between atoms: C_33  and  C_34
REMARK                            x       y       z     vdW  Elec       q    Type
REMARK                         _______ _______ _______ _____ _____    ______ ____
ROOT
ATOM      1  C   UNL     1       3.324   5.039  19.056  0.00  0.00    +0.000 A 
ATOM      2  C   UNL     1       2.612   5.296  20.228  0.00  0.00    +0.000 A 
ATOM      3  C   UNL     1       2.017   6.540  20.408  0.00  0.00    +0.000 A 
ATOM      4  C   UNL     1       2.108   7.542  19.431  0.00  0.00    +0.000 A 
ATOM      5  C   UNL     1       2.798   7.264  18.246  0.00  0.00    +0.000 A 
ATOM      6  C   UNL     1       3.450   6.032  18.079  0.00  0.00    +0.000 A 
ENDROOT
BRANCH   4   7
ATOM      7  N   UNL     1       1.516   8.820  19.621  0.00  0.00    +0.000 N 
ATOM      8  C   UNL     1       1.238   9.674  18.568  0.00  0.00    +0.000 C 
ATOM      9  O   UNL     1       1.318   9.333  17.388  0.00  0.00    +0.000 OA
ATOM     10  H   UNL     1       1.042   8.991  20.501  0.00  0.00    +0.000 HD
BRANCH   8  11
ATOM     11  C   UNL     1       0.756  11.083  18.923  0.00  0.00    +0.000 C 
BRANCH  11  12
ATOM     12  C   UNL     1       1.862  12.170  18.796  0.00  0.00    +0.000 C 
BRANCH  12  13
ATOM     13  C   UNL     1       1.236  13.542  18.517  0.00  0.00    +0.000 C 
BRANCH  13  14
ATOM     14  N   UNL     1       1.609  14.740  19.262  0.00  0.00    +0.000 N 
ATOM     15  C   UNL     1       0.441  15.452  19.507  0.00  0.00    +0.000 C 
ATOM     16  O   UNL     1      -0.444  15.204  20.306  0.00  0.00    +0.000 OA
ATOM     17  C   UNL     1       0.403  16.551  18.542  0.00  0.00    +0.000 A 
ATOM     18  C   UNL     1      -0.653  17.257  18.005  0.00  0.00    +0.000 A 
ATOM     19  C   UNL     1      -0.345  18.227  17.045  0.00  0.00    +0.000 A 
ATOM     20  C   UNL     1       0.988  18.438  16.633  0.00  0.00    +0.000 A 
ATOM     21  C   UNL     1       2.028  17.651  17.138  0.00  0.00    +0.000 A 
ATOM     22  C   UNL     1       1.692  16.700  18.078  0.00  0.00    +0.000 A 
ATOM     23  C   UNL     1       2.486  15.635  18.689  0.00  0.00    +0.000 C 
ATOM     24  O   UNL     1       3.698  15.678  18.783  0.00  0.00    +0.000 OA
ENDBRANCH  13  14
ENDBRANCH  12  13
ENDBRANCH  11  12
ENDBRANCH   8  11
ENDBRANCH   4   7
BRANCH   1  25
ATOM     25  S   UNL     1       4.118   3.448  18.857  0.00  0.00    +0.000 S 
ATOM     26  O   UNL     1       3.869   3.013  17.508  0.00  0.00    +0.000 OA
ATOM     27  O   UNL     1       3.761   2.625  19.993  0.00  0.00    +0.000 OA
BRANCH  25  28
ATOM     28  N   UNL     1       5.730   3.817  18.932  0.00  0.00    +0.000 N 
ATOM     29  H   UNL     1       6.301   3.403  19.659  0.00  0.00    +0.000 HD
BRANCH  28  33
ATOM     30  C   UNL     1       7.969   8.037  17.828  0.00  0.00    +0.000 C 
ATOM     31  C   UNL     1       7.371   6.706  17.485  0.00  0.00    +0.000 A 
ATOM     32  C   UNL     1       6.806   5.912  18.455  0.00  0.00    +0.000 A 
ATOM     33  C   UNL     1       6.288   4.719  18.017  0.00  0.00    +0.000 A 
ATOM     34  N   UNL     1       6.339   4.279  16.757  0.00  0.00    +0.000 NA
ATOM     35  C   UNL     1       6.891   5.128  15.875  0.00  0.00    +0.000 A 
ATOM     36  C   UNL     1       6.923   4.722  14.434  0.00  0.00    +0.000 C 
ATOM     37  N   UNL     1       7.408   6.332  16.188  0.00  0.00    +0.000 NA
ENDBRANCH  28  33
ENDBRANCH  25  28
ENDBRANCH   1  25
TORSDOF 8
ENDMDL
MODEL 4
REMARK VINA RESULT:      -8.9      2.509     10.307
REMARK  Name = 
REMARK  10 active torsions:
REMARK  status: ('A' for Active; 'I' for Inactive)
REMARK    1  A    between atoms: C_1  and  C_2
REMARK    2  A    between atoms: C_4  and  N_5
REMARK    3  A    between atoms: N_5  and  S_6
REMARK    4  A    between atoms: S_6  and  C_9
REMARK    5  A    between atoms: C_12  and  N_13
REMARK    6  A    between atoms: C_14  and  C_16
REMARK    7  A    between atoms: C_16  and  C_17
REMARK    8  A    between atoms: C_17  and  C_18
REMARK    9  A    between atoms: C_18  and  N_19
REMARK   10  A    between atoms: C_33  and  C_34
REMARK                            x       y       z     vdW  Elec       q    Type
REMARK                         _______ _______ _______ _____ _____    ______ ____
ROOT
ATOM      1  C   UNL     1       2.931   5.196  18.879  0.00  0.00    +0.000 A 
ATOM      2  C   UNL     1       3.091   6.319  18.065  0.00  0.00    +0.000 A 
ATOM      3  C   UNL     1       2.596   7.547  18.489  0.00  0.00    +0.000 A 
ATOM      4  C   UNL     1       1.946   7.687  19.724  0.00  0.00    +0.000 A 
ATOM      5  C   UNL     1       1.816   6.562  20.546  0.00  0.00    +0.000 A 
ATOM      6  C   UNL     1       2.262   5.307  20.103  0.00  0.00    +0.000 A 
ENDROOT
BRANCH   4   7
ATOM      7  N   UNL     1       1.423   8.938  20.150  0.00  0.00    +0.000 N 
ATOM      8  C   UNL     1       0.860   9.846  19.271  0.00  0.00    +0.000 C 
ATOM      9  O   UNL     1       0.613   9.578  18.095  0.00  0.00    +0.000 OA
ATOM     10  H   UNL     1       1.209   9.046  21.135  0.00  0.00    +0.000 HD
BRANCH   8  11
ATOM     11  C   UNL     1       0.488  11.220  19.833  0.00  0.00    +0.000 C 
BRANCH  11  12
ATOM     12  C   UNL     1       0.185  12.281  18.736  0.00  0.00    +0.000 C 
BRANCH  12  13
ATOM     13  C   UNL     1      -1.318  12.582  18.681  0.00  0.00    +0.000 C 
BRANCH  13  14
ATOM     14  N   UNL     1      -2.311  11.741  19.342  0.00  0.00    +0.000 N 
ATOM     15  C   UNL     1      -2.990  11.049  18.348  0.00  0.00    +0.000 C 
ATOM     16  O   UNL     1      -2.604  10.106  17.682  0.00  0.00    +0.000 OA
ATOM     17  C   UNL     1      -4.274  11.725  18.162  0.00  0.00    +0.000 A 
ATOM     18  C   UNL     1      -5.117  11.799  17.072  0.00  0.00    +0.000 A 
ATOM     19  C   UNL     1      -6.262  12.592  17.208  0.00  0.00    +0.000 A 
ATOM     20  C   UNL     1      -6.513  13.300  18.402  0.00  0.00    +0.000 A 
ATOM     21  C   UNL     1      -5.600  13.268  19.461  0.00  0.00    +0.000 A 
ATOM     22  C   UNL     1      -4.478  12.484  19.295  0.00  0.00    +0.000 A 
ATOM     23  C   UNL     1      -3.278  12.340  20.119  0.00  0.00    +0.000 C 
ATOM     24  O   UNL     1      -3.259  12.574  21.312  0.00  0.00    +0.000 OA
ENDBRANCH  13  14
ENDBRANCH  12  13
ENDBRANCH  11  12
ENDBRANCH   8  11
ENDBRANCH   4   7
BRANCH   1  25
ATOM     25  S   UNL     1       3.537   3.616  18.302  0.00  0.00    +0.000 S 
ATOM     26  O   UNL     1       3.308   3.564  16.881  0.00  0.00    +0.000 OA
ATOM     27  O   UNL     1       3.026   2.590  19.186  0.00  0.00    +0.000 OA
BRANCH  25  28
ATOM     28  N   UNL     1       5.175   3.744  18.498  0.00  0.00    +0.000 N 
ATOM     29  H   UNL     1       5.619   3.282  19.283  0.00  0.00    +0.000 HD
BRANCH  28  33
ATOM     30  C   UNL     1       6.968   4.676  14.031  0.00  0.00    +0.000 C 
ATOM     31  C   UNL     1       6.770   4.976  15.486  0.00  0.00    +0.000 A 
ATOM     32  C   UNL     1       6.041   4.132  16.290  0.00  0.00    +0.000 A 
ATOM     33  C   UNL     1       5.933   4.511  17.605  0.00  0.00    +0.000 A 
ATOM     34  N   UNL     1       6.437   5.636  18.120  0.00  0.00    +0.000 NA
ATOM     35  C   UNL     1       7.148   6.390  17.267  0.00  0.00    +0.000 A 
ATOM     36  C   UNL     1       7.793   7.634  17.797  0.00  0.00    +0.000 C 
ATOM     37  N   UNL     1       7.340   6.103  15.965  0.00  0.00    +0.000 NA
ENDBRANCH  28  33
ENDBRANCH  25  28
ENDBRANCH   1  25
TORSDOF 8
ENDMDL
MODEL 5
REMARK VINA RESULT:      -8.7      3.075      4.309
REMARK  Name = 
REMARK  10 active torsions:
REMARK  status: ('A' for Active; 'I' for Inactive)
REMARK    1  A    between atoms: C_1  and  C_2
REMARK    2  A    between atoms: C_4  and  N_5
REMARK    3  A    between atoms: N_5  and  S_6
REMARK    4  A    between atoms: S_6  and  C_9
REMARK    5  A    between atoms: C_12  and  N_13
REMARK    6  A    between atoms: C_14  and  C_16
REMARK    7  A    between atoms: C_16  and  C_17
REMARK    8  A    between atoms: C_17  and  C_18
REMARK    9  A    between atoms: C_18  and  N_19
REMARK   10  A    between atoms: C_33  and  C_34
REMARK                            x       y       z     vdW  Elec       q    Type
REMARK                         _______ _______ _______ _____ _____    ______ ____
ROOT
ATOM      1  C   UNL     1      -0.918  11.420  22.049  0.00  0.00    +0.000 A 
ATOM      2  C   UNL     1      -0.874  10.447  23.049  0.00  0.00    +0.000 A 
ATOM      3  C   UNL     1      -0.084   9.317  22.870  0.00  0.00    +0.000 A 
ATOM      4  C   UNL     1       0.681   9.135  21.708  0.00  0.00    +0.000 A 
ATOM      5  C   UNL     1       0.653  10.130  20.724  0.00  0.00    +0.000 A 
ATOM      6  C   UNL     1      -0.184  11.247  20.871  0.00  0.00    +0.000 A 
ENDROOT
BRANCH   4   7
ATOM      7  N   UNL     1       1.474   7.972  21.515  0.00  0.00    +0.000 N 
ATOM      8  C   UNL     1       1.885   7.553  20.262  0.00  0.00    +0.000 C 
ATOM      9  O   UNL     1       1.747   8.235  19.247  0.00  0.00    +0.000 OA
ATOM     10  H   UNL     1       1.972   7.606  22.318  0.00  0.00    +0.000 HD
BRANCH   8  11
ATOM     11  C   UNL     1       2.591   6.198  20.179  0.00  0.00    +0.000 C 
BRANCH  11  12
ATOM     12  C   UNL     1       1.640   5.020  19.821  0.00  0.00    +0.000 C 
BRANCH  12  13
ATOM     13  C   UNL     1       2.353   3.676  20.018  0.00  0.00    +0.000 C 
BRANCH  13  14
ATOM     14  N   UNL     1       3.126   3.036  18.958  0.00  0.00    +0.000 N 
ATOM     15  C   UNL     1       4.458   3.058  19.353  0.00  0.00    +0.000 C 
ATOM     16  O   UNL     1       5.010   2.376  20.197  0.00  0.00    +0.000 OA
ATOM     17  C   UNL     1       5.102   4.144  18.614  0.00  0.00    +0.000 A 
ATOM     18  C   UNL     1       6.208   4.916  18.907  0.00  0.00    +0.000 A 
ATOM     19  C   UNL     1       6.530   5.931  17.999  0.00  0.00    +0.000 A 
ATOM     20  C   UNL     1       5.733   6.161  16.858  0.00  0.00    +0.000 A 
ATOM     21  C   UNL     1       4.573   5.414  16.631  0.00  0.00    +0.000 A 
ATOM     22  C   UNL     1       4.277   4.426  17.546  0.00  0.00    +0.000 A 
ATOM     23  C   UNL     1       3.096   3.577  17.692  0.00  0.00    +0.000 C 
ATOM     24  O   UNL     1       2.351   3.309  16.768  0.00  0.00    +0.000 OA
ENDBRANCH  13  14
ENDBRANCH  12  13
ENDBRANCH  11  12
ENDBRANCH   8  11
ENDBRANCH   4   7
BRANCH   1  25
ATOM     25  S   UNL     1      -1.970  12.848  22.277  0.00  0.00    +0.000 S 
ATOM     26  O   UNL     1      -2.330  13.325  20.967  0.00  0.00    +0.000 OA
ATOM     27  O   UNL     1      -1.342  13.716  23.250  0.00  0.00    +0.000 OA
BRANCH  25  28
ATOM     28  N   UNL     1      -3.349  12.203  22.926  0.00  0.00    +0.000 N 
ATOM     29  H   UNL     1      -3.299  11.321  23.422  0.00  0.00    +0.000 HD
BRANCH  28  33
ATOM     30  C   UNL     1      -6.469  15.862  23.882  0.00  0.00    +0.000 C 
ATOM     31  C   UNL     1      -6.055  14.599  23.190  0.00  0.00    +0.000 A 
ATOM     32  C   UNL     1      -4.841  14.011  23.455  0.00  0.00    +0.000 A 
ATOM     33  C   UNL     1      -4.576  12.856  22.761  0.00  0.00    +0.000 A 
ATOM     34  N   UNL     1      -5.381  12.315  21.842  0.00  0.00    +0.000 NA
ATOM     35  C   UNL     1      -6.552  12.945  21.662  0.00  0.00    +0.000 A 
ATOM     36  C   UNL     1      -7.527  12.354  20.690  0.00  0.00    +0.000 C 
ATOM     37  N   UNL     1      -6.927  14.069  22.304  0.00  0.00    +0.000 NA
ENDBRANCH  28  33
ENDBRANCH  25  28
ENDBRANCH   1  25
TORSDOF 8
ENDMDL
MODEL 6
REMARK VINA RESULT:      -8.7      4.034     11.038
REMARK  Name = 
REMARK  10 active torsions:
REMARK  status: ('A' for Active; 'I' for Inactive)
REMARK    1  A    between atoms: C_1  and  C_2
REMARK    2  A    between atoms: C_4  and  N_5
REMARK    3  A    between atoms: N_5  and  S_6
REMARK    4  A    between atoms: S_6  and  C_9
REMARK    5  A    between atoms: C_12  and  N_13
REMARK    6  A    between atoms: C_14  and  C_16
REMARK    7  A    between atoms: C_16  and  C_17
REMARK    8  A    between atoms: C_17  and  C_18
REMARK    9  A    between atoms: C_18  and  N_19
REMARK   10  A    between atoms: C_33  and  C_34
REMARK                            x       y       z     vdW  Elec       q    Type
REMARK                         _______ _______ _______ _____ _____    ______ ____
ROOT
ATOM      1  C   UNL     1       3.336   4.925  19.222  0.00  0.00    +0.000 A 
ATOM      2  C   UNL     1       2.537   5.053  20.359  0.00  0.00    +0.000 A 
ATOM      3  C   UNL     1       1.845   6.238  20.581  0.00  0.00    +0.000 A 
ATOM      4  C   UNL     1       1.924   7.310  19.679  0.00  0.00    +0.000 A 
ATOM      5  C   UNL     1       2.703   7.162  18.526  0.00  0.00    +0.000 A 
ATOM      6  C   UNL     1       3.449   5.991  18.322  0.00  0.00    +0.000 A 
ENDROOT
BRANCH   4   7
ATOM      7  N   UNL     1       1.232   8.529  19.913  0.00  0.00    +0.000 N 
ATOM      8  C   UNL     1       1.116   9.087  21.174  0.00  0.00    +0.000 C 
ATOM      9  O   UNL     1       1.739   8.672  22.152  0.00  0.00    +0.000 OA
ATOM     10  H   UNL     1       1.064   9.133  19.116  0.00  0.00    +0.000 HD
BRANCH   8  11
ATOM     11  C   UNL     1       0.207  10.310  21.313  0.00  0.00    +0.000 C 
BRANCH  11  12
ATOM     12  C   UNL     1      -0.615  10.329  22.634  0.00  0.00    +0.000 C 
BRANCH  12  13
ATOM     13  C   UNL     1      -1.113  11.748  22.936  0.00  0.00    +0.000 C 
BRANCH  13  14
ATOM     14  N   UNL     1      -2.471  12.184  22.628  0.00  0.00    +0.000 N 
ATOM     15  C   UNL     1      -2.368  13.305  21.814  0.00  0.00    +0.000 C 
ATOM     16  O   UNL     1      -2.060  13.361  20.637  0.00  0.00    +0.000 OA
ATOM     17  C   UNL     1      -2.615  14.471  22.663  0.00  0.00    +0.000 A 
ATOM     18  C   UNL     1      -2.206  15.784  22.550  0.00  0.00    +0.000 A 
ATOM     19  C   UNL     1      -2.574  16.653  23.583  0.00  0.00    +0.000 A 
ATOM     20  C   UNL     1      -3.304  16.185  24.697  0.00  0.00    +0.000 A 
ATOM     21  C   UNL     1      -3.635  14.832  24.820  0.00  0.00    +0.000 A 
ATOM     22  C   UNL     1      -3.253  13.999  23.789  0.00  0.00    +0.000 A 
ATOM     23  C   UNL     1      -3.306  12.543  23.664  0.00  0.00    +0.000 C 
ATOM     24  O   UNL     1      -4.091  11.850  24.283  0.00  0.00    +0.000 OA
ENDBRANCH  13  14
ENDBRANCH  12  13
ENDBRANCH  11  12
ENDBRANCH   8  11
ENDBRANCH   4   7
BRANCH   1  25
ATOM     25  S   UNL     1       4.251   3.409  18.972  0.00  0.00    +0.000 S 
ATOM     26  O   UNL     1       4.039   3.003  17.607  0.00  0.00    +0.000 OA
ATOM     27  O   UNL     1       3.957   2.521  20.076  0.00  0.00    +0.000 OA
BRANCH  25  28
ATOM     28  N   UNL     1       5.829   3.899  19.066  0.00  0.00    +0.000 N 
ATOM     29  H   UNL     1       6.406   3.572  19.832  0.00  0.00    +0.000 HD
BRANCH  28  33
ATOM     30  C   UNL     1       7.982   8.116  17.792  0.00  0.00    +0.000 C 
ATOM     31  C   UNL     1       7.391   6.770  17.500  0.00  0.00    +0.000 A 
ATOM     32  C   UNL     1       6.865   5.994  18.505  0.00  0.00    +0.000 A 
ATOM     33  C   UNL     1       6.349   4.784  18.113  0.00  0.00    +0.000 A 
ATOM     34  N   UNL     1       6.369   4.313  16.863  0.00  0.00    +0.000 NA
ATOM     35  C   UNL     1       6.884   5.145  15.945  0.00  0.00    +0.000 A 
ATOM     36  C   UNL     1       6.879   4.703  14.513  0.00  0.00    +0.000 C 
ATOM     37  N   UNL     1       7.395   6.363  16.212  0.00  0.00    +0.000 NA
ENDBRANCH  28  33
ENDBRANCH  25  28
ENDBRANCH   1  25
TORSDOF 8
ENDMDL
MODEL 7
REMARK VINA RESULT:      -8.7      2.187      2.935
REMARK  Name = 
REMARK  10 active torsions:
REMARK  status: ('A' for Active; 'I' for Inactive)
REMARK    1  A    between atoms: C_1  and  C_2
REMARK    2  A    between atoms: C_4  and  N_5
REMARK    3  A    between atoms: N_5  and  S_6
REMARK    4  A    between atoms: S_6  and  C_9
REMARK    5  A    between atoms: C_12  and  N_13
REMARK    6  A    between atoms: C_14  and  C_16
REMARK    7  A    between atoms: C_16  and  C_17
REMARK    8  A    between atoms: C_17  and  C_18
REMARK    9  A    between atoms: C_18  and  N_19
REMARK   10  A    between atoms: C_33  and  C_34
REMARK                            x       y       z     vdW  Elec       q    Type
REMARK                         _______ _______ _______ _____ _____    ______ ____
ROOT
ATOM      1  C   UNL     1       0.075   9.993  19.928  0.00  0.00    +0.000 A 
ATOM      2  C   UNL     1       0.916   9.426  18.969  0.00  0.00    +0.000 A 
ATOM      3  C   UNL     1       1.638   8.280  19.282  0.00  0.00    +0.000 A 
ATOM      4  C   UNL     1       1.532   7.671  20.542  0.00  0.00    +0.000 A 
ATOM      5  C   UNL     1       0.663   8.229  21.487  0.00  0.00    +0.000 A 
ATOM      6  C   UNL     1      -0.026   9.417  21.199  0.00  0.00    +0.000 A 
ENDROOT
BRANCH   4   7
ATOM      7  N   UNL     1       2.282   6.510  20.870  0.00  0.00    +0.000 N 
ATOM      8  C   UNL     1       1.748   5.235  20.797  0.00  0.00    +0.000 C 
ATOM      9  O   UNL     1       0.656   4.993  20.285  0.00  0.00    +0.000 OA
ATOM     10  H   UNL     1       3.292   6.594  20.890  0.00  0.00    +0.000 HD
BRANCH   8  11
ATOM     11  C   UNL     1       2.607   4.089  21.337  0.00  0.00    +0.000 C 
BRANCH  11  12
ATOM     12  C   UNL     1       2.797   2.922  20.326  0.00  0.00    +0.000 C 
BRANCH  12  13
ATOM     13  C   UNL     1       3.976   3.210  19.388  0.00  0.00    +0.000 C 
BRANCH  13  14
ATOM     14  N   UNL     1       4.448   4.563  19.114  0.00  0.00    +0.000 N 
ATOM     15  C   UNL     1       3.883   4.960  17.909  0.00  0.00    +0.000 C 
ATOM     16  O   UNL     1       2.734   5.293  17.684  0.00  0.00    +0.000 OA
ATOM     17  C   UNL     1       4.921   4.822  16.888  0.00  0.00    +0.000 A 
ATOM     18  C   UNL     1       4.839   4.615  15.526  0.00  0.00    +0.000 A 
ATOM     19  C   UNL     1       6.046   4.468  14.834  0.00  0.00    +0.000 A 
ATOM     20  C   UNL     1       7.280   4.503  15.516  0.00  0.00    +0.000 A 
ATOM     21  C   UNL     1       7.327   4.635  16.907  0.00  0.00    +0.000 A 
ATOM     22  C   UNL     1       6.121   4.771  17.563  0.00  0.00    +0.000 A 
ATOM     23  C   UNL     1       5.802   4.783  18.990  0.00  0.00    +0.000 C 
ATOM     24  O   UNL     1       6.604   5.101  19.848  0.00  0.00    +0.000 OA
ENDBRANCH  13  14
ENDBRANCH  12  13
ENDBRANCH  11  12
ENDBRANCH   8  11
ENDBRANCH   4   7
BRANCH   1  25
ATOM     25  S   UNL     1      -0.815  11.490  19.523  0.00  0.00    +0.000 S 
ATOM     26  O   UNL     1      -2.181  11.117  19.261  0.00  0.00    +0.000 OA
ATOM     27  O   UNL     1      -0.035  12.226  18.551  0.00  0.00    +0.000 OA
BRANCH  25  28
ATOM     28  N   UNL     1      -0.832  12.320  20.955  0.00  0.00    +0.000 N 
ATOM     29  H   UNL     1       0.042  12.507  21.431  0.00  0.00    +0.000 HD
BRANCH  28  33
ATOM     30  C   UNL     1      -4.192  12.253  24.525  0.00  0.00    +0.000 C 
ATOM     31  C   UNL     1      -3.637  12.722  23.214  0.00  0.00    +0.000 A 
ATOM     32  C   UNL     1      -2.451  12.224  22.728  0.00  0.00    +0.000 A 
ATOM     33  C   UNL     1      -2.048  12.728  21.516  0.00  0.00    +0.000 A 
ATOM     34  N   UNL     1      -2.694  13.674  20.829  0.00  0.00    +0.000 NA
ATOM     35  C   UNL     1      -3.851  14.087  21.369  0.00  0.00    +0.000 A 
ATOM     36  C   UNL     1      -4.656  15.102  20.616  0.00  0.00    +0.000 C 
ATOM     37  N   UNL     1      -4.355  13.645  22.538  0.00  0.00    +0.000 NA
ENDBRANCH  28  33
ENDBRANCH  25  28
ENDBRANCH   1  25
TORSDOF 8
ENDMDL
MODEL 8
REMARK VINA RESULT:      -8.7      2.381      2.899
REMARK  Name = 
REMARK  10 active torsions:
REMARK  status: ('A' for Active; 'I' for Inactive)
REMARK    1  A    between atoms: C_1  and  C_2
REMARK    2  A    between atoms: C_4  and  N_5
REMARK    3  A    between atoms: N_5  and  S_6
REMARK    4  A    between atoms: S_6  and  C_9
REMARK    5  A    between atoms: C_12  and  N_13
REMARK    6  A    between atoms: C_14  and  C_16
REMARK    7  A    between atoms: C_16  and  C_17
REMARK    8  A    between atoms: C_17  and  C_18
REMARK    9  A    between atoms: C_18  and  N_19
REMARK   10  A    between atoms: C_33  and  C_34
REMARK                            x       y       z     vdW  Elec       q    Type
REMARK                         _______ _______ _______ _____ _____    ______ ____
ROOT
ATOM      1  C   UNL     1       0.561   9.779  19.949  0.00  0.00    +0.000 A 
ATOM      2  C   UNL     1       0.330   9.134  21.165  0.00  0.00    +0.000 A 
ATOM      3  C   UNL     1       0.945   7.914  21.422  0.00  0.00    +0.000 A 
ATOM      4  C   UNL     1       1.805   7.318  20.487  0.00  0.00    +0.000 A 
ATOM      5  C   UNL     1       2.054   7.985  19.282  0.00  0.00    +0.000 A 
ATOM      6  C   UNL     1       1.394   9.190  18.991  0.00  0.00    +0.000 A 
ENDROOT
BRANCH   4   7
ATOM      7  N   UNL     1       2.420   6.062  20.739  0.00  0.00    +0.000 N 
ATOM      8  C   UNL     1       1.712   4.873  20.730  0.00  0.00    +0.000 C 
ATOM      9  O   UNL     1       0.548   4.787  20.339  0.00  0.00    +0.000 OA
ATOM     10  H   UNL     1       3.428   6.007  20.650  0.00  0.00    +0.000 HD
BRANCH   8  11
ATOM     11  C   UNL     1       2.458   3.615  21.181  0.00  0.00    +0.000 C 
BRANCH  11  12
ATOM     12  C   UNL     1       2.821   2.653  20.013  0.00  0.00    +0.000 C 
BRANCH  12  13
ATOM     13  C   UNL     1       4.167   3.047  19.392  0.00  0.00    +0.000 C 
BRANCH  13  14
ATOM     14  N   UNL     1       4.504   4.428  19.062  0.00  0.00    +0.000 N 
ATOM     15  C   UNL     1       3.901   4.719  17.845  0.00  0.00    +0.000 C 
ATOM     16  O   UNL     1       2.725   4.928  17.613  0.00  0.00    +0.000 OA
ATOM     17  C   UNL     1       4.947   4.642  16.824  0.00  0.00    +0.000 A 
ATOM     18  C   UNL     1       4.883   4.373  15.472  0.00  0.00    +0.000 A 
ATOM     19  C   UNL     1       6.098   4.317  14.780  0.00  0.00    +0.000 A 
ATOM     20  C   UNL     1       7.324   4.500  15.454  0.00  0.00    +0.000 A 
ATOM     21  C   UNL     1       7.359   4.692  16.838  0.00  0.00    +0.000 A 
ATOM     22  C   UNL     1       6.147   4.736  17.495  0.00  0.00    +0.000 A 
ATOM     23  C   UNL     1       5.830   4.774  18.922  0.00  0.00    +0.000 C 
ATOM     24  O   UNL     1       6.598   5.203  19.762  0.00  0.00    +0.000 OA
ENDBRANCH  13  14
ENDBRANCH  12  13
ENDBRANCH  11  12
ENDBRANCH   8  11
ENDBRANCH   4   7
BRANCH   1  25
ATOM     25  S   UNL     1      -0.269  11.328  19.618  0.00  0.00    +0.000 S 
ATOM     26  O   UNL     1      -1.534  11.011  19.007  0.00  0.00    +0.000 OA
ATOM     27  O   UNL     1       0.677  12.215  18.977  0.00  0.00    +0.000 OA
BRANCH  25  28
ATOM     28  N   UNL     1      -0.620  11.900  21.131  0.00  0.00    +0.000 N 
ATOM     29  H   UNL     1      -0.137  11.513  21.933  0.00  0.00    +0.000 HD
BRANCH  28  33
ATOM     30  C   UNL     1      -2.402  16.406  20.384  0.00  0.00    +0.000 C 
ATOM     31  C   UNL     1      -2.465  15.013  20.933  0.00  0.00    +0.000 A 
ATOM     32  C   UNL     1      -1.427  14.131  20.747  0.00  0.00    +0.000 A 
ATOM     33  C   UNL     1      -1.599  12.886  21.300  0.00  0.00    +0.000 A 
ATOM     34  N   UNL     1      -2.697  12.481  21.945  0.00  0.00    +0.000 NA
ATOM     35  C   UNL     1      -3.651  13.414  22.095  0.00  0.00    +0.000 A 
ATOM     36  C   UNL     1      -4.882  13.043  22.864  0.00  0.00    +0.000 C 
ATOM     37  N   UNL     1      -3.578  14.671  21.617  0.00  0.00    +0.000 NA
ENDBRANCH  28  33
ENDBRANCH  25  28
ENDBRANCH   1  25
TORSDOF 8
ENDMDL
MODEL 9
REMARK VINA RESULT:      -8.7      3.273      4.902
REMARK  Name = 
REMARK  10 active torsions:
REMARK  status: ('A' for Active; 'I' for Inactive)
REMARK    1  A    between atoms: C_1  and  C_2
REMARK    2  A    between atoms: C_4  and  N_5
REMARK    3  A    between atoms: N_5  and  S_6
REMARK    4  A    between atoms: S_6  and  C_9
REMARK    5  A    between atoms: C_12  and  N_13
REMARK    6  A    between atoms: C_14  and  C_16
REMARK    7  A    between atoms: C_16  and  C_17
REMARK    8  A    between atoms: C_17  and  C_18
REMARK    9  A    between atoms: C_18  and  N_19
REMARK   10  A    between atoms: C_33  and  C_34
REMARK                            x       y       z     vdW  Elec       q    Type
REMARK                         _______ _______ _______ _____ _____    ______ ____
ROOT
ATOM      1  C   UNL     1       1.308   8.909  19.600  0.00  0.00    +0.000 A 
ATOM      2  C   UNL     1       1.583   9.186  18.260  0.00  0.00    +0.000 A 
ATOM      3  C   UNL     1       2.366   8.304  17.525  0.00  0.00    +0.000 A 
ATOM      4  C   UNL     1       2.881   7.131  18.099  0.00  0.00    +0.000 A 
ATOM      5  C   UNL     1       2.575   6.847  19.434  0.00  0.00    +0.000 A 
ATOM      6  C   UNL     1       1.832   7.759  20.200  0.00  0.00    +0.000 A 
ENDROOT
BRANCH   4   7
ATOM      7  N   UNL     1       3.697   6.237  17.354  0.00  0.00    +0.000 N 
ATOM      8  C   UNL     1       5.022   6.510  17.063  0.00  0.00    +0.000 C 
ATOM      9  O   UNL     1       5.641   7.450  17.562  0.00  0.00    +0.000 OA
ATOM     10  H   UNL     1       3.389   5.275  17.277  0.00  0.00    +0.000 HD
BRANCH   8  11
ATOM     11  C   UNL     1       5.739   5.545  16.115  0.00  0.00    +0.000 C 
BRANCH  11  12
ATOM     12  C   UNL     1       5.293   4.064  16.279  0.00  0.00    +0.000 C 
BRANCH  12  13
ATOM     13  C   UNL     1       4.985   3.755  17.749  0.00  0.00    +0.000 C 
BRANCH  13  14
ATOM     14  N   UNL     1       4.319   2.526  18.169  0.00  0.00    +0.000 N 
ATOM     15  C   UNL     1       2.977   2.649  17.829  0.00  0.00    +0.000 C 
ATOM     16  O   UNL     1       2.466   2.575  16.727  0.00  0.00    +0.000 OA
ATOM     17  C   UNL     1       2.257   2.984  19.057  0.00  0.00    +0.000 A 
ATOM     18  C   UNL     1       1.069   3.656  19.263  0.00  0.00    +0.000 A 
ATOM     19  C   UNL     1       0.681   3.864  20.591  0.00  0.00    +0.000 A 
ATOM     20  C   UNL     1       1.493   3.428  21.659  0.00  0.00    +0.000 A 
ATOM     21  C   UNL     1       2.730   2.821  21.418  0.00  0.00    +0.000 A 
ATOM     22  C   UNL     1       3.088   2.635  20.099  0.00  0.00    +0.000 A 
ATOM     23  C   UNL     1       4.342   2.178  19.502  0.00  0.00    +0.000 C 
ATOM     24  O   UNL     1       5.144   1.478  20.091  0.00  0.00    +0.000 OA
ENDBRANCH  13  14
ENDBRANCH  12  13
ENDBRANCH  11  12
ENDBRANCH   8  11
ENDBRANCH   4   7
BRANCH   1  25
ATOM     25  S   UNL     1       0.332  10.075  20.543  0.00  0.00    +0.000 S 
ATOM     26  O   UNL     1       0.385   9.659  21.920  0.00  0.00    +0.000 OA
ATOM     27  O   UNL     1      -0.929  10.259  19.858  0.00  0.00    +0.000 OA
BRANCH  25  28
ATOM     28  N   UNL     1       1.217  11.471  20.450  0.00  0.00    +0.000 N 
ATOM     29  H   UNL     1       2.201  11.421  20.217  0.00  0.00    +0.000 HD
BRANCH  28  33
ATOM     30  C   UNL     1      -0.236  15.966  19.140  0.00  0.00    +0.000 C 
ATOM     31  C   UNL     1      -0.100  14.830  20.107  0.00  0.00    +0.000 A 
ATOM     32  C   UNL     1       0.551  13.672  19.752  0.00  0.00    +0.000 A 
ATOM     33  C   UNL     1       0.614  12.705  20.724  0.00  0.00    +0.000 A 
ATOM     34  N   UNL     1       0.061  12.801  21.936  0.00  0.00    +0.000 NA
ATOM     35  C   UNL     1      -0.537  13.974  22.202  0.00  0.00    +0.000 A 
ATOM     36  C   UNL     1      -1.124  14.171  23.566  0.00  0.00    +0.000 C 
ATOM     37  N   UNL     1      -0.637  14.999  21.334  0.00  0.00    +0.000 NA
ENDBRANCH  28  33
ENDBRANCH  25  28
ENDBRANCH   1  25
TORSDOF 8
ENDMDL
