MODEL 1
REMARK VINA RESULT:      -8.8      0.000      0.000
REMARK  Name = 
REMARK  5 active torsions:
REMARK  status: ('A' for Active; 'I' for Inactive)
REMARK    1  A    between atoms: N_5  and  C_6
REMARK    2  A    between atoms: C_6  and  C_7
REMARK    3  A    between atoms: N_15  and  C_16
REMARK    4  A    between atoms: C_16  and  C_17
REMARK    5  A    between atoms: C_28  and  C_29
REMARK                            x       y       z     vdW  Elec       q    Type
REMARK                         _______ _______ _______ _____ _____    ______ ____
ROOT
ATOM      1  C   UNL     1       0.395  11.551  20.368  0.00  0.00    +0.000 C 
ATOM      2  O   UNL     1       1.473  11.881  20.879  0.00  0.00    +0.000 OA
ATOM      3  N   UNL     1      -0.446  12.472  19.634  0.00  0.00    +0.000 N 
ATOM      4  C   UNL     1      -0.054  13.839  19.854  0.00  0.00    +0.000 A 
ATOM      5  C   UNL     1       0.139  14.837  18.914  0.00  0.00    +0.000 A 
ATOM      6  C   UNL     1       0.587  16.090  19.371  0.00  0.00    +0.000 A 
ATOM      7  C   UNL     1       0.900  16.275  20.727  0.00  0.00    +0.000 A 
ATOM      8  C   UNL     1       0.432  15.352  21.653  0.00  0.00    +0.000 A 
ATOM      9  C   UNL     1      -0.281  14.288  21.146  0.00  0.00    +0.000 A 
ATOM     10  O   UNL     1      -1.491  13.906  21.723  0.00  0.00    +0.000 OA
ATOM     11  C   UNL     1      -2.433  13.582  20.627  0.00  0.00    +0.000 C 
ATOM     12  C   UNL     1      -1.908  12.317  19.886  0.00  0.00    +0.000 C 
ENDROOT
BRANCH  12  13
ATOM     13  C   UNL     1      -2.678  11.735  18.697  0.00  0.00    +0.000 A 
ATOM     14  C   UNL     1      -4.077  11.749  18.632  0.00  0.00    +0.000 A 
ATOM     15  C   UNL     1      -4.757  11.437  17.435  0.00  0.00    +0.000 A 
ATOM     16  C   UNL     1      -4.061  11.089  16.301  0.00  0.00    +0.000 A 
ATOM     17  C   UNL     1      -2.670  11.023  16.357  0.00  0.00    +0.000 A 
ATOM     18  C   UNL     1      -1.989  11.352  17.538  0.00  0.00    +0.000 A 
ENDBRANCH  12  13
BRANCH   1  19
ATOM     19  C   UNL     1      -0.095  10.092  20.513  0.00  0.00    +0.000 C 
BRANCH  19  27
ATOM     20  O   UNL     1       1.224  10.314  17.834  0.00  0.00    +0.000 OA
ATOM     21  C   UNL     1       1.354   9.381  18.599  0.00  0.00    +0.000 C 
ATOM     22  C   UNL     1       2.322   8.192  18.405  0.00  0.00    +0.000 C 
ATOM     23  O   UNL     1       3.090   8.063  17.475  0.00  0.00    +0.000 OA
ATOM     24  N   UNL     1       2.195   7.450  19.533  0.00  0.00    +0.000 N 
ATOM     25  C   UNL     1       1.369   8.089  20.415  0.00  0.00    +0.000 C 
ATOM     26  O   UNL     1       1.216   7.793  21.593  0.00  0.00    +0.000 OA
ATOM     27  N   UNL     1       0.809   9.188  19.825  0.00  0.00    +0.000 N 
BRANCH  24  28
ATOM     28  C   UNL     1       3.011   6.306  19.872  0.00  0.00    +0.000 C 
BRANCH  28  29
ATOM     29  C   UNL     1       2.274   5.000  19.690  0.00  0.00    +0.000 A 
ATOM     30  C   UNL     1       2.014   4.502  18.406  0.00  0.00    +0.000 A 
ATOM     31  C   UNL     1       1.313   3.305  18.240  0.00  0.00    +0.000 A 
ATOM     32  C   UNL     1       0.863   2.598  19.353  0.00  0.00    +0.000 A 
ATOM     33  C   UNL     1       1.121   3.080  20.635  0.00  0.00    +0.000 A 
ATOM     34  C   UNL     1       1.824   4.273  20.803  0.00  0.00    +0.000 A 
ENDBRANCH  28  29
ENDBRANCH  24  28
ENDBRANCH  19  27
ENDBRANCH   1  19
TORSDOF 5
ENDMDL
MODEL 2
REMARK VINA RESULT:      -8.8      2.519      9.115
REMARK  Name = 
REMARK  5 active torsions:
REMARK  status: ('A' for Active; 'I' for Inactive)
REMARK    1  A    between atoms: N_5  and  C_6
REMARK    2  A    between atoms: C_6  and  C_7
REMARK    3  A    between atoms: N_15  and  C_16
REMARK    4  A    between atoms: C_16  and  C_17
REMARK    5  A    between atoms: C_28  and  C_29
REMARK                            x       y       z     vdW  Elec       q    Type
REMARK                         _______ _______ _______ _____ _____    ______ ____
ROOT
ATOM      1  C   UNL     1       3.501   6.563  17.795  0.00  0.00    +0.000 C 
ATOM      2  O   UNL     1       4.187   7.471  17.308  0.00  0.00    +0.000 OA
ATOM      3  N   UNL     1       4.063   5.316  18.268  0.00  0.00    +0.000 N 
ATOM      4  C   UNL     1       5.416   5.137  17.811  0.00  0.00    +0.000 A 
ATOM      5  C   UNL     1       6.526   4.756  18.545  0.00  0.00    +0.000 A 
ATOM      6  C   UNL     1       7.767   4.710  17.883  0.00  0.00    +0.000 A 
ATOM      7  C   UNL     1       7.865   5.119  16.543  0.00  0.00    +0.000 A 
ATOM      8  C   UNL     1       6.705   5.220  15.787  0.00  0.00    +0.000 A 
ATOM      9  C   UNL     1       5.526   4.942  16.442  0.00  0.00    +0.000 A 
ATOM     10  O   UNL     1       4.576   4.101  15.865  0.00  0.00    +0.000 OA
ATOM     11  C   UNL     1       4.041   3.223  16.932  0.00  0.00    +0.000 C 
ATOM     12  C   UNL     1       3.254   4.106  17.946  0.00  0.00    +0.000 C 
ENDROOT
BRANCH  12  13
ATOM     13  C   UNL     1       2.579   3.475  19.168  0.00  0.00    +0.000 A 
ATOM     14  C   UNL     1       3.299   3.100  20.310  0.00  0.00    +0.000 A 
ATOM     15  C   UNL     1       2.639   2.753  21.508  0.00  0.00    +0.000 A 
ATOM     16  C   UNL     1       1.266   2.753  21.581  0.00  0.00    +0.000 A 
ATOM     17  C   UNL     1       0.530   3.077  20.442  0.00  0.00    +0.000 A 
ATOM     18  C   UNL     1       1.181   3.443  19.255  0.00  0.00    +0.000 A 
ENDBRANCH  12  13
BRANCH   1  19
ATOM     19  C   UNL     1       1.971   6.747  17.907  0.00  0.00    +0.000 C 
BRANCH  19  27
ATOM     20  O   UNL     1       1.892   6.496  20.890  0.00  0.00    +0.000 OA
ATOM     21  C   UNL     1       1.646   7.509  20.269  0.00  0.00    +0.000 C 
ATOM     22  C   UNL     1       1.374   8.897  20.893  0.00  0.00    +0.000 C 
ATOM     23  O   UNL     1       1.402   9.145  22.081  0.00  0.00    +0.000 OA
ATOM     24  N   UNL     1       1.238   9.736  19.836  0.00  0.00    +0.000 N 
ATOM     25  C   UNL     1       1.498   9.060  18.676  0.00  0.00    +0.000 C 
ATOM     26  O   UNL     1       1.666   9.570  17.576  0.00  0.00    +0.000 OA
ATOM     27  N   UNL     1       1.657   7.727  18.932  0.00  0.00    +0.000 N 
BRANCH  24  28
ATOM     28  C   UNL     1       1.111  11.173  19.926  0.00  0.00    +0.000 C 
BRANCH  28  29
ATOM     29  C   UNL     1      -0.331  11.619  19.989  0.00  0.00    +0.000 A 
ATOM     30  C   UNL     1      -1.166  11.488  18.871  0.00  0.00    +0.000 A 
ATOM     31  C   UNL     1      -2.493  11.920  18.926  0.00  0.00    +0.000 A 
ATOM     32  C   UNL     1      -2.996  12.491  20.093  0.00  0.00    +0.000 A 
ATOM     33  C   UNL     1      -2.177  12.621  21.213  0.00  0.00    +0.000 A 
ATOM     34  C   UNL     1      -0.853  12.187  21.162  0.00  0.00    +0.000 A 
ENDBRANCH  28  29
ENDBRANCH  24  28
ENDBRANCH  19  27
ENDBRANCH   1  19
TORSDOF 5
ENDMDL
MODEL 3
REMARK VINA RESULT:      -8.6      2.467      8.916
REMARK  Name = 
REMARK  5 active torsions:
REMARK  status: ('A' for Active; 'I' for Inactive)
REMARK    1  A    between atoms: N_5  and  C_6
REMARK    2  A    between atoms: C_6  and  C_7
REMARK    3  A    between atoms: N_15  and  C_16
REMARK    4  A    between atoms: C_16  and  C_17
REMARK    5  A    between atoms: C_28  and  C_29
REMARK                            x       y       z     vdW  Elec       q    Type
REMARK                         _______ _______ _______ _____ _____    ______ ____
ROOT
ATOM      1  C   UNL     1       3.299   7.085  17.992  0.00  0.00    +0.000 C 
ATOM      2  O   UNL     1       3.976   7.979  17.469  0.00  0.00    +0.000 OA
ATOM      3  N   UNL     1       3.867   5.844  18.474  0.00  0.00    +0.000 N 
ATOM      4  C   UNL     1       5.205   5.647  17.982  0.00  0.00    +0.000 A 
ATOM      5  C   UNL     1       6.333   5.273  18.691  0.00  0.00    +0.000 A 
ATOM      6  C   UNL     1       7.554   5.205  17.995  0.00  0.00    +0.000 A 
ATOM      7  C   UNL     1       7.617   5.588  16.646  0.00  0.00    +0.000 A 
ATOM      8  C   UNL     1       6.436   5.682  15.921  0.00  0.00    +0.000 A 
ATOM      9  C   UNL     1       5.274   5.425  16.614  0.00  0.00    +0.000 A 
ATOM     10  O   UNL     1       4.303   4.579  16.082  0.00  0.00    +0.000 OA
ATOM     11  C   UNL     1       3.794   3.725  17.181  0.00  0.00    +0.000 C 
ATOM     12  C   UNL     1       3.041   4.633  18.200  0.00  0.00    +0.000 C 
ENDROOT
BRANCH  12  13
ATOM     13  C   UNL     1       2.398   4.031  19.452  0.00  0.00    +0.000 A 
ATOM     14  C   UNL     1       1.037   3.706  19.511  0.00  0.00    +0.000 A 
ATOM     15  C   UNL     1       0.516   2.933  20.571  0.00  0.00    +0.000 A 
ATOM     16  C   UNL     1       1.329   2.495  21.590  0.00  0.00    +0.000 A 
ATOM     17  C   UNL     1       2.678   2.848  21.574  0.00  0.00    +0.000 A 
ATOM     18  C   UNL     1       3.205   3.598  20.513  0.00  0.00    +0.000 A 
ENDBRANCH  12  13
BRANCH   1  19
ATOM     19  C   UNL     1       1.773   7.282  18.145  0.00  0.00    +0.000 C 
BRANCH  19  27
ATOM     20  O   UNL     1       1.764   6.774  21.096  0.00  0.00    +0.000 OA
ATOM     21  C   UNL     1       1.510   7.839  20.571  0.00  0.00    +0.000 C 
ATOM     22  C   UNL     1       1.262   9.169  21.318  0.00  0.00    +0.000 C 
ATOM     23  O   UNL     1       1.319   9.314  22.521  0.00  0.00    +0.000 OA
ATOM     24  N   UNL     1       1.107  10.096  20.341  0.00  0.00    +0.000 N 
ATOM     25  C   UNL     1       1.335   9.522  19.121  0.00  0.00    +0.000 C 
ATOM     26  O   UNL     1       1.480  10.124  18.065  0.00  0.00    +0.000 OA
ATOM     27  N   UNL     1       1.490   8.171  19.258  0.00  0.00    +0.000 N 
BRANCH  24  28
ATOM     28  C   UNL     1       0.991  11.521  20.557  0.00  0.00    +0.000 C 
BRANCH  28  29
ATOM     29  C   UNL     1      -0.421  11.937  20.899  0.00  0.00    +0.000 A 
ATOM     30  C   UNL     1      -1.383  12.087  19.890  0.00  0.00    +0.000 A 
ATOM     31  C   UNL     1      -2.681  12.492  20.207  0.00  0.00    +0.000 A 
ATOM     32  C   UNL     1      -3.029  12.757  21.530  0.00  0.00    +0.000 A 
ATOM     33  C   UNL     1      -2.083  12.606  22.542  0.00  0.00    +0.000 A 
ATOM     34  C   UNL     1      -0.786  12.197  22.229  0.00  0.00    +0.000 A 
ENDBRANCH  28  29
ENDBRANCH  24  28
ENDBRANCH  19  27
ENDBRANCH   1  19
TORSDOF 5
ENDMDL
MODEL 4
REMARK VINA RESULT:      -8.5      0.759      1.471
REMARK  Name = 
REMARK  5 active torsions:
REMARK  status: ('A' for Active; 'I' for Inactive)
REMARK    1  A    between atoms: N_5  and  C_6
REMARK    2  A    between atoms: C_6  and  C_7
REMARK    3  A    between atoms: N_15  and  C_16
REMARK    4  A    between atoms: C_16  and  C_17
REMARK    5  A    between atoms: C_28  and  C_29
REMARK                            x       y       z     vdW  Elec       q    Type
REMARK                         _______ _______ _______ _____ _____    ______ ____
ROOT
ATOM      1  C   UNL     1       0.492  11.873  20.745  0.00  0.00    +0.000 C 
ATOM      2  O   UNL     1       1.670  12.066  21.071  0.00  0.00    +0.000 OA
ATOM      3  N   UNL     1      -0.384  12.929  20.283  0.00  0.00    +0.000 N 
ATOM      4  C   UNL     1       0.164  14.231  20.562  0.00  0.00    +0.000 A 
ATOM      5  C   UNL     1       0.271  15.317  19.710  0.00  0.00    +0.000 A 
ATOM      6  C   UNL     1       0.906  16.474  20.198  0.00  0.00    +0.000 A 
ATOM      7  C   UNL     1       1.477  16.476  21.480  0.00  0.00    +0.000 A 
ATOM      8  C   UNL     1       1.105  15.485  22.380  0.00  0.00    +0.000 A 
ATOM      9  C   UNL     1       0.219  14.540  21.913  0.00  0.00    +0.000 A 
ATOM     10  O   UNL     1      -0.895  14.178  22.670  0.00  0.00    +0.000 OA
ATOM     11  C   UNL     1      -2.047  14.051  21.748  0.00  0.00    +0.000 C 
ATOM     12  C   UNL     1      -1.783  12.847  20.794  0.00  0.00    +0.000 C 
ENDROOT
BRANCH  12  13
ATOM     13  C   UNL     1      -2.806  12.464  19.721  0.00  0.00    +0.000 A 
ATOM     14  C   UNL     1      -2.440  11.815  18.535  0.00  0.00    +0.000 A 
ATOM     15  C   UNL     1      -3.411  11.254  17.679  0.00  0.00    +0.000 A 
ATOM     16  C   UNL     1      -4.750  11.348  17.977  0.00  0.00    +0.000 A 
ATOM     17  C   UNL     1      -5.139  12.031  19.128  0.00  0.00    +0.000 A 
ATOM     18  C   UNL     1      -4.177  12.573  19.992  0.00  0.00    +0.000 A 
ENDBRANCH  12  13
BRANCH   1  19
ATOM     19  C   UNL     1      -0.093  10.445  20.831  0.00  0.00    +0.000 C 
BRANCH  19  27
ATOM     20  O   UNL     1       0.726  10.621  17.956  0.00  0.00    +0.000 OA
ATOM     21  C   UNL     1       1.000   9.705  18.704  0.00  0.00    +0.000 C 
ATOM     22  C   UNL     1       1.932   8.520  18.364  0.00  0.00    +0.000 C 
ATOM     23  O   UNL     1       2.523   8.377  17.314  0.00  0.00    +0.000 OA
ATOM     24  N   UNL     1       2.016   7.800  19.510  0.00  0.00    +0.000 N 
ATOM     25  C   UNL     1       1.352   8.452  20.512  0.00  0.00    +0.000 C 
ATOM     26  O   UNL     1       1.415   8.179  21.704  0.00  0.00    +0.000 OA
ATOM     27  N   UNL     1       0.685   9.533  20.010  0.00  0.00    +0.000 N 
BRANCH  24  28
ATOM     28  C   UNL     1       2.892   6.670  19.720  0.00  0.00    +0.000 C 
BRANCH  28  29
ATOM     29  C   UNL     1       2.191   5.350  19.497  0.00  0.00    +0.000 A 
ATOM     30  C   UNL     1       1.625   4.654  20.574  0.00  0.00    +0.000 A 
ATOM     31  C   UNL     1       0.996   3.424  20.368  0.00  0.00    +0.000 A 
ATOM     32  C   UNL     1       0.930   2.877  19.089  0.00  0.00    +0.000 A 
ATOM     33  C   UNL     1       1.483   3.563  18.009  0.00  0.00    +0.000 A 
ATOM     34  C   UNL     1       2.109   4.793  18.211  0.00  0.00    +0.000 A 
ENDBRANCH  28  29
ENDBRANCH  24  28
ENDBRANCH  19  27
ENDBRANCH   1  19
TORSDOF 5
ENDMDL
MODEL 5
REMARK VINA RESULT:      -8.2      2.630      8.953
REMARK  Name = 
REMARK  5 active torsions:
REMARK  status: ('A' for Active; 'I' for Inactive)
REMARK    1  A    between atoms: N_5  and  C_6
REMARK    2  A    between atoms: C_6  and  C_7
REMARK    3  A    between atoms: N_15  and  C_16
REMARK    4  A    between atoms: C_16  and  C_17
REMARK    5  A    between atoms: C_28  and  C_29
REMARK                            x       y       z     vdW  Elec       q    Type
REMARK                         _______ _______ _______ _____ _____    ______ ____
ROOT
ATOM      1  C   UNL     1       3.269   7.365  18.125  0.00  0.00    +0.000 C 
ATOM      2  O   UNL     1       3.980   8.298  17.732  0.00  0.00    +0.000 OA
ATOM      3  N   UNL     1       3.808   6.109  18.602  0.00  0.00    +0.000 N 
ATOM      4  C   UNL     1       5.197   5.963  18.258  0.00  0.00    +0.000 A 
ATOM      5  C   UNL     1       6.246   5.569  19.072  0.00  0.00    +0.000 A 
ATOM      6  C   UNL     1       7.539   5.562  18.519  0.00  0.00    +0.000 A 
ATOM      7  C   UNL     1       7.747   6.021  17.208  0.00  0.00    +0.000 A 
ATOM      8  C   UNL     1       6.655   6.134  16.358  0.00  0.00    +0.000 A 
ATOM      9  C   UNL     1       5.428   5.819  16.898  0.00  0.00    +0.000 A 
ATOM     10  O   UNL     1       4.544   4.987  16.212  0.00  0.00    +0.000 OA
ATOM     11  C   UNL     1       3.933   4.065  17.197  0.00  0.00    +0.000 C 
ATOM     12  C   UNL     1       3.048   4.900  18.169  0.00  0.00    +0.000 C 
ENDROOT
BRANCH  12  13
ATOM     13  C   UNL     1       2.280   4.218  19.305  0.00  0.00    +0.000 A 
ATOM     14  C   UNL     1       1.281   3.266  19.066  0.00  0.00    +0.000 A 
ATOM     15  C   UNL     1       0.760   2.475  20.112  0.00  0.00    +0.000 A 
ATOM     16  C   UNL     1       1.206   2.633  21.403  0.00  0.00    +0.000 A 
ATOM     17  C   UNL     1       2.166   3.608  21.670  0.00  0.00    +0.000 A 
ATOM     18  C   UNL     1       2.701   4.382  20.631  0.00  0.00    +0.000 A 
ENDBRANCH  12  13
BRANCH   1  19
ATOM     19  C   UNL     1       1.732   7.526  18.111  0.00  0.00    +0.000 C 
BRANCH  19  27
ATOM     20  O   UNL     1       1.702   7.701  21.100  0.00  0.00    +0.000 OA
ATOM     21  C   UNL     1       1.353   8.586  20.346  0.00  0.00    +0.000 C 
ATOM     22  C   UNL     1       0.953  10.017  20.771  0.00  0.00    +0.000 C 
ATOM     23  O   UNL     1       0.965  10.436  21.910  0.00  0.00    +0.000 OA
ATOM     24  N   UNL     1       0.727  10.678  19.608  0.00  0.00    +0.000 N 
ATOM     25  C   UNL     1       1.043   9.870  18.552  0.00  0.00    +0.000 C 
ATOM     26  O   UNL     1       1.152  10.230  17.386  0.00  0.00    +0.000 OA
ATOM     27  N   UNL     1       1.332   8.609  18.992  0.00  0.00    +0.000 N 
BRANCH  24  28
ATOM     28  C   UNL     1       0.462  12.094  19.495  0.00  0.00    +0.000 C 
BRANCH  28  29
ATOM     29  C   UNL     1       1.727  12.920  19.507  0.00  0.00    +0.000 A 
ATOM     30  C   UNL     1       2.276  13.362  20.718  0.00  0.00    +0.000 A 
ATOM     31  C   UNL     1       3.434  14.143  20.726  0.00  0.00    +0.000 A 
ATOM     32  C   UNL     1       4.051  14.492  19.526  0.00  0.00    +0.000 A 
ATOM     33  C   UNL     1       3.518  14.052  18.316  0.00  0.00    +0.000 A 
ATOM     34  C   UNL     1       2.364  13.269  18.306  0.00  0.00    +0.000 A 
ENDBRANCH  28  29
ENDBRANCH  24  28
ENDBRANCH  19  27
ENDBRANCH   1  19
TORSDOF 5
ENDMDL
MODEL 6
REMARK VINA RESULT:      -8.0      2.358      9.238
REMARK  Name = 
REMARK  5 active torsions:
REMARK  status: ('A' for Active; 'I' for Inactive)
REMARK    1  A    between atoms: N_5  and  C_6
REMARK    2  A    between atoms: C_6  and  C_7
REMARK    3  A    between atoms: N_15  and  C_16
REMARK    4  A    between atoms: C_16  and  C_17
REMARK    5  A    between atoms: C_28  and  C_29
REMARK                            x       y       z     vdW  Elec       q    Type
REMARK                         _______ _______ _______ _____ _____    ______ ____
ROOT
ATOM      1  C   UNL     1       2.320   6.404  17.996  0.00  0.00    +0.000 C 
ATOM      2  O   UNL     1       1.132   6.186  17.724  0.00  0.00    +0.000 OA
ATOM      3  N   UNL     1       3.309   5.354  18.114  0.00  0.00    +0.000 N 
ATOM      4  C   UNL     1       2.695   4.055  18.206  0.00  0.00    +0.000 A 
ATOM      5  C   UNL     1       3.017   2.903  17.510  0.00  0.00    +0.000 A 
ATOM      6  C   UNL     1       2.225   1.761  17.728  0.00  0.00    +0.000 A 
ATOM      7  C   UNL     1       1.101   1.834  18.566  0.00  0.00    +0.000 A 
ATOM      8  C   UNL     1       0.987   2.906  19.441  0.00  0.00    +0.000 A 
ATOM      9  C   UNL     1       1.988   3.850  19.382  0.00  0.00    +0.000 A 
ATOM     10  O   UNL     1       2.591   4.318  20.548  0.00  0.00    +0.000 OA
ATOM     11  C   UNL     1       4.047   4.423  20.295  0.00  0.00    +0.000 C 
ATOM     12  C   UNL     1       4.282   5.536  19.230  0.00  0.00    +0.000 C 
ENDROOT
BRANCH  12  13
ATOM     13  C   UNL     1       5.698   5.879  18.760  0.00  0.00    +0.000 A 
ATOM     14  C   UNL     1       5.941   6.725  17.670  0.00  0.00    +0.000 A 
ATOM     15  C   UNL     1       7.234   7.223  17.405  0.00  0.00    +0.000 A 
ATOM     16  C   UNL     1       8.300   6.873  18.201  0.00  0.00    +0.000 A 
ATOM     17  C   UNL     1       8.089   5.993  19.262  0.00  0.00    +0.000 A 
ATOM     18  C   UNL     1       6.802   5.512  19.542  0.00  0.00    +0.000 A 
ENDBRANCH  12  13
BRANCH   1  19
ATOM     19  C   UNL     1       2.789   7.859  18.228  0.00  0.00    +0.000 C 
BRANCH  19  27
ATOM     20  O   UNL     1       1.803   7.577  21.042  0.00  0.00    +0.000 OA
ATOM     21  C   UNL     1       1.396   8.392  20.239  0.00  0.00    +0.000 C 
ATOM     22  C   UNL     1       0.390   9.525  20.545  0.00  0.00    +0.000 C 
ATOM     23  O   UNL     1      -0.094   9.753  21.634  0.00  0.00    +0.000 OA
ATOM     24  N   UNL     1       0.297  10.231  19.391  0.00  0.00    +0.000 N 
ATOM     25  C   UNL     1       1.189   9.740  18.478  0.00  0.00    +0.000 C 
ATOM     26  O   UNL     1       1.502  10.281  17.424  0.00  0.00    +0.000 OA
ATOM     27  N   UNL     1       1.775   8.602  18.955  0.00  0.00    +0.000 N 
BRANCH  24  28
ATOM     28  C   UNL     1      -0.423  11.475  19.233  0.00  0.00    +0.000 C 
BRANCH  28  29
ATOM     29  C   UNL     1      -1.834  11.262  18.735  0.00  0.00    +0.000 A 
ATOM     30  C   UNL     1      -2.877  12.083  19.184  0.00  0.00    +0.000 A 
ATOM     31  C   UNL     1      -4.184  11.872  18.739  0.00  0.00    +0.000 A 
ATOM     32  C   UNL     1      -4.461  10.838  17.847  0.00  0.00    +0.000 A 
ATOM     33  C   UNL     1      -3.431  10.020  17.389  0.00  0.00    +0.000 A 
ATOM     34  C   UNL     1      -2.124  10.231  17.829  0.00  0.00    +0.000 A 
ENDBRANCH  28  29
ENDBRANCH  24  28
ENDBRANCH  19  27
ENDBRANCH   1  19
TORSDOF 5
ENDMDL
MODEL 7
REMARK VINA RESULT:      -8.0      1.475      4.136
REMARK  Name = 
REMARK  5 active torsions:
REMARK  status: ('A' for Active; 'I' for Inactive)
REMARK    1  A    between atoms: N_5  and  C_6
REMARK    2  A    between atoms: C_6  and  C_7
REMARK    3  A    between atoms: N_15  and  C_16
REMARK    4  A    between atoms: C_16  and  C_17
REMARK    5  A    between atoms: C_28  and  C_29
REMARK                            x       y       z     vdW  Elec       q    Type
REMARK                         _______ _______ _______ _____ _____    ______ ____
ROOT
ATOM      1  C   UNL     1      -0.744  10.112  19.450  0.00  0.00    +0.000 C 
ATOM      2  O   UNL     1      -1.143   9.179  18.743  0.00  0.00    +0.000 OA
ATOM      3  N   UNL     1      -1.494  11.335  19.642  0.00  0.00    +0.000 N 
ATOM      4  C   UNL     1      -2.557  11.462  18.680  0.00  0.00    +0.000 A 
ATOM      5  C   UNL     1      -3.881  11.798  18.903  0.00  0.00    +0.000 A 
ATOM      6  C   UNL     1      -4.754  11.796  17.800  0.00  0.00    +0.000 A 
ATOM      7  C   UNL     1      -4.294  11.385  16.539  0.00  0.00    +0.000 A 
ATOM      8  C   UNL     1      -2.925  11.331  16.311  0.00  0.00    +0.000 A 
ATOM      9  C   UNL     1      -2.117  11.654  17.378  0.00  0.00    +0.000 A 
ATOM     10  O   UNL     1      -1.047  12.533  17.217  0.00  0.00    +0.000 OA
ATOM     11  C   UNL     1      -1.017  13.430  18.396  0.00  0.00    +0.000 C 
ATOM     12  C   UNL     1      -0.669  12.578  19.653  0.00  0.00    +0.000 C 
ENDROOT
BRANCH  12  13
ATOM     13  C   UNL     1      -0.562  13.232  21.033  0.00  0.00    +0.000 A 
ATOM     14  C   UNL     1       0.133  14.430  21.241  0.00  0.00    +0.000 A 
ATOM     15  C   UNL     1       0.016  15.142  22.455  0.00  0.00    +0.000 A 
ATOM     16  C   UNL     1      -0.771  14.665  23.477  0.00  0.00    +0.000 A 
ATOM     17  C   UNL     1      -1.434  13.451  23.308  0.00  0.00    +0.000 A 
ATOM     18  C   UNL     1      -1.337  12.750  22.097  0.00  0.00    +0.000 A 
ENDBRANCH  12  13
BRANCH   1  19
ATOM     19  C   UNL     1       0.620   9.989  20.167  0.00  0.00    +0.000 C 
BRANCH  19  27
ATOM     20  O   UNL     1       2.046  10.012  17.534  0.00  0.00    +0.000 OA
ATOM     21  C   UNL     1       2.040   9.084  18.316  0.00  0.00    +0.000 C 
ATOM     22  C   UNL     1       2.869   7.787  18.171  0.00  0.00    +0.000 C 
ATOM     23  O   UNL     1       3.647   7.554  17.270  0.00  0.00    +0.000 OA
ATOM     24  N   UNL     1       2.618   7.083  19.303  0.00  0.00    +0.000 N 
ATOM     25  C   UNL     1       1.843   7.828  20.146  0.00  0.00    +0.000 C 
ATOM     26  O   UNL     1       1.617   7.571  21.322  0.00  0.00    +0.000 OA
ATOM     27  N   UNL     1       1.436   8.974  19.523  0.00  0.00    +0.000 N 
BRANCH  24  28
ATOM     28  C   UNL     1       3.283   5.857  19.684  0.00  0.00    +0.000 C 
BRANCH  28  29
ATOM     29  C   UNL     1       2.441   4.635  19.403  0.00  0.00    +0.000 A 
ATOM     30  C   UNL     1       1.475   4.209  20.325  0.00  0.00    +0.000 A 
ATOM     31  C   UNL     1       0.712   3.067  20.072  0.00  0.00    +0.000 A 
ATOM     32  C   UNL     1       0.910   2.337  18.902  0.00  0.00    +0.000 A 
ATOM     33  C   UNL     1       1.863   2.755  17.975  0.00  0.00    +0.000 A 
ATOM     34  C   UNL     1       2.624   3.897  18.223  0.00  0.00    +0.000 A 
ENDBRANCH  28  29
ENDBRANCH  24  28
ENDBRANCH  19  27
ENDBRANCH   1  19
TORSDOF 5
ENDMDL
MODEL 8
REMARK VINA RESULT:      -8.0      2.228      8.880
REMARK  Name = 
REMARK  5 active torsions:
REMARK  status: ('A' for Active; 'I' for Inactive)
REMARK    1  A    between atoms: N_5  and  C_6
REMARK    2  A    between atoms: C_6  and  C_7
REMARK    3  A    between atoms: N_15  and  C_16
REMARK    4  A    between atoms: C_16  and  C_17
REMARK    5  A    between atoms: C_28  and  C_29
REMARK                            x       y       z     vdW  Elec       q    Type
REMARK                         _______ _______ _______ _____ _____    ______ ____
ROOT
ATOM      1  C   UNL     1       3.195   7.086  18.487  0.00  0.00    +0.000 C 
ATOM      2  O   UNL     1       3.799   8.113  18.152  0.00  0.00    +0.000 OA
ATOM      3  N   UNL     1       3.865   5.841  18.794  0.00  0.00    +0.000 N 
ATOM      4  C   UNL     1       5.235   5.852  18.352  0.00  0.00    +0.000 A 
ATOM      5  C   UNL     1       6.365   5.472  19.054  0.00  0.00    +0.000 A 
ATOM      6  C   UNL     1       7.614   5.634  18.426  0.00  0.00    +0.000 A 
ATOM      7  C   UNL     1       7.692   6.239  17.161  0.00  0.00    +0.000 A 
ATOM      8  C   UNL     1       6.538   6.341  16.396  0.00  0.00    +0.000 A 
ATOM      9  C   UNL     1       5.381   5.867  16.973  0.00  0.00    +0.000 A 
ATOM     10  O   UNL     1       4.521   5.034  16.258  0.00  0.00    +0.000 OA
ATOM     11  C   UNL     1       4.057   3.967  17.174  0.00  0.00    +0.000 C 
ATOM     12  C   UNL     1       3.177   4.620  18.282  0.00  0.00    +0.000 C 
ENDROOT
BRANCH  12  13
ATOM     13  C   UNL     1       2.548   3.762  19.384  0.00  0.00    +0.000 A 
ATOM     14  C   UNL     1       3.292   3.264  20.461  0.00  0.00    +0.000 A 
ATOM     15  C   UNL     1       2.658   2.690  21.584  0.00  0.00    +0.000 A 
ATOM     16  C   UNL     1       1.288   2.585  21.641  0.00  0.00    +0.000 A 
ATOM     17  C   UNL     1       0.531   3.031  20.559  0.00  0.00    +0.000 A 
ATOM     18  C   UNL     1       1.155   3.621  19.450  0.00  0.00    +0.000 A 
ENDBRANCH  12  13
BRANCH   1  19
ATOM     19  C   UNL     1       1.652   7.113  18.583  0.00  0.00    +0.000 C 
BRANCH  19  27
ATOM     20  O   UNL     1       1.823   7.856  21.479  0.00  0.00    +0.000 OA
ATOM     21  C   UNL     1       1.335   8.548  20.609  0.00  0.00    +0.000 C 
ATOM     22  C   UNL     1       0.828   9.996  20.797  0.00  0.00    +0.000 C 
ATOM     23  O   UNL     1       0.882  10.625  21.833  0.00  0.00    +0.000 OA
ATOM     24  N   UNL     1       0.455  10.400  19.557  0.00  0.00    +0.000 N 
ATOM     25  C   UNL     1       0.770   9.432  18.644  0.00  0.00    +0.000 C 
ATOM     26  O   UNL     1       0.759   9.569  17.427  0.00  0.00    +0.000 OA
ATOM     27  N   UNL     1       1.213   8.308  19.281  0.00  0.00    +0.000 N 
BRANCH  24  28
ATOM     28  C   UNL     1       0.043  11.741  19.208  0.00  0.00    +0.000 C 
BRANCH  28  29
ATOM     29  C   UNL     1      -1.460  11.881  19.138  0.00  0.00    +0.000 A 
ATOM     30  C   UNL     1      -2.176  12.405  20.223  0.00  0.00    +0.000 A 
ATOM     31  C   UNL     1      -3.567  12.515  20.165  0.00  0.00    +0.000 A 
ATOM     32  C   UNL     1      -4.255  12.099  19.027  0.00  0.00    +0.000 A 
ATOM     33  C   UNL     1      -3.553  11.582  17.940  0.00  0.00    +0.000 A 
ATOM     34  C   UNL     1      -2.163  11.475  17.994  0.00  0.00    +0.000 A 
ENDBRANCH  28  29
ENDBRANCH  24  28
ENDBRANCH  19  27
ENDBRANCH   1  19
TORSDOF 5
ENDMDL
MODEL 9
REMARK VINA RESULT:      -7.9      1.368      1.973
REMARK  Name = 
REMARK  5 active torsions:
REMARK  status: ('A' for Active; 'I' for Inactive)
REMARK    1  A    between atoms: N_5  and  C_6
REMARK    2  A    between atoms: C_6  and  C_7
REMARK    3  A    between atoms: N_15  and  C_16
REMARK    4  A    between atoms: C_16  and  C_17
REMARK    5  A    between atoms: C_28  and  C_29
REMARK                            x       y       z     vdW  Elec       q    Type
REMARK                         _______ _______ _______ _____ _____    ______ ____
ROOT
ATOM      1  C   UNL     1       0.217  12.099  20.725  0.00  0.00    +0.000 C 
ATOM      2  O   UNL     1       1.421  12.325  20.552  0.00  0.00    +0.000 OA
ATOM      3  N   UNL     1      -0.788  13.141  20.742  0.00  0.00    +0.000 N 
ATOM      4  C   UNL     1      -0.196  14.447  20.866  0.00  0.00    +0.000 A 
ATOM      5  C   UNL     1      -0.468  15.585  20.127  0.00  0.00    +0.000 A 
ATOM      6  C   UNL     1       0.292  16.739  20.394  0.00  0.00    +0.000 A 
ATOM      7  C   UNL     1       1.342  16.689  21.326  0.00  0.00    +0.000 A 
ATOM      8  C   UNL     1       1.391  15.631  22.223  0.00  0.00    +0.000 A 
ATOM      9  C   UNL     1       0.406  14.677  22.094  0.00  0.00    +0.000 A 
ATOM     10  O   UNL     1      -0.289  14.220  23.212  0.00  0.00    +0.000 OA
ATOM     11  C   UNL     1      -1.717  14.096  22.838  0.00  0.00    +0.000 C 
ATOM     12  C   UNL     1      -1.850  12.965  21.774  0.00  0.00    +0.000 C 
ENDROOT
BRANCH  12  13
ATOM     13  C   UNL     1      -3.218  12.600  21.192  0.00  0.00    +0.000 A 
ATOM     14  C   UNL     1      -4.403  12.724  21.929  0.00  0.00    +0.000 A 
ATOM     15  C   UNL     1      -5.665  12.620  21.307  0.00  0.00    +0.000 A 
ATOM     16  C   UNL     1      -5.767  12.374  19.958  0.00  0.00    +0.000 A 
ATOM     17  C   UNL     1      -4.601  12.200  19.214  0.00  0.00    +0.000 A 
ATOM     18  C   UNL     1      -3.344  12.322  19.824  0.00  0.00    +0.000 A 
ENDBRANCH  12  13
BRANCH   1  19
ATOM     19  C   UNL     1      -0.256  10.643  20.939  0.00  0.00    +0.000 C 
BRANCH  19  27
ATOM     20  O   UNL     1       0.322  10.763  18.003  0.00  0.00    +0.000 OA
ATOM     21  C   UNL     1       0.697   9.884  18.753  0.00  0.00    +0.000 C 
ATOM     22  C   UNL     1       1.652   8.730  18.372  0.00  0.00    +0.000 C 
ATOM     23  O   UNL     1       2.163   8.579  17.282  0.00  0.00    +0.000 OA
ATOM     24  N   UNL     1       1.860   8.051  19.528  0.00  0.00    +0.000 N 
ATOM     25  C   UNL     1       1.248   8.705  20.561  0.00  0.00    +0.000 C 
ATOM     26  O   UNL     1       1.418   8.474  21.751  0.00  0.00    +0.000 OA
ATOM     27  N   UNL     1       0.495   9.740  20.085  0.00  0.00    +0.000 N 
BRANCH  24  28
ATOM     28  C   UNL     1       2.800   6.967  19.698  0.00  0.00    +0.000 C 
BRANCH  28  29
ATOM     29  C   UNL     1       2.154   5.613  19.523  0.00  0.00    +0.000 A 
ATOM     30  C   UNL     1       1.628   4.928  20.627  0.00  0.00    +0.000 A 
ATOM     31  C   UNL     1       1.049   3.666  20.466  0.00  0.00    +0.000 A 
ATOM     32  C   UNL     1       0.995   3.077  19.205  0.00  0.00    +0.000 A 
ATOM     33  C   UNL     1       1.509   3.751  18.099  0.00  0.00    +0.000 A 
ATOM     34  C   UNL     1       2.084   5.012  18.256  0.00  0.00    +0.000 A 
ENDBRANCH  28  29
ENDBRANCH  24  28
ENDBRANCH  19  27
ENDBRANCH   1  19
TORSDOF 5
ENDMDL
