MODEL 1
REMARK VINA RESULT:      -8.6      0.000      0.000
REMARK  Name = 
REMARK  2 active torsions:
REMARK  status: ('A' for Active; 'I' for Inactive)
REMARK    1  A    between atoms: C_7  and  N_8
REMARK    2  A    between atoms: C_9  and  C_11
REMARK                            x       y       z     vdW  Elec       q    Type
REMARK                         _______ _______ _______ _____ _____    ______ ____
ROOT
ATOM      1  N   UNL     1       8.277   9.273  17.623  0.00  0.00    +0.000 N 
ATOM      2  C   UNL     1       8.909  10.040  18.593  0.00  0.00    +0.000 C 
ATOM      3  O   UNL     1       9.099   9.699  19.759  0.00  0.00    +0.000 OA
ATOM      4  H   UNL     1       8.337   9.623  16.671  0.00  0.00    +0.000 HD
ENDROOT
BRANCH   1  11
ATOM      5  O   UNL     1       4.246   2.758  18.394  0.00  0.00    +0.000 OA
ATOM      6  C   UNL     1       4.773   3.817  18.056  0.00  0.00    +0.000 C 
ATOM      7  C   UNL     1       4.320   4.591  16.839  0.00  0.00    +0.000 C 
ATOM      8  C   UNL     1       4.478   6.088  17.038  0.00  0.00    +0.000 C 
ATOM      9  C   UNL     1       5.849   6.414  17.562  0.00  0.00    +0.000 A 
ATOM     10  C   UNL     1       6.438   7.657  17.301  0.00  0.00    +0.000 A 
ATOM     11  C   UNL     1       7.673   8.013  17.857  0.00  0.00    +0.000 A 
ATOM     12  C   UNL     1       8.327   7.086  18.675  0.00  0.00    +0.000 A 
ATOM     13  C   UNL     1       7.730   5.849  18.969  0.00  0.00    +0.000 A 
ATOM     14  C   UNL     1       6.498   5.516  18.407  0.00  0.00    +0.000 A 
ATOM     15  N   UNL     1       5.888   4.291  18.699  0.00  0.00    +0.000 N 
ATOM     16  H   UNL     1       6.261   3.696  19.427  0.00  0.00    +0.000 HD
ENDBRANCH   1  11
BRANCH   2  17
ATOM     17  C   UNL     1       9.430  11.377  18.168  0.00  0.00    +0.000 A 
ATOM     18  C   UNL     1      10.751  11.434  17.733  0.00  0.00    +0.000 A 
ATOM     19  C   UNL     1      11.284  12.660  17.386  0.00  0.00    +0.000 A 
ATOM     20  C   UNL     1      10.492  13.802  17.490  0.00  0.00    +0.000 A 
ATOM     21  C   UNL     1      11.027  15.060  17.171  0.00  0.00    +0.000 A 
ATOM     22  C   UNL     1      10.246  16.204  17.291  0.00  0.00    +0.000 A 
ATOM     23  C   UNL     1       8.928  16.087  17.721  0.00  0.00    +0.000 A 
ATOM     24  C   UNL     1       8.397  14.826  18.030  0.00  0.00    +0.000 A 
ATOM     25  C   UNL     1       9.152  13.661  17.933  0.00  0.00    +0.000 A 
ATOM     26  N   UNL     1       8.613  12.462  18.261  0.00  0.00    +0.000 NA
ENDBRANCH   2  17
TORSDOF 2
ENDMDL
MODEL 2
REMARK VINA RESULT:      -8.5      6.090      8.772
REMARK  Name = 
REMARK  2 active torsions:
REMARK  status: ('A' for Active; 'I' for Inactive)
REMARK    1  A    between atoms: C_7  and  N_8
REMARK    2  A    between atoms: C_9  and  C_11
REMARK                            x       y       z     vdW  Elec       q    Type
REMARK                         _______ _______ _______ _____ _____    ______ ____
ROOT
ATOM      1  N   UNL     1       1.633   7.989  18.651  0.00  0.00    +0.000 N 
ATOM      2  C   UNL     1       1.540   9.262  18.105  0.00  0.00    +0.000 C 
ATOM      3  O   UNL     1       2.420   9.826  17.458  0.00  0.00    +0.000 OA
ATOM      4  H   UNL     1       0.770   7.599  19.020  0.00  0.00    +0.000 HD
ENDROOT
BRANCH   1  11
ATOM      5  O   UNL     1       8.178   4.054  17.676  0.00  0.00    +0.000 OA
ATOM      6  C   UNL     1       7.254   4.863  17.719  0.00  0.00    +0.000 C 
ATOM      7  C   UNL     1       7.310   6.191  16.997  0.00  0.00    +0.000 C 
ATOM      8  C   UNL     1       5.936   6.625  16.520  0.00  0.00    +0.000 C 
ATOM      9  C   UNL     1       4.926   6.511  17.627  0.00  0.00    +0.000 A 
ATOM     10  C   UNL     1       3.793   7.335  17.651  0.00  0.00    +0.000 A 
ATOM     11  C   UNL     1       2.797   7.181  18.622  0.00  0.00    +0.000 A 
ATOM     12  C   UNL     1       2.961   6.189  19.594  0.00  0.00    +0.000 A 
ATOM     13  C   UNL     1       4.077   5.336  19.560  0.00  0.00    +0.000 A 
ATOM     14  C   UNL     1       5.057   5.505  18.582  0.00  0.00    +0.000 A 
ATOM     15  N   UNL     1       6.168   4.657  18.532  0.00  0.00    +0.000 N 
ATOM     16  H   UNL     1       6.205   3.829  19.111  0.00  0.00    +0.000 HD
ENDBRANCH   1  11
BRANCH   2  17
ATOM     17  C   UNL     1       0.245   9.988  18.294  0.00  0.00    +0.000 A 
ATOM     18  C   UNL     1       0.165  10.878  19.360  0.00  0.00    +0.000 A 
ATOM     19  C   UNL     1      -1.031  11.525  19.599  0.00  0.00    +0.000 A 
ATOM     20  C   UNL     1      -2.124  11.262  18.775  0.00  0.00    +0.000 A 
ATOM     21  C   UNL     1      -3.357  11.887  19.021  0.00  0.00    +0.000 A 
ATOM     22  C   UNL     1      -4.455  11.613  18.214  0.00  0.00    +0.000 A 
ATOM     23  C   UNL     1      -4.316  10.723  17.155  0.00  0.00    +0.000 A 
ATOM     24  C   UNL     1      -3.079  10.108  16.908  0.00  0.00    +0.000 A 
ATOM     25  C   UNL     1      -1.962  10.349  17.702  0.00  0.00    +0.000 A 
ATOM     26  N   UNL     1      -0.789   9.720  17.449  0.00  0.00    +0.000 NA
ENDBRANCH   2  17
TORSDOF 2
ENDMDL
MODEL 3
REMARK VINA RESULT:      -8.4      1.700      2.505
REMARK  Name = 
REMARK  2 active torsions:
REMARK  status: ('A' for Active; 'I' for Inactive)
REMARK    1  A    between atoms: C_7  and  N_8
REMARK    2  A    between atoms: C_9  and  C_11
REMARK                            x       y       z     vdW  Elec       q    Type
REMARK                         _______ _______ _______ _____ _____    ______ ____
ROOT
ATOM      1  N   UNL     1       7.100   8.256  17.434  0.00  0.00    +0.000 N 
ATOM      2  C   UNL     1       8.158   8.509  18.296  0.00  0.00    +0.000 C 
ATOM      3  O   UNL     1       8.697   7.679  19.027  0.00  0.00    +0.000 OA
ATOM      4  H   UNL     1       6.870   9.000  16.782  0.00  0.00    +0.000 HD
ENDROOT
BRANCH   1  11
ATOM      5  O   UNL     1       2.686   1.948  17.367  0.00  0.00    +0.000 OA
ATOM      6  C   UNL     1       3.177   3.075  17.374  0.00  0.00    +0.000 C 
ATOM      7  C   UNL     1       2.335   4.321  17.535  0.00  0.00    +0.000 C 
ATOM      8  C   UNL     1       3.087   5.410  18.280  0.00  0.00    +0.000 C 
ATOM      9  C   UNL     1       4.459   5.604  17.697  0.00  0.00    +0.000 A 
ATOM     10  C   UNL     1       5.106   6.843  17.787  0.00  0.00    +0.000 A 
ATOM     11  C   UNL     1       6.419   7.017  17.333  0.00  0.00    +0.000 A 
ATOM     12  C   UNL     1       7.078   5.923  16.763  0.00  0.00    +0.000 A 
ATOM     13  C   UNL     1       6.449   4.668  16.697  0.00  0.00    +0.000 A 
ATOM     14  C   UNL     1       5.142   4.516  17.158  0.00  0.00    +0.000 A 
ATOM     15  N   UNL     1       4.509   3.270  17.107  0.00  0.00    +0.000 N 
ATOM     16  H   UNL     1       5.034   2.439  16.868  0.00  0.00    +0.000 HD
ENDBRANCH   1  11
BRANCH   2  17
ATOM     17  C   UNL     1       8.708   9.902  18.306  0.00  0.00    +0.000 A 
ATOM     18  C   UNL     1       8.048  10.849  17.530  0.00  0.00    +0.000 A 
ATOM     19  C   UNL     1       8.558  12.132  17.471  0.00  0.00    +0.000 A 
ATOM     20  C   UNL     1       9.720  12.436  18.178  0.00  0.00    +0.000 A 
ATOM     21  C   UNL     1      10.270  13.726  18.104  0.00  0.00    +0.000 A 
ATOM     22  C   UNL     1      11.439  14.028  18.793  0.00  0.00    +0.000 A 
ATOM     23  C   UNL     1      12.051  13.045  19.562  0.00  0.00    +0.000 A 
ATOM     24  C   UNL     1      11.492  11.760  19.639  0.00  0.00    +0.000 A 
ATOM     25  C   UNL     1      10.329  11.418  18.954  0.00  0.00    +0.000 A 
ATOM     26  N   UNL     1       9.830  10.161  19.033  0.00  0.00    +0.000 NA
ENDBRANCH   2  17
TORSDOF 2
ENDMDL
MODEL 4
REMARK VINA RESULT:      -8.3      6.249      8.470
REMARK  Name = 
REMARK  2 active torsions:
REMARK  status: ('A' for Active; 'I' for Inactive)
REMARK    1  A    between atoms: C_7  and  N_8
REMARK    2  A    between atoms: C_9  and  C_11
REMARK                            x       y       z     vdW  Elec       q    Type
REMARK                         _______ _______ _______ _____ _____    ______ ____
ROOT
ATOM      1  N   UNL     1       1.888   7.384  19.619  0.00  0.00    +0.000 N 
ATOM      2  C   UNL     1       1.460   8.663  19.294  0.00  0.00    +0.000 C 
ATOM      3  O   UNL     1       1.618   9.212  18.205  0.00  0.00    +0.000 OA
ATOM      4  H   UNL     1       1.545   7.010  20.500  0.00  0.00    +0.000 HD
ENDROOT
BRANCH   1  11
ATOM      5  O   UNL     1       6.610   3.624  14.840  0.00  0.00    +0.000 OA
ATOM      6  C   UNL     1       6.056   4.356  15.657  0.00  0.00    +0.000 C 
ATOM      7  C   UNL     1       6.743   5.563  16.255  0.00  0.00    +0.000 C 
ATOM      8  C   UNL     1       5.757   6.681  16.544  0.00  0.00    +0.000 C 
ATOM      9  C   UNL     1       4.561   6.158  17.289  0.00  0.00    +0.000 A 
ATOM     10  C   UNL     1       3.827   6.993  18.141  0.00  0.00    +0.000 A 
ATOM     11  C   UNL     1       2.657   6.549  18.771  0.00  0.00    +0.000 A 
ATOM     12  C   UNL     1       2.238   5.234  18.547  0.00  0.00    +0.000 A 
ATOM     13  C   UNL     1       2.948   4.399  17.669  0.00  0.00    +0.000 A 
ATOM     14  C   UNL     1       4.109   4.861  17.049  0.00  0.00    +0.000 A 
ATOM     15  N   UNL     1       4.821   4.043  16.166  0.00  0.00    +0.000 N 
ATOM     16  H   UNL     1       4.429   3.163  15.858  0.00  0.00    +0.000 HD
ENDBRANCH   1  11
BRANCH   2  17
ATOM     17  C   UNL     1       0.711   9.417  20.349  0.00  0.00    +0.000 A 
ATOM     18  C   UNL     1       0.792   8.936  21.651  0.00  0.00    +0.000 A 
ATOM     19  C   UNL     1       0.071   9.573  22.642  0.00  0.00    +0.000 A 
ATOM     20  C   UNL     1      -0.723  10.669  22.308  0.00  0.00    +0.000 A 
ATOM     21  C   UNL     1      -1.488  11.309  23.297  0.00  0.00    +0.000 A 
ATOM     22  C   UNL     1      -2.296  12.391  22.965  0.00  0.00    +0.000 A 
ATOM     23  C   UNL     1      -2.330  12.837  21.649  0.00  0.00    +0.000 A 
ATOM     24  C   UNL     1      -1.557  12.198  20.667  0.00  0.00    +0.000 A 
ATOM     25  C   UNL     1      -0.746  11.106  20.960  0.00  0.00    +0.000 A 
ATOM     26  N   UNL     1      -0.031  10.499  19.982  0.00  0.00    +0.000 NA
ENDBRANCH   2  17
TORSDOF 2
ENDMDL
MODEL 5
REMARK VINA RESULT:      -8.2      6.510     10.746
REMARK  Name = 
REMARK  2 active torsions:
REMARK  status: ('A' for Active; 'I' for Inactive)
REMARK    1  A    between atoms: C_7  and  N_8
REMARK    2  A    between atoms: C_9  and  C_11
REMARK                            x       y       z     vdW  Elec       q    Type
REMARK                         _______ _______ _______ _____ _____    ______ ____
ROOT
ATOM      1  N   UNL     1       1.406   9.170  19.286  0.00  0.00    +0.000 N 
ATOM      2  C   UNL     1       2.132   8.485  18.321  0.00  0.00    +0.000 C 
ATOM      3  O   UNL     1       2.462   8.934  17.225  0.00  0.00    +0.000 OA
ATOM      4  H   UNL     1       1.350   8.725  20.198  0.00  0.00    +0.000 HD
ENDROOT
BRANCH   1  11
ATOM      5  O   UNL     1      -0.762  16.536  18.731  0.00  0.00    +0.000 OA
ATOM      6  C   UNL     1      -0.190  15.449  18.784  0.00  0.00    +0.000 C 
ATOM      7  C   UNL     1       1.317  15.331  18.810  0.00  0.00    +0.000 C 
ATOM      8  C   UNL     1       1.770  14.136  19.630  0.00  0.00    +0.000 C 
ATOM      9  C   UNL     1       1.011  12.900  19.235  0.00  0.00    +0.000 A 
ATOM     10  C   UNL     1       1.581  11.630  19.391  0.00  0.00    +0.000 A 
ATOM     11  C   UNL     1       0.856  10.464  19.115  0.00  0.00    +0.000 A 
ATOM     12  C   UNL     1      -0.459  10.590  18.658  0.00  0.00    +0.000 A 
ATOM     13  C   UNL     1      -1.051  11.858  18.529  0.00  0.00    +0.000 A 
ATOM     14  C   UNL     1      -0.312  13.006  18.812  0.00  0.00    +0.000 A 
ATOM     15  N   UNL     1      -0.892  14.274  18.696  0.00  0.00    +0.000 N 
ATOM     16  H   UNL     1      -1.888  14.368  18.545  0.00  0.00    +0.000 HD
ENDBRANCH   1  11
BRANCH   2  17
ATOM     17  C   UNL     1       2.577   7.097  18.664  0.00  0.00    +0.000 A 
ATOM     18  C   UNL     1       3.439   6.468  17.771  0.00  0.00    +0.000 A 
ATOM     19  C   UNL     1       3.827   5.167  18.025  0.00  0.00    +0.000 A 
ATOM     20  C   UNL     1       3.337   4.520  19.158  0.00  0.00    +0.000 A 
ATOM     21  C   UNL     1       3.696   3.187  19.416  0.00  0.00    +0.000 A 
ATOM     22  C   UNL     1       3.195   2.531  20.534  0.00  0.00    +0.000 A 
ATOM     23  C   UNL     1       2.344   3.211  21.399  0.00  0.00    +0.000 A 
ATOM     24  C   UNL     1       1.996   4.546  21.141  0.00  0.00    +0.000 A 
ATOM     25  C   UNL     1       2.469   5.231  20.025  0.00  0.00    +0.000 A 
ATOM     26  N   UNL     1       2.094   6.512  19.794  0.00  0.00    +0.000 NA
ENDBRANCH   2  17
TORSDOF 2
ENDMDL
MODEL 6
REMARK VINA RESULT:      -8.2      6.636      9.907
REMARK  Name = 
REMARK  2 active torsions:
REMARK  status: ('A' for Active; 'I' for Inactive)
REMARK    1  A    between atoms: C_7  and  N_8
REMARK    2  A    between atoms: C_9  and  C_11
REMARK                            x       y       z     vdW  Elec       q    Type
REMARK                         _______ _______ _______ _____ _____    ______ ____
ROOT
ATOM      1  N   UNL     1       1.577   7.944  20.072  0.00  0.00    +0.000 N 
ATOM      2  C   UNL     1       2.118   8.160  18.812  0.00  0.00    +0.000 C 
ATOM      3  O   UNL     1       2.090   9.224  18.196  0.00  0.00    +0.000 OA
ATOM      4  H   UNL     1       1.819   7.062  20.515  0.00  0.00    +0.000 HD
ENDROOT
BRANCH   1  11
ATOM      5  O   UNL     1      -2.655  13.563  23.203  0.00  0.00    +0.000 OA
ATOM      6  C   UNL     1      -2.125  12.697  22.509  0.00  0.00    +0.000 C 
ATOM      7  C   UNL     1      -2.477  12.505  21.051  0.00  0.00    +0.000 C 
ATOM      8  C   UNL     1      -1.280  12.034  20.245  0.00  0.00    +0.000 C 
ATOM      9  C   UNL     1      -0.602  10.877  20.924  0.00  0.00    +0.000 A 
ATOM     10  C   UNL     1       0.115   9.931  20.181  0.00  0.00    +0.000 A 
ATOM     11  C   UNL     1       0.829   8.900  20.804  0.00  0.00    +0.000 A 
ATOM     12  C   UNL     1       0.800   8.818  22.199  0.00  0.00    +0.000 A 
ATOM     13  C   UNL     1       0.112   9.781  22.956  0.00  0.00    +0.000 A 
ATOM     14  C   UNL     1      -0.591  10.802  22.316  0.00  0.00    +0.000 A 
ATOM     15  N   UNL     1      -1.273  11.772  23.057  0.00  0.00    +0.000 N 
ATOM     16  H   UNL     1      -1.149  11.829  24.059  0.00  0.00    +0.000 HD
ENDBRANCH   1  11
BRANCH   2  17
ATOM     17  C   UNL     1       2.823   7.006  18.169  0.00  0.00    +0.000 A 
ATOM     18  C   UNL     1       2.325   5.733  18.431  0.00  0.00    +0.000 A 
ATOM     19  C   UNL     1       2.982   4.640  17.900  0.00  0.00    +0.000 A 
ATOM     20  C   UNL     1       4.127   4.841  17.130  0.00  0.00    +0.000 A 
ATOM     21  C   UNL     1       4.826   3.740  16.609  0.00  0.00    +0.000 A 
ATOM     22  C   UNL     1       5.979   3.936  15.857  0.00  0.00    +0.000 A 
ATOM     23  C   UNL     1       6.425   5.231  15.618  0.00  0.00    +0.000 A 
ATOM     24  C   UNL     1       5.718   6.327  16.134  0.00  0.00    +0.000 A 
ATOM     25  C   UNL     1       4.567   6.170  16.901  0.00  0.00    +0.000 A 
ATOM     26  N   UNL     1       3.922   7.250  17.403  0.00  0.00    +0.000 NA
ENDBRANCH   2  17
TORSDOF 2
ENDMDL
MODEL 7
REMARK VINA RESULT:      -8.1      6.297      9.736
REMARK  Name = 
REMARK  2 active torsions:
REMARK  status: ('A' for Active; 'I' for Inactive)
REMARK    1  A    between atoms: C_7  and  N_8
REMARK    2  A    between atoms: C_9  and  C_11
REMARK                            x       y       z     vdW  Elec       q    Type
REMARK                         _______ _______ _______ _____ _____    ______ ____
ROOT
ATOM      1  N   UNL     1       1.891   8.003  19.510  0.00  0.00    +0.000 N 
ATOM      2  C   UNL     1       2.104   6.644  19.698  0.00  0.00    +0.000 C 
ATOM      3  O   UNL     1       1.616   5.964  20.598  0.00  0.00    +0.000 OA
ATOM      4  H   UNL     1       2.233   8.390  18.634  0.00  0.00    +0.000 HD
ENDROOT
BRANCH   1  11
ATOM      5  O   UNL     1      -2.363  13.036  23.490  0.00  0.00    +0.000 OA
ATOM      6  C   UNL     1      -1.838  12.284  22.672  0.00  0.00    +0.000 C 
ATOM      7  C   UNL     1      -2.239  12.272  21.214  0.00  0.00    +0.000 C 
ATOM      8  C   UNL     1      -1.061  11.947  20.313  0.00  0.00    +0.000 C 
ATOM      9  C   UNL     1      -0.329  10.732  20.812  0.00  0.00    +0.000 A 
ATOM     10  C   UNL     1       0.383   9.913  19.927  0.00  0.00    +0.000 A 
ATOM     11  C   UNL     1       1.147   8.832  20.385  0.00  0.00    +0.000 A 
ATOM     12  C   UNL     1       1.172   8.568  21.758  0.00  0.00    +0.000 A 
ATOM     13  C   UNL     1       0.488   9.404  22.657  0.00  0.00    +0.000 A 
ATOM     14  C   UNL     1      -0.264  10.477  22.180  0.00  0.00    +0.000 A 
ATOM     15  N   UNL     1      -0.942  11.322  23.065  0.00  0.00    +0.000 N 
ATOM     16  H   UNL     1      -0.783  11.252  24.061  0.00  0.00    +0.000 HD
ENDBRANCH   1  11
BRANCH   2  17
ATOM     17  C   UNL     1       2.975   5.948  18.697  0.00  0.00    +0.000 A 
ATOM     18  C   UNL     1       2.544   4.709  18.234  0.00  0.00    +0.000 A 
ATOM     19  C   UNL     1       3.347   4.013  17.352  0.00  0.00    +0.000 A 
ATOM     20  C   UNL     1       4.567   4.563  16.962  0.00  0.00    +0.000 A 
ATOM     21  C   UNL     1       5.411   3.855  16.091  0.00  0.00    +0.000 A 
ATOM     22  C   UNL     1       6.637   4.391  15.715  0.00  0.00    +0.000 A 
ATOM     23  C   UNL     1       7.012   5.639  16.200  0.00  0.00    +0.000 A 
ATOM     24  C   UNL     1       6.161   6.345  17.063  0.00  0.00    +0.000 A 
ATOM     25  C   UNL     1       4.932   5.835  17.471  0.00  0.00    +0.000 A 
ATOM     26  N   UNL     1       4.146   6.534  18.324  0.00  0.00    +0.000 NA
ENDBRANCH   2  17
TORSDOF 2
ENDMDL
MODEL 8
REMARK VINA RESULT:      -8.1      6.184      8.521
REMARK  Name = 
REMARK  2 active torsions:
REMARK  status: ('A' for Active; 'I' for Inactive)
REMARK    1  A    between atoms: C_7  and  N_8
REMARK    2  A    between atoms: C_9  and  C_11
REMARK                            x       y       z     vdW  Elec       q    Type
REMARK                         _______ _______ _______ _____ _____    ______ ____
ROOT
ATOM      1  N   UNL     1       1.610   7.906  18.846  0.00  0.00    +0.000 N 
ATOM      2  C   UNL     1       1.429   9.121  18.199  0.00  0.00    +0.000 C 
ATOM      3  O   UNL     1       2.220   9.632  17.408  0.00  0.00    +0.000 OA
ATOM      4  H   UNL     1       0.802   7.542  19.343  0.00  0.00    +0.000 HD
ENDROOT
BRANCH   1  11
ATOM      5  O   UNL     1       8.168   4.079  17.576  0.00  0.00    +0.000 OA
ATOM      6  C   UNL     1       7.237   4.876  17.669  0.00  0.00    +0.000 C 
ATOM      7  C   UNL     1       7.261   6.228  16.991  0.00  0.00    +0.000 C 
ATOM      8  C   UNL     1       5.871   6.662  16.563  0.00  0.00    +0.000 C 
ATOM      9  C   UNL     1       4.891   6.500  17.691  0.00  0.00    +0.000 A 
ATOM     10  C   UNL     1       3.751   7.310  17.770  0.00  0.00    +0.000 A 
ATOM     11  C   UNL     1       2.781   7.112  18.760  0.00  0.00    +0.000 A 
ATOM     12  C   UNL     1       2.980   6.091  19.694  0.00  0.00    +0.000 A 
ATOM     13  C   UNL     1       4.103   5.252  19.604  0.00  0.00    +0.000 A 
ATOM     14  C   UNL     1       5.056   5.464  18.608  0.00  0.00    +0.000 A 
ATOM     15  N   UNL     1       6.174   4.630  18.501  0.00  0.00    +0.000 N 
ATOM     16  H   UNL     1       6.234   3.784  19.051  0.00  0.00    +0.000 HD
ENDBRANCH   1  11
BRANCH   2  17
ATOM     17  C   UNL     1       0.147   9.847  18.464  0.00  0.00    +0.000 A 
ATOM     18  C   UNL     1      -0.821   9.812  17.465  0.00  0.00    +0.000 A 
ATOM     19  C   UNL     1      -1.994  10.516  17.651  0.00  0.00    +0.000 A 
ATOM     20  C   UNL     1      -2.171  11.248  18.824  0.00  0.00    +0.000 A 
ATOM     21  C   UNL     1      -3.345  11.995  19.016  0.00  0.00    +0.000 A 
ATOM     22  C   UNL     1      -3.517  12.742  20.176  0.00  0.00    +0.000 A 
ATOM     23  C   UNL     1      -2.521  12.732  21.146  0.00  0.00    +0.000 A 
ATOM     24  C   UNL     1      -1.355  11.977  20.953  0.00  0.00    +0.000 A 
ATOM     25  C   UNL     1      -1.143  11.227  19.799  0.00  0.00    +0.000 A 
ATOM     26  N   UNL     1       0.006  10.528  19.635  0.00  0.00    +0.000 NA
ENDBRANCH   2  17
TORSDOF 2
ENDMDL
MODEL 9
REMARK VINA RESULT:      -8.1      6.102     10.013
REMARK  Name = 
REMARK  2 active torsions:
REMARK  status: ('A' for Active; 'I' for Inactive)
REMARK    1  A    between atoms: C_7  and  N_8
REMARK    2  A    between atoms: C_9  and  C_11
REMARK                            x       y       z     vdW  Elec       q    Type
REMARK                         _______ _______ _______ _____ _____    ______ ____
ROOT
ATOM      1  N   UNL     1       1.493   9.053  17.867  0.00  0.00    +0.000 N 
ATOM      2  C   UNL     1       2.012   8.103  18.735  0.00  0.00    +0.000 C 
ATOM      3  O   UNL     1       1.874   8.102  19.957  0.00  0.00    +0.000 OA
ATOM      4  H   UNL     1       1.555   8.832  16.877  0.00  0.00    +0.000 HD
ENDROOT
BRANCH   1  11
ATOM      5  O   UNL     1      -1.420  15.772  20.243  0.00  0.00    +0.000 OA
ATOM      6  C   UNL     1      -0.765  14.835  19.790  0.00  0.00    +0.000 C 
ATOM      7  C   UNL     1       0.662  15.002  19.319  0.00  0.00    +0.000 C 
ATOM      8  C   UNL     1       1.481  13.747  19.564  0.00  0.00    +0.000 C 
ATOM      9  C   UNL     1       0.753  12.531  19.065  0.00  0.00    +0.000 A 
ATOM     10  C   UNL     1       1.459  11.394  18.650  0.00  0.00    +0.000 A 
ATOM     11  C   UNL     1       0.798  10.220  18.270  0.00  0.00    +0.000 A 
ATOM     12  C   UNL     1      -0.600  10.206  18.294  0.00  0.00    +0.000 A 
ATOM     13  C   UNL     1      -1.317  11.329  18.739  0.00  0.00    +0.000 A 
ATOM     14  C   UNL     1      -0.639  12.488  19.116  0.00  0.00    +0.000 A 
ATOM     15  N   UNL     1      -1.340  13.609  19.570  0.00  0.00    +0.000 N 
ATOM     16  H   UNL     1      -2.330  13.548  19.764  0.00  0.00    +0.000 HD
ENDBRANCH   1  11
BRANCH   2  17
ATOM     17  C   UNL     1       2.774   6.968  18.123  0.00  0.00    +0.000 A 
ATOM     18  C   UNL     1       2.273   5.686  18.325  0.00  0.00    +0.000 A 
ATOM     19  C   UNL     1       2.978   4.610  17.823  0.00  0.00    +0.000 A 
ATOM     20  C   UNL     1       4.172   4.836  17.140  0.00  0.00    +0.000 A 
ATOM     21  C   UNL     1       4.918   3.753  16.650  0.00  0.00    +0.000 A 
ATOM     22  C   UNL     1       6.119   3.973  15.985  0.00  0.00    +0.000 A 
ATOM     23  C   UNL     1       6.566   5.277  15.802  0.00  0.00    +0.000 A 
ATOM     24  C   UNL     1       5.812   6.356  16.287  0.00  0.00    +0.000 A 
ATOM     25  C   UNL     1       4.612   6.173  16.967  0.00  0.00    +0.000 A 
ATOM     26  N   UNL     1       3.921   7.238  17.442  0.00  0.00    +0.000 NA
ENDBRANCH   2  17
TORSDOF 2
ENDMDL
