MODEL 1
REMARK VINA RESULT:      -9.1      0.000      0.000
REMARK  Name = 
REMARK  8 active torsions:
REMARK  status: ('A' for Active; 'I' for Inactive)
REMARK    1  A    between atoms: C_1  and  C_2
REMARK    2  A    between atoms: C_2  and  C_3
REMARK    3  A    between atoms: C_2  and  C_10
REMARK    4  A    between atoms: C_3  and  C_4
REMARK    5  A    between atoms: N_8  and  C_9
REMARK    6  A    between atoms: C_14  and  N_15
REMARK    7  A    between atoms: C_16  and  C_18
REMARK    8  A    between atoms: C_23  and  C_24
REMARK                            x       y       z     vdW  Elec       q    Type
REMARK                         _______ _______ _______ _____ _____    ______ ____
ROOT
ATOM      1  N   UNL     1       0.162   9.669  21.453  0.00  0.00    +0.000 N 
ATOM      2  C   UNL     1      -0.194  11.009  21.631  0.00  0.00    +0.000 C 
ATOM      3  O   UNL     1      -0.749  11.347  22.677  0.00  0.00    +0.000 OA
ATOM      4  H   UNL     1       0.208   9.176  22.334  0.00  0.00    +0.000 HD
ENDROOT
BRANCH   1   9
ATOM      5  C   UNL     1       2.291   7.323  19.494  0.00  0.00    +0.000 A 
ATOM      6  C   UNL     1       2.297   7.983  18.254  0.00  0.00    +0.000 A 
ATOM      7  C   UNL     1       1.571   9.162  18.057  0.00  0.00    +0.000 A 
ATOM      8  C   UNL     1       0.851   9.730  19.106  0.00  0.00    +0.000 A 
ATOM      9  C   UNL     1       0.836   9.102  20.352  0.00  0.00    +0.000 A 
ATOM     10  C   UNL     1       1.508   7.882  20.525  0.00  0.00    +0.000 A 
BRANCH   5  12
ATOM     11  C   UNL     1       2.308   4.969  20.538  0.00  0.00    +0.000 C 
ATOM     12  C   UNL     1       3.092   6.039  19.753  0.00  0.00    +0.000 C 
BRANCH  12  13
ATOM     13  C   UNL     1       3.647   5.444  18.432  0.00  0.00    +0.000 C 
BRANCH  13  14
ATOM     14  C   UNL     1       5.123   5.202  18.469  0.00  0.00    +0.000 A 
ATOM     15  N   UNL     1       5.918   5.394  19.499  0.00  0.00    +0.000 NA
ATOM     16  N   UNL     1       7.196   5.076  19.122  0.00  0.00    +0.000 NA
ATOM     17  C   UNL     1       7.161   4.680  17.875  0.00  0.00    +0.000 A 
ATOM     18  N   UNL     1       5.880   4.735  17.425  0.00  0.00    +0.000 N 
ATOM     19  C   UNL     1       5.435   4.362  16.109  0.00  0.00    +0.000 C 
ENDBRANCH  13  14
ENDBRANCH  12  13
ENDBRANCH   5  12
ENDBRANCH   1   9
BRANCH   2  20
ATOM     20  C   UNL     1       0.276  12.051  20.655  0.00  0.00    +0.000 A 
ATOM     21  N   UNL     1       1.605  12.361  20.786  0.00  0.00    +0.000 NA
ATOM     22  C   UNL     1       2.148  13.244  19.931  0.00  0.00    +0.000 A 
ATOM     23  C   UNL     1       1.430  13.860  18.932  0.00  0.00    +0.000 A 
ATOM     24  C   UNL     1       0.071  13.572  18.828  0.00  0.00    +0.000 A 
ATOM     25  C   UNL     1      -0.548  12.719  19.755  0.00  0.00    +0.000 A 
BRANCH  25  26
ATOM     26  C   UNL     1      -2.016  12.548  19.708  0.00  0.00    +0.000 C 
ATOM     27  O   UNL     1      -2.671  13.082  20.600  0.00  0.00    +0.000 OA
ATOM     28  N   UNL     1      -2.592  11.761  18.691  0.00  0.00    +0.000 N 
ATOM     29  C   UNL     1      -1.873  10.924  17.722  0.00  0.00    +0.000 C 
ATOM     30  C   UNL     1      -2.442  11.019  16.312  0.00  0.00    +0.000 C 
ATOM     31  C   UNL     1      -3.950  10.823  16.286  0.00  0.00    +0.000 C 
ATOM     32  C   UNL     1      -4.636  11.749  17.284  0.00  0.00    +0.000 C 
ATOM     33  F   UNL     1      -5.962  11.444  17.304  0.00  0.00    +0.000 F 
ATOM     34  C   UNL     1      -4.050  11.583  18.688  0.00  0.00    +0.000 C 
ENDBRANCH  25  26
ENDBRANCH   2  20
TORSDOF 6
ENDMDL
MODEL 2
REMARK VINA RESULT:      -8.9      1.639      2.347
REMARK  Name = 
REMARK  8 active torsions:
REMARK  status: ('A' for Active; 'I' for Inactive)
REMARK    1  A    between atoms: C_1  and  C_2
REMARK    2  A    between atoms: C_2  and  C_3
REMARK    3  A    between atoms: C_2  and  C_10
REMARK    4  A    between atoms: C_3  and  C_4
REMARK    5  A    between atoms: N_8  and  C_9
REMARK    6  A    between atoms: C_14  and  N_15
REMARK    7  A    between atoms: C_16  and  C_18
REMARK    8  A    between atoms: C_23  and  C_24
REMARK                            x       y       z     vdW  Elec       q    Type
REMARK                         _______ _______ _______ _____ _____    ______ ____
ROOT
ATOM      1  N   UNL     1       0.375   9.705  21.574  0.00  0.00    +0.000 N 
ATOM      2  C   UNL     1       0.072  11.060  21.741  0.00  0.00    +0.000 C 
ATOM      3  O   UNL     1      -0.407  11.438  22.811  0.00  0.00    +0.000 OA
ATOM      4  H   UNL     1       0.459   9.230  22.462  0.00  0.00    +0.000 HD
ENDROOT
BRANCH   1   9
ATOM      5  C   UNL     1       2.280   7.234  19.541  0.00  0.00    +0.000 A 
ATOM      6  C   UNL     1       2.257   7.879  18.294  0.00  0.00    +0.000 A 
ATOM      7  C   UNL     1       1.581   9.091  18.118  0.00  0.00    +0.000 A 
ATOM      8  C   UNL     1       0.946   9.706  19.195  0.00  0.00    +0.000 A 
ATOM      9  C   UNL     1       0.962   9.093  20.448  0.00  0.00    +0.000 A 
ATOM     10  C   UNL     1       1.581   7.843  20.603  0.00  0.00    +0.000 A 
BRANCH   5  12
ATOM     11  C   UNL     1       2.261   4.918  20.668  0.00  0.00    +0.000 C 
ATOM     12  C   UNL     1       3.029   5.913  19.777  0.00  0.00    +0.000 C 
BRANCH  12  13
ATOM     13  C   UNL     1       3.426   5.244  18.435  0.00  0.00    +0.000 C 
BRANCH  13  14
ATOM     14  C   UNL     1       4.905   5.096  18.265  0.00  0.00    +0.000 A 
ATOM     15  N   UNL     1       5.707   4.368  19.014  0.00  0.00    +0.000 NA
ATOM     16  N   UNL     1       6.985   4.515  18.545  0.00  0.00    +0.000 NA
ATOM     17  C   UNL     1       6.945   5.315  17.509  0.00  0.00    +0.000 A 
ATOM     18  N   UNL     1       5.660   5.699  17.292  0.00  0.00    +0.000 N 
ATOM     19  C   UNL     1       5.209   6.562  16.234  0.00  0.00    +0.000 C 
ENDBRANCH  13  14
ENDBRANCH  12  13
ENDBRANCH   5  12
ENDBRANCH   1   9
BRANCH   2  20
ATOM     20  C   UNL     1       0.514  12.064  20.715  0.00  0.00    +0.000 A 
ATOM     21  N   UNL     1       1.803  12.493  20.891  0.00  0.00    +0.000 NA
ATOM     22  C   UNL     1       2.324  13.355  20.001  0.00  0.00    +0.000 A 
ATOM     23  C   UNL     1       1.618  13.835  18.921  0.00  0.00    +0.000 A 
ATOM     24  C   UNL     1       0.295  13.428  18.769  0.00  0.00    +0.000 A 
ATOM     25  C   UNL     1      -0.308  12.594  19.724  0.00  0.00    +0.000 A 
BRANCH  25  26
ATOM     26  C   UNL     1      -1.752  12.298  19.614  0.00  0.00    +0.000 C 
ATOM     27  O   UNL     1      -2.087  11.437  18.805  0.00  0.00    +0.000 OA
ATOM     28  N   UNL     1      -2.672  13.031  20.390  0.00  0.00    +0.000 N 
ATOM     29  C   UNL     1      -2.376  14.209  21.215  0.00  0.00    +0.000 C 
ATOM     30  C   UNL     1      -3.088  14.190  22.562  0.00  0.00    +0.000 C 
ATOM     31  C   UNL     1      -4.575  13.901  22.422  0.00  0.00    +0.000 C 
ATOM     32  C   UNL     1      -4.809  12.645  21.591  0.00  0.00    +0.000 C 
ATOM     33  F   UNL     1      -6.149  12.508  21.398  0.00  0.00    +0.000 F 
ATOM     34  C   UNL     1      -4.103  12.737  20.237  0.00  0.00    +0.000 C 
ENDBRANCH  25  26
ENDBRANCH   2  20
TORSDOF 6
ENDMDL
MODEL 3
REMARK VINA RESULT:      -8.8      2.076      2.894
REMARK  Name = 
REMARK  8 active torsions:
REMARK  status: ('A' for Active; 'I' for Inactive)
REMARK    1  A    between atoms: C_1  and  C_2
REMARK    2  A    between atoms: C_2  and  C_3
REMARK    3  A    between atoms: C_2  and  C_10
REMARK    4  A    between atoms: C_3  and  C_4
REMARK    5  A    between atoms: N_8  and  C_9
REMARK    6  A    between atoms: C_14  and  N_15
REMARK    7  A    between atoms: C_16  and  C_18
REMARK    8  A    between atoms: C_23  and  C_24
REMARK                            x       y       z     vdW  Elec       q    Type
REMARK                         _______ _______ _______ _____ _____    ______ ____
ROOT
ATOM      1  N   UNL     1       0.336   9.539  21.489  0.00  0.00    +0.000 N 
ATOM      2  C   UNL     1       0.061  10.831  21.944  0.00  0.00    +0.000 C 
ATOM      3  O   UNL     1      -0.328  10.988  23.103  0.00  0.00    +0.000 OA
ATOM      4  H   UNL     1       0.486   8.897  22.257  0.00  0.00    +0.000 HD
ENDROOT
BRANCH   1   9
ATOM      5  C   UNL     1       2.275   7.688  18.903  0.00  0.00    +0.000 A 
ATOM      6  C   UNL     1       1.935   8.438  17.766  0.00  0.00    +0.000 A 
ATOM      7  C   UNL     1       1.042   9.512  17.846  0.00  0.00    +0.000 A 
ATOM      8  C   UNL     1       0.497   9.885  19.073  0.00  0.00    +0.000 A 
ATOM      9  C   UNL     1       0.825   9.164  20.221  0.00  0.00    +0.000 A 
ATOM     10  C   UNL     1       1.666   8.044  20.125  0.00  0.00    +0.000 A 
BRANCH   5  12
ATOM     11  C   UNL     1       2.591   5.136  18.762  0.00  0.00    +0.000 C 
ATOM     12  C   UNL     1       3.268   6.517  18.858  0.00  0.00    +0.000 C 
BRANCH  12  13
ATOM     13  C   UNL     1       4.298   6.696  17.712  0.00  0.00    +0.000 C 
BRANCH  13  14
ATOM     14  C   UNL     1       5.524   5.855  17.884  0.00  0.00    +0.000 A 
ATOM     15  N   UNL     1       6.099   5.541  19.026  0.00  0.00    +0.000 NA
ATOM     16  N   UNL     1       7.202   4.776  18.756  0.00  0.00    +0.000 NA
ATOM     17  C   UNL     1       7.277   4.620  17.458  0.00  0.00    +0.000 A 
ATOM     18  N   UNL     1       6.240   5.273  16.870  0.00  0.00    +0.000 N 
ATOM     19  C   UNL     1       5.969   5.320  15.458  0.00  0.00    +0.000 C 
ENDBRANCH  13  14
ENDBRANCH  12  13
ENDBRANCH   5  12
ENDBRANCH   1   9
BRANCH   2  20
ATOM     20  C   UNL     1       0.430  12.021  21.104  0.00  0.00    +0.000 A 
ATOM     21  N   UNL     1       1.766  12.322  21.141  0.00  0.00    +0.000 NA
ATOM     22  C   UNL     1       2.220  13.337  20.386  0.00  0.00    +0.000 A 
ATOM     23  C   UNL     1       1.402  14.097  19.580  0.00  0.00    +0.000 A 
ATOM     24  C   UNL     1       0.039  13.813  19.577  0.00  0.00    +0.000 A 
ATOM     25  C   UNL     1      -0.483  12.815  20.415  0.00  0.00    +0.000 A 
BRANCH  25  26
ATOM     26  C   UNL     1      -1.948  12.636  20.498  0.00  0.00    +0.000 C 
ATOM     27  O   UNL     1      -2.481  11.965  19.618  0.00  0.00    +0.000 OA
ATOM     28  N   UNL     1      -2.667  13.266  21.533  0.00  0.00    +0.000 N 
ATOM     29  C   UNL     1      -2.140  14.248  22.490  0.00  0.00    +0.000 C 
ATOM     30  C   UNL     1      -2.637  14.020  23.913  0.00  0.00    +0.000 C 
ATOM     31  C   UNL     1      -4.148  13.858  23.975  0.00  0.00    +0.000 C 
ATOM     32  C   UNL     1      -4.622  12.797  22.988  0.00  0.00    +0.000 C 
ATOM     33  F   UNL     1      -5.983  12.784  23.001  0.00  0.00    +0.000 F 
ATOM     34  C   UNL     1      -4.126  13.098  21.572  0.00  0.00    +0.000 C 
ENDBRANCH  25  26
ENDBRANCH   2  20
TORSDOF 6
ENDMDL
MODEL 4
REMARK VINA RESULT:      -8.8      1.679      2.108
REMARK  Name = 
REMARK  8 active torsions:
REMARK  status: ('A' for Active; 'I' for Inactive)
REMARK    1  A    between atoms: C_1  and  C_2
REMARK    2  A    between atoms: C_2  and  C_3
REMARK    3  A    between atoms: C_2  and  C_10
REMARK    4  A    between atoms: C_3  and  C_4
REMARK    5  A    between atoms: N_8  and  C_9
REMARK    6  A    between atoms: C_14  and  N_15
REMARK    7  A    between atoms: C_16  and  C_18
REMARK    8  A    between atoms: C_23  and  C_24
REMARK                            x       y       z     vdW  Elec       q    Type
REMARK                         _______ _______ _______ _____ _____    ______ ____
ROOT
ATOM      1  N   UNL     1       0.309   9.936  21.481  0.00  0.00    +0.000 N 
ATOM      2  C   UNL     1      -0.009  11.289  21.633  0.00  0.00    +0.000 C 
ATOM      3  O   UNL     1      -0.500  11.672  22.696  0.00  0.00    +0.000 OA
ATOM      4  H   UNL     1       0.392   9.470  22.374  0.00  0.00    +0.000 HD
ENDROOT
BRANCH   1   9
ATOM      5  C   UNL     1       2.201   7.433  19.474  0.00  0.00    +0.000 A 
ATOM      6  C   UNL     1       2.229   8.092  18.234  0.00  0.00    +0.000 A 
ATOM      7  C   UNL     1       1.592   9.324  18.053  0.00  0.00    +0.000 A 
ATOM      8  C   UNL     1       0.944   9.945  19.118  0.00  0.00    +0.000 A 
ATOM      9  C   UNL     1       0.910   9.319  20.365  0.00  0.00    +0.000 A 
ATOM     10  C   UNL     1       1.489   8.051  20.523  0.00  0.00    +0.000 A 
BRANCH   5  12
ATOM     11  C   UNL     1       2.206   5.204  20.764  0.00  0.00    +0.000 C 
ATOM     12  C   UNL     1       2.906   6.091  19.715  0.00  0.00    +0.000 C 
BRANCH  12  13
ATOM     13  C   UNL     1       3.102   5.310  18.389  0.00  0.00    +0.000 C 
BRANCH  13  14
ATOM     14  C   UNL     1       2.467   3.955  18.403  0.00  0.00    +0.000 A 
ATOM     15  N   UNL     1       1.259   3.656  17.976  0.00  0.00    +0.000 NA
ATOM     16  N   UNL     1       1.048   2.319  18.180  0.00  0.00    +0.000 NA
ATOM     17  C   UNL     1       2.134   1.817  18.713  0.00  0.00    +0.000 A 
ATOM     18  N   UNL     1       3.054   2.805  18.864  0.00  0.00    +0.000 N 
ATOM     19  C   UNL     1       4.379   2.643  19.400  0.00  0.00    +0.000 C 
ENDBRANCH  13  14
ENDBRANCH  12  13
ENDBRANCH   5  12
ENDBRANCH   1   9
BRANCH   2  20
ATOM     20  C   UNL     1       0.428  12.287  20.600  0.00  0.00    +0.000 A 
ATOM     21  N   UNL     1       1.761  12.602  20.675  0.00  0.00    +0.000 NA
ATOM     22  C   UNL     1       2.276  13.448  19.767  0.00  0.00    +0.000 A 
ATOM     23  C   UNL     1       1.525  14.022  18.766  0.00  0.00    +0.000 A 
ATOM     24  C   UNL     1       0.164  13.731  18.718  0.00  0.00    +0.000 A 
ATOM     25  C   UNL     1      -0.425  12.918  19.699  0.00  0.00    +0.000 A 
BRANCH  25  26
ATOM     26  C   UNL     1      -1.893  12.746  19.707  0.00  0.00    +0.000 C 
ATOM     27  O   UNL     1      -2.522  13.340  20.578  0.00  0.00    +0.000 OA
ATOM     28  N   UNL     1      -2.498  11.892  18.763  0.00  0.00    +0.000 N 
ATOM     29  C   UNL     1      -1.806  10.990  17.833  0.00  0.00    +0.000 C 
ATOM     30  C   UNL     1      -2.416  10.990  16.437  0.00  0.00    +0.000 C 
ATOM     31  C   UNL     1      -3.924  10.794  16.468  0.00  0.00    +0.000 C 
ATOM     32  C   UNL     1      -4.582  11.787  17.419  0.00  0.00    +0.000 C 
ATOM     33  F   UNL     1      -5.906  11.485  17.499  0.00  0.00    +0.000 F 
ATOM     34  C   UNL     1      -3.955  11.716  18.814  0.00  0.00    +0.000 C 
ENDBRANCH  25  26
ENDBRANCH   2  20
TORSDOF 6
ENDMDL
MODEL 5
REMARK VINA RESULT:      -8.7      1.324      1.511
REMARK  Name = 
REMARK  8 active torsions:
REMARK  status: ('A' for Active; 'I' for Inactive)
REMARK    1  A    between atoms: C_1  and  C_2
REMARK    2  A    between atoms: C_2  and  C_3
REMARK    3  A    between atoms: C_2  and  C_10
REMARK    4  A    between atoms: C_3  and  C_4
REMARK    5  A    between atoms: N_8  and  C_9
REMARK    6  A    between atoms: C_14  and  N_15
REMARK    7  A    between atoms: C_16  and  C_18
REMARK    8  A    between atoms: C_23  and  C_24
REMARK                            x       y       z     vdW  Elec       q    Type
REMARK                         _______ _______ _______ _____ _____    ______ ____
ROOT
ATOM      1  N   UNL     1       0.002   9.788  21.556  0.00  0.00    +0.000 N 
ATOM      2  C   UNL     1      -0.340  11.139  21.654  0.00  0.00    +0.000 C 
ATOM      3  O   UNL     1      -0.935  11.535  22.659  0.00  0.00    +0.000 OA
ATOM      4  H   UNL     1       0.001   9.336  22.460  0.00  0.00    +0.000 HD
ENDROOT
BRANCH   1   9
ATOM      5  C   UNL     1       2.120   7.285  19.789  0.00  0.00    +0.000 A 
ATOM      6  C   UNL     1       2.243   7.914  18.539  0.00  0.00    +0.000 A 
ATOM      7  C   UNL     1       1.597   9.125  18.271  0.00  0.00    +0.000 A 
ATOM      8  C   UNL     1       0.843   9.756  19.259  0.00  0.00    +0.000 A 
ATOM      9  C   UNL     1       0.713   9.159  20.513  0.00  0.00    +0.000 A 
ATOM     10  C   UNL     1       1.304   7.909  20.755  0.00  0.00    +0.000 A 
BRANCH   5  12
ATOM     11  C   UNL     1       1.934   4.950  20.860  0.00  0.00    +0.000 C 
ATOM     12  C   UNL     1       2.831   5.966  20.126  0.00  0.00    +0.000 C 
BRANCH  12  13
ATOM     13  C   UNL     1       3.455   5.322  18.860  0.00  0.00    +0.000 C 
BRANCH  13  14
ATOM     14  C   UNL     1       3.852   3.894  19.060  0.00  0.00    +0.000 A 
ATOM     15  N   UNL     1       4.910   3.462  19.712  0.00  0.00    +0.000 NA
ATOM     16  N   UNL     1       4.927   2.095  19.650  0.00  0.00    +0.000 NA
ATOM     17  C   UNL     1       3.872   1.709  18.977  0.00  0.00    +0.000 A 
ATOM     18  N   UNL     1       3.164   2.803  18.593  0.00  0.00    +0.000 N 
ATOM     19  C   UNL     1       1.933   2.788  17.849  0.00  0.00    +0.000 C 
ENDBRANCH  13  14
ENDBRANCH  12  13
ENDBRANCH   5  12
ENDBRANCH   1   9
BRANCH   2  20
ATOM     20  C   UNL     1       0.188  12.126  20.652  0.00  0.00    +0.000 A 
ATOM     21  N   UNL     1       1.519  12.408  20.814  0.00  0.00    +0.000 NA
ATOM     22  C   UNL     1       2.113  13.241  19.941  0.00  0.00    +0.000 A 
ATOM     23  C   UNL     1       1.443  13.831  18.894  0.00  0.00    +0.000 A 
ATOM     24  C   UNL     1       0.081  13.574  18.758  0.00  0.00    +0.000 A 
ATOM     25  C   UNL     1      -0.590  12.776  19.698  0.00  0.00    +0.000 A 
BRANCH  25  26
ATOM     26  C   UNL     1      -2.060  12.641  19.610  0.00  0.00    +0.000 C 
ATOM     27  O   UNL     1      -2.729  13.248  20.441  0.00  0.00    +0.000 OA
ATOM     28  N   UNL     1      -2.622  11.802  18.627  0.00  0.00    +0.000 N 
ATOM     29  C   UNL     1      -1.894  10.885  17.742  0.00  0.00    +0.000 C 
ATOM     30  C   UNL     1      -2.413  10.901  16.309  0.00  0.00    +0.000 C 
ATOM     31  C   UNL     1      -3.924  10.742  16.242  0.00  0.00    +0.000 C 
ATOM     32  C   UNL     1      -4.617  11.749  17.152  0.00  0.00    +0.000 C 
ATOM     33  F   UNL     1      -5.951  11.480  17.145  0.00  0.00    +0.000 F 
ATOM     34  C   UNL     1      -4.084  11.662  18.583  0.00  0.00    +0.000 C 
ENDBRANCH  25  26
ENDBRANCH   2  20
TORSDOF 6
ENDMDL
MODEL 6
REMARK VINA RESULT:      -8.4      1.960      2.690
REMARK  Name = 
REMARK  8 active torsions:
REMARK  status: ('A' for Active; 'I' for Inactive)
REMARK    1  A    between atoms: C_1  and  C_2
REMARK    2  A    between atoms: C_2  and  C_3
REMARK    3  A    between atoms: C_2  and  C_10
REMARK    4  A    between atoms: C_3  and  C_4
REMARK    5  A    between atoms: N_8  and  C_9
REMARK    6  A    between atoms: C_14  and  N_15
REMARK    7  A    between atoms: C_16  and  C_18
REMARK    8  A    between atoms: C_23  and  C_24
REMARK                            x       y       z     vdW  Elec       q    Type
REMARK                         _______ _______ _______ _____ _____    ______ ____
ROOT
ATOM      1  N   UNL     1       0.293   9.878  21.593  0.00  0.00    +0.000 N 
ATOM      2  C   UNL     1      -0.006  11.214  21.874  0.00  0.00    +0.000 C 
ATOM      3  O   UNL     1      -0.476  11.503  22.975  0.00  0.00    +0.000 OA
ATOM      4  H   UNL     1       0.384   9.331  22.438  0.00  0.00    +0.000 HD
ENDROOT
BRANCH   1   9
ATOM      5  C   UNL     1       2.076   7.524  19.322  0.00  0.00    +0.000 A 
ATOM      6  C   UNL     1       2.140   8.313  18.162  0.00  0.00    +0.000 A 
ATOM      7  C   UNL     1       1.562   9.586  18.118  0.00  0.00    +0.000 A 
ATOM      8  C   UNL     1       0.939  10.116  19.246  0.00  0.00    +0.000 A 
ATOM      9  C   UNL     1       0.870   9.359  20.415  0.00  0.00    +0.000 A 
ATOM     10  C   UNL     1       1.389   8.055  20.434  0.00  0.00    +0.000 A 
BRANCH   5  12
ATOM     11  C   UNL     1       2.271   5.327  20.651  0.00  0.00    +0.000 C 
ATOM     12  C   UNL     1       2.716   6.132  19.415  0.00  0.00    +0.000 C 
BRANCH  12  13
ATOM     13  C   UNL     1       2.475   5.313  18.119  0.00  0.00    +0.000 C 
BRANCH  13  14
ATOM     14  C   UNL     1       3.738   4.979  17.389  0.00  0.00    +0.000 A 
ATOM     15  N   UNL     1       4.534   5.831  16.779  0.00  0.00    +0.000 NA
ATOM     16  N   UNL     1       5.567   5.130  16.217  0.00  0.00    +0.000 NA
ATOM     17  C   UNL     1       5.397   3.864  16.506  0.00  0.00    +0.000 A 
ATOM     18  N   UNL     1       4.267   3.722  17.246  0.00  0.00    +0.000 N 
ATOM     19  C   UNL     1       3.755   2.484  17.769  0.00  0.00    +0.000 C 
ENDBRANCH  13  14
ENDBRANCH  12  13
ENDBRANCH   5  12
ENDBRANCH   1   9
BRANCH   2  20
ATOM     20  C   UNL     1       0.428  12.299  20.930  0.00  0.00    +0.000 A 
ATOM     21  N   UNL     1       1.713  12.725  21.142  0.00  0.00    +0.000 NA
ATOM     22  C   UNL     1       2.228  13.658  20.323  0.00  0.00    +0.000 A 
ATOM     23  C   UNL     1       1.519  14.214  19.281  0.00  0.00    +0.000 A 
ATOM     24  C   UNL     1       0.201  13.808  19.095  0.00  0.00    +0.000 A 
ATOM     25  C   UNL     1      -0.396  12.897  19.981  0.00  0.00    +0.000 A 
BRANCH  25  26
ATOM     26  C   UNL     1      -1.837  12.597  19.844  0.00  0.00    +0.000 C 
ATOM     27  O   UNL     1      -2.165  11.814  18.957  0.00  0.00    +0.000 OA
ATOM     28  N   UNL     1      -2.764  13.242  20.688  0.00  0.00    +0.000 N 
ATOM     29  C   UNL     1      -2.478  14.339  21.621  0.00  0.00    +0.000 C 
ATOM     30  C   UNL     1      -3.188  14.183  22.961  0.00  0.00    +0.000 C 
ATOM     31  C   UNL     1      -4.672  13.893  22.795  0.00  0.00    +0.000 C 
ATOM     32  C   UNL     1      -4.895  12.720  21.848  0.00  0.00    +0.000 C 
ATOM     33  F   UNL     1      -6.233  12.588  21.644  0.00  0.00    +0.000 F 
ATOM     34  C   UNL     1      -4.192  12.949  20.508  0.00  0.00    +0.000 C 
ENDBRANCH  25  26
ENDBRANCH   2  20
TORSDOF 6
ENDMDL
MODEL 7
REMARK VINA RESULT:      -8.4      2.509      3.538
REMARK  Name = 
REMARK  8 active torsions:
REMARK  status: ('A' for Active; 'I' for Inactive)
REMARK    1  A    between atoms: C_1  and  C_2
REMARK    2  A    between atoms: C_2  and  C_3
REMARK    3  A    between atoms: C_2  and  C_10
REMARK    4  A    between atoms: C_3  and  C_4
REMARK    5  A    between atoms: N_8  and  C_9
REMARK    6  A    between atoms: C_14  and  N_15
REMARK    7  A    between atoms: C_16  and  C_18
REMARK    8  A    between atoms: C_23  and  C_24
REMARK                            x       y       z     vdW  Elec       q    Type
REMARK                         _______ _______ _______ _____ _____    ______ ____
ROOT
ATOM      1  N   UNL     1       0.403   9.627  21.362  0.00  0.00    +0.000 N 
ATOM      2  C   UNL     1       0.104  10.899  21.859  0.00  0.00    +0.000 C 
ATOM      3  O   UNL     1      -0.296  11.010  23.019  0.00  0.00    +0.000 OA
ATOM      4  H   UNL     1       0.557   8.963  22.108  0.00  0.00    +0.000 HD
ENDROOT
BRANCH   1   9
ATOM      5  C   UNL     1       2.196   7.753  18.690  0.00  0.00    +0.000 A 
ATOM      6  C   UNL     1       2.046   8.654  17.622  0.00  0.00    +0.000 A 
ATOM      7  C   UNL     1       1.323   9.842  17.773  0.00  0.00    +0.000 A 
ATOM      8  C   UNL     1       0.766  10.176  19.006  0.00  0.00    +0.000 A 
ATOM      9  C   UNL     1       0.908   9.304  20.086  0.00  0.00    +0.000 A 
ATOM     10  C   UNL     1       1.573   8.081  19.912  0.00  0.00    +0.000 A 
BRANCH   5  12
ATOM     11  C   UNL     1       4.305   6.601  17.764  0.00  0.00    +0.000 C 
ATOM     12  C   UNL     1       2.999   6.450  18.567  0.00  0.00    +0.000 C 
BRANCH  12  13
ATOM     13  C   UNL     1       3.289   5.833  19.961  0.00  0.00    +0.000 C 
BRANCH  13  14
ATOM     14  C   UNL     1       2.546   4.558  20.208  0.00  0.00    +0.000 A 
ATOM     15  N   UNL     1       1.332   4.447  20.704  0.00  0.00    +0.000 NA
ATOM     16  N   UNL     1       1.022   3.116  20.792  0.00  0.00    +0.000 NA
ATOM     17  C   UNL     1       2.042   2.434  20.334  0.00  0.00    +0.000 A 
ATOM     18  N   UNL     1       3.019   3.297  19.949  0.00  0.00    +0.000 N 
ATOM     19  C   UNL     1       4.287   2.930  19.378  0.00  0.00    +0.000 C 
ENDBRANCH  13  14
ENDBRANCH  12  13
ENDBRANCH   5  12
ENDBRANCH   1   9
BRANCH   2  20
ATOM     20  C   UNL     1       0.460  12.123  21.064  0.00  0.00    +0.000 A 
ATOM     21  N   UNL     1       1.779  12.481  21.173  0.00  0.00    +0.000 NA
ATOM     22  C   UNL     1       2.223  13.532  20.463  0.00  0.00    +0.000 A 
ATOM     23  C   UNL     1       1.412  14.273  19.634  0.00  0.00    +0.000 A 
ATOM     24  C   UNL     1       0.065  13.931  19.557  0.00  0.00    +0.000 A 
ATOM     25  C   UNL     1      -0.452  12.892  20.347  0.00  0.00    +0.000 A 
BRANCH  25  26
ATOM     26  C   UNL     1      -1.911  12.649  20.354  0.00  0.00    +0.000 C 
ATOM     27  O   UNL     1      -2.369  11.970  19.439  0.00  0.00    +0.000 OA
ATOM     28  N   UNL     1      -2.707  13.230  21.360  0.00  0.00    +0.000 N 
ATOM     29  C   UNL     1      -2.273  14.218  22.356  0.00  0.00    +0.000 C 
ATOM     30  C   UNL     1      -2.829  13.947  23.749  0.00  0.00    +0.000 C 
ATOM     31  C   UNL     1      -4.332  13.717  23.733  0.00  0.00    +0.000 C 
ATOM     32  C   UNL     1      -4.709  12.654  22.709  0.00  0.00    +0.000 C 
ATOM     33  F   UNL     1      -6.067  12.580  22.653  0.00  0.00    +0.000 F 
ATOM     34  C   UNL     1      -4.157  12.998  21.324  0.00  0.00    +0.000 C 
ENDBRANCH  25  26
ENDBRANCH   2  20
TORSDOF 6
ENDMDL
MODEL 8
REMARK VINA RESULT:      -8.4      1.807      2.647
REMARK  Name = 
REMARK  8 active torsions:
REMARK  status: ('A' for Active; 'I' for Inactive)
REMARK    1  A    between atoms: C_1  and  C_2
REMARK    2  A    between atoms: C_2  and  C_3
REMARK    3  A    between atoms: C_2  and  C_10
REMARK    4  A    between atoms: C_3  and  C_4
REMARK    5  A    between atoms: N_8  and  C_9
REMARK    6  A    between atoms: C_14  and  N_15
REMARK    7  A    between atoms: C_16  and  C_18
REMARK    8  A    between atoms: C_23  and  C_24
REMARK                            x       y       z     vdW  Elec       q    Type
REMARK                         _______ _______ _______ _____ _____    ______ ____
ROOT
ATOM      1  N   UNL     1       0.501   9.503  21.297  0.00  0.00    +0.000 N 
ATOM      2  C   UNL     1       0.108  10.788  21.681  0.00  0.00    +0.000 C 
ATOM      3  O   UNL     1      -0.370  10.958  22.804  0.00  0.00    +0.000 OA
ATOM      4  H   UNL     1       0.639   8.901  22.097  0.00  0.00    +0.000 HD
ENDROOT
BRANCH   1   9
ATOM      5  C   UNL     1       2.419   7.462  18.842  0.00  0.00    +0.000 A 
ATOM      6  C   UNL     1       2.421   8.343  17.747  0.00  0.00    +0.000 A 
ATOM      7  C   UNL     1       1.759   9.574  17.806  0.00  0.00    +0.000 A 
ATOM      8  C   UNL     1       1.111   9.970  18.974  0.00  0.00    +0.000 A 
ATOM      9  C   UNL     1       1.101   9.119  20.080  0.00  0.00    +0.000 A 
ATOM     10  C   UNL     1       1.706   7.856  19.993  0.00  0.00    +0.000 A 
BRANCH   5  12
ATOM     11  C   UNL     1       4.687   6.242  18.855  0.00  0.00    +0.000 C 
ATOM     12  C   UNL     1       3.151   6.113  18.821  0.00  0.00    +0.000 C 
BRANCH  12  13
ATOM     13  C   UNL     1       2.660   5.187  19.965  0.00  0.00    +0.000 C 
BRANCH  13  14
ATOM     14  C   UNL     1       1.885   4.005  19.475  0.00  0.00    +0.000 A 
ATOM     15  N   UNL     1       1.519   3.773  18.233  0.00  0.00    +0.000 NA
ATOM     16  N   UNL     1       0.812   2.602  18.203  0.00  0.00    +0.000 NA
ATOM     17  C   UNL     1       0.770   2.125  19.422  0.00  0.00    +0.000 A 
ATOM     18  N   UNL     1       1.436   2.968  20.253  0.00  0.00    +0.000 N 
ATOM     19  C   UNL     1       1.625   2.780  21.667  0.00  0.00    +0.000 C 
ENDBRANCH  13  14
ENDBRANCH  12  13
ENDBRANCH   5  12
ENDBRANCH   1   9
BRANCH   2  20
ATOM     20  C   UNL     1       0.454  11.971  20.822  0.00  0.00    +0.000 A 
ATOM     21  N   UNL     1       1.762  12.366  20.938  0.00  0.00    +0.000 NA
ATOM     22  C   UNL     1       2.198  13.384  20.177  0.00  0.00    +0.000 A 
ATOM     23  C   UNL     1       1.389  14.056  19.287  0.00  0.00    +0.000 A 
ATOM     24  C   UNL     1       0.052  13.677  19.203  0.00  0.00    +0.000 A 
ATOM     25  C   UNL     1      -0.459  12.675  20.042  0.00  0.00    +0.000 A 
BRANCH  25  26
ATOM     26  C   UNL     1      -1.911  12.397  20.032  0.00  0.00    +0.000 C 
ATOM     27  O   UNL     1      -2.561  12.781  20.999  0.00  0.00    +0.000 OA
ATOM     28  N   UNL     1      -2.473  11.678  18.958  0.00  0.00    +0.000 N 
ATOM     29  C   UNL     1      -1.739  11.006  17.878  0.00  0.00    +0.000 C 
ATOM     30  C   UNL     1      -2.377  11.204  16.508  0.00  0.00    +0.000 C 
ATOM     31  C   UNL     1      -3.867  10.896  16.518  0.00  0.00    +0.000 C 
ATOM     32  C   UNL     1      -4.572  11.656  17.634  0.00  0.00    +0.000 C 
ATOM     33  F   UNL     1      -5.870  11.249  17.671  0.00  0.00    +0.000 F 
ATOM     34  C   UNL     1      -3.913  11.389  18.989  0.00  0.00    +0.000 C 
ENDBRANCH  25  26
ENDBRANCH   2  20
TORSDOF 6
ENDMDL
MODEL 9
REMARK VINA RESULT:      -8.3      2.226      3.077
REMARK  Name = 
REMARK  8 active torsions:
REMARK  status: ('A' for Active; 'I' for Inactive)
REMARK    1  A    between atoms: C_1  and  C_2
REMARK    2  A    between atoms: C_2  and  C_3
REMARK    3  A    between atoms: C_2  and  C_10
REMARK    4  A    between atoms: C_3  and  C_4
REMARK    5  A    between atoms: N_8  and  C_9
REMARK    6  A    between atoms: C_14  and  N_15
REMARK    7  A    between atoms: C_16  and  C_18
REMARK    8  A    between atoms: C_23  and  C_24
REMARK                            x       y       z     vdW  Elec       q    Type
REMARK                         _______ _______ _______ _____ _____    ______ ____
ROOT
ATOM      1  N   UNL     1       0.376   9.805  21.458  0.00  0.00    +0.000 N 
ATOM      2  C   UNL     1       0.106  11.137  21.786  0.00  0.00    +0.000 C 
ATOM      3  O   UNL     1      -0.341  11.399  22.904  0.00  0.00    +0.000 OA
ATOM      4  H   UNL     1       0.470   9.229  22.284  0.00  0.00    +0.000 HD
ENDROOT
BRANCH   1   9
ATOM      5  C   UNL     1       2.112   7.510  19.093  0.00  0.00    +0.000 A 
ATOM      6  C   UNL     1       2.139   8.322  17.947  0.00  0.00    +0.000 A 
ATOM      7  C   UNL     1       1.552   9.592  17.944  0.00  0.00    +0.000 A 
ATOM      8  C   UNL     1       0.956  10.095  19.099  0.00  0.00    +0.000 A 
ATOM      9  C   UNL     1       0.923   9.314  20.255  0.00  0.00    +0.000 A 
ATOM     10  C   UNL     1       1.451   8.014  20.233  0.00  0.00    +0.000 A 
BRANCH   5  12
ATOM     11  C   UNL     1       2.565   5.389  20.481  0.00  0.00    +0.000 C 
ATOM     12  C   UNL     1       2.763   6.121  19.140  0.00  0.00    +0.000 C 
BRANCH  12  13
ATOM     13  C   UNL     1       2.283   5.232  17.962  0.00  0.00    +0.000 C 
BRANCH  13  14
ATOM     14  C   UNL     1       2.834   3.842  18.009  0.00  0.00    +0.000 A 
ATOM     15  N   UNL     1       4.062   3.480  17.704  0.00  0.00    +0.000 NA
ATOM     16  N   UNL     1       4.161   2.123  17.855  0.00  0.00    +0.000 NA
ATOM     17  C   UNL     1       3.000   1.678  18.266  0.00  0.00    +0.000 A 
ATOM     18  N   UNL     1       2.138   2.721  18.384  0.00  0.00    +0.000 N 
ATOM     19  C   UNL     1       0.772   2.637  18.826  0.00  0.00    +0.000 C 
ENDBRANCH  13  14
ENDBRANCH  12  13
ENDBRANCH   5  12
ENDBRANCH   1   9
BRANCH   2  20
ATOM     20  C   UNL     1       0.545  12.243  20.870  0.00  0.00    +0.000 A 
ATOM     21  N   UNL     1       1.837  12.648  21.083  0.00  0.00    +0.000 NA
ATOM     22  C   UNL     1       2.355  13.598  20.287  0.00  0.00    +0.000 A 
ATOM     23  C   UNL     1       1.645  14.192  19.268  0.00  0.00    +0.000 A 
ATOM     24  C   UNL     1       0.320  13.807  19.082  0.00  0.00    +0.000 A 
ATOM     25  C   UNL     1      -0.280  12.878  19.946  0.00  0.00    +0.000 A 
BRANCH  25  26
ATOM     26  C   UNL     1      -1.726  12.600  19.814  0.00  0.00    +0.000 C 
ATOM     27  O   UNL     1      -2.074  11.873  18.888  0.00  0.00    +0.000 OA
ATOM     28  N   UNL     1      -2.634  13.202  20.707  0.00  0.00    +0.000 N 
ATOM     29  C   UNL     1      -2.325  14.241  21.699  0.00  0.00    +0.000 C 
ATOM     30  C   UNL     1      -3.016  14.013  23.037  0.00  0.00    +0.000 C 
ATOM     31  C   UNL     1      -4.505  13.746  22.877  0.00  0.00    +0.000 C 
ATOM     32  C   UNL     1      -4.753  12.633  21.867  0.00  0.00    +0.000 C 
ATOM     33  F   UNL     1      -6.096  12.524  21.676  0.00  0.00    +0.000 F 
ATOM     34  C   UNL     1      -4.068  12.933  20.532  0.00  0.00    +0.000 C 
ENDBRANCH  25  26
ENDBRANCH   2  20
TORSDOF 6
ENDMDL
