MODEL 1
REMARK VINA RESULT:      -8.6      0.000      0.000
REMARK  Name = 
REMARK  5 active torsions:
REMARK  status: ('A' for Active; 'I' for Inactive)
REMARK    1  A    between atoms: C_1  and  N_2
REMARK    2  A    between atoms: N_2  and  C_3
REMARK    3  A    between atoms: N_2  and  C_17
REMARK    4  A    between atoms: C_3  and  C_4
REMARK    5  A    between atoms: N_6  and  C_7
REMARK                            x       y       z     vdW  Elec       q    Type
REMARK                         _______ _______ _______ _____ _____    ______ ____
ROOT
ATOM      1  C   UNL     1       8.203   8.524  18.196  0.00  0.00    +0.000 C 
ATOM      2  O   UNL     1       7.744   9.147  17.232  0.00  0.00    +0.000 OA
ATOM      3  N   UNL     1       9.040   9.066  19.162  0.00  0.00    +0.000 N 
ATOM      4  H   UNL     1       9.593   8.426  19.721  0.00  0.00    +0.000 HD
ENDROOT
BRANCH   3   5
ATOM      5  C   UNL     1       9.374  10.438  19.215  0.00  0.00    +0.000 A 
ATOM      6  C   UNL     1       9.374  11.140  20.447  0.00  0.00    +0.000 A 
ATOM      7  C   UNL     1       9.652  12.499  20.539  0.00  0.00    +0.000 A 
ATOM      8  C   UNL     1       9.932  13.131  19.359  0.00  0.00    +0.000 A 
ATOM      9  N   UNL     1      10.236  14.465  19.122  0.00  0.00    +0.000 N 
ATOM     10  C   UNL     1      10.434  14.638  17.749  0.00  0.00    +0.000 A 
ATOM     11  O   UNL     1      10.703  15.687  17.180  0.00  0.00    +0.000 OA
ATOM     12  N   UNL     1      10.262  13.384  17.149  0.00  0.00    +0.000 N 
ATOM     13  C   UNL     1       9.955  12.457  18.136  0.00  0.00    +0.000 A 
ATOM     14  C   UNL     1       9.695  11.107  18.029  0.00  0.00    +0.000 A 
ATOM     15  H   UNL     1      10.298  15.203  19.803  0.00  0.00    +0.000 HD
ATOM     16  H   UNL     1      10.345  13.220  16.160  0.00  0.00    +0.000 HD
ENDBRANCH   3   5
BRANCH   1  17
ATOM     17  C   UNL     1       7.921   7.034  18.360  0.00  0.00    +0.000 C 
BRANCH  17  19
ATOM     18  C   UNL     1       5.657   7.058  17.506  0.00  0.00    +0.000 C 
ATOM     19  N   UNL     1       7.015   6.532  17.299  0.00  0.00    +0.000 NA
BRANCH  19  20
ATOM     20  C   UNL     1       7.028   5.050  17.140  0.00  0.00    +0.000 C 
ATOM     21  C   UNL     1       7.329   4.592  15.688  0.00  0.00    +0.000 C 
ATOM     22  C   UNL     1       6.176   4.971  14.761  0.00  0.00    +0.000 C 
ATOM     23  C   UNL     1       4.950   4.144  15.125  0.00  0.00    +0.000 C 
ATOM     24  C   UNL     1       4.697   4.074  16.612  0.00  0.00    +0.000 A 
ATOM     25  C   UNL     1       3.457   3.580  17.049  0.00  0.00    +0.000 A 
ATOM     26  C   UNL     1       3.178   3.452  18.408  0.00  0.00    +0.000 A 
ATOM     27  C   UNL     1       4.154   3.762  19.346  0.00  0.00    +0.000 A 
ATOM     28  C   UNL     1       5.409   4.201  18.923  0.00  0.00    +0.000 A 
ATOM     29  C   UNL     1       5.690   4.412  17.558  0.00  0.00    +0.000 A 
ENDBRANCH  19  20
ENDBRANCH  17  19
ENDBRANCH   1  17
TORSDOF 4
ENDMDL
MODEL 2
REMARK VINA RESULT:      -8.5      1.348      2.017
REMARK  Name = 
REMARK  5 active torsions:
REMARK  status: ('A' for Active; 'I' for Inactive)
REMARK    1  A    between atoms: C_1  and  N_2
REMARK    2  A    between atoms: N_2  and  C_3
REMARK    3  A    between atoms: N_2  and  C_17
REMARK    4  A    between atoms: C_3  and  C_4
REMARK    5  A    between atoms: N_6  and  C_7
REMARK                            x       y       z     vdW  Elec       q    Type
REMARK                         _______ _______ _______ _____ _____    ______ ____
ROOT
ATOM      1  C   UNL     1       7.771   8.032  17.884  0.00  0.00    +0.000 C 
ATOM      2  O   UNL     1       7.243   8.768  17.044  0.00  0.00    +0.000 OA
ATOM      3  N   UNL     1       8.691   8.451  18.836  0.00  0.00    +0.000 N 
ATOM      4  H   UNL     1       9.279   7.746  19.265  0.00  0.00    +0.000 HD
ENDROOT
BRANCH   3   5
ATOM      5  C   UNL     1       9.046   9.805  19.026  0.00  0.00    +0.000 A 
ATOM      6  C   UNL     1       9.272  10.323  20.327  0.00  0.00    +0.000 A 
ATOM      7  C   UNL     1       9.578  11.658  20.562  0.00  0.00    +0.000 A 
ATOM      8  C   UNL     1       9.653  12.456  19.455  0.00  0.00    +0.000 A 
ATOM      9  N   UNL     1       9.927  13.815  19.362  0.00  0.00    +0.000 N 
ATOM     10  C   UNL     1       9.881  14.186  18.015  0.00  0.00    +0.000 A 
ATOM     11  O   UNL     1      10.059  15.310  17.564  0.00  0.00    +0.000 OA
ATOM     12  N   UNL     1       9.591  13.029  17.281  0.00  0.00    +0.000 N 
ATOM     13  C   UNL     1       9.452  11.965  18.163  0.00  0.00    +0.000 A 
ATOM     14  C   UNL     1       9.161  10.642  17.911  0.00  0.00    +0.000 A 
ATOM     15  H   UNL     1      10.117  14.448  20.120  0.00  0.00    +0.000 HD
ATOM     16  H   UNL     1       9.497  13.009  16.280  0.00  0.00    +0.000 HD
ENDBRANCH   3   5
BRANCH   1  17
ATOM     17  C   UNL     1       7.484   6.533  17.890  0.00  0.00    +0.000 C 
BRANCH  17  19
ATOM     18  C   UNL     1       6.066   5.160  19.289  0.00  0.00    +0.000 C 
ATOM     19  N   UNL     1       6.088   6.248  18.300  0.00  0.00    +0.000 NA
BRANCH  19  20
ATOM     20  C   UNL     1       5.160   5.996  17.161  0.00  0.00    +0.000 C 
ATOM     21  C   UNL     1       4.357   7.254  16.735  0.00  0.00    +0.000 C 
ATOM     22  C   UNL     1       3.369   7.651  17.829  0.00  0.00    +0.000 C 
ATOM     23  C   UNL     1       2.287   6.584  17.936  0.00  0.00    +0.000 C 
ATOM     24  C   UNL     1       2.833   5.177  17.923  0.00  0.00    +0.000 A 
ATOM     25  C   UNL     1       1.972   4.129  18.289  0.00  0.00    +0.000 A 
ATOM     26  C   UNL     1       2.403   2.805  18.258  0.00  0.00    +0.000 A 
ATOM     27  C   UNL     1       3.681   2.505  17.805  0.00  0.00    +0.000 A 
ATOM     28  C   UNL     1       4.528   3.532  17.386  0.00  0.00    +0.000 A 
ATOM     29  C   UNL     1       4.142   4.884  17.481  0.00  0.00    +0.000 A 
ENDBRANCH  19  20
ENDBRANCH  17  19
ENDBRANCH   1  17
TORSDOF 4
ENDMDL
MODEL 3
REMARK VINA RESULT:      -8.4      5.370      6.551
REMARK  Name = 
REMARK  5 active torsions:
REMARK  status: ('A' for Active; 'I' for Inactive)
REMARK    1  A    between atoms: C_1  and  N_2
REMARK    2  A    between atoms: N_2  and  C_3
REMARK    3  A    between atoms: N_2  and  C_17
REMARK    4  A    between atoms: C_3  and  C_4
REMARK    5  A    between atoms: N_6  and  C_7
REMARK                            x       y       z     vdW  Elec       q    Type
REMARK                         _______ _______ _______ _____ _____    ______ ____
ROOT
ATOM      1  C   UNL     1       2.208   7.844  18.639  0.00  0.00    +0.000 C 
ATOM      2  O   UNL     1       2.057   7.909  19.864  0.00  0.00    +0.000 OA
ATOM      3  N   UNL     1       1.804   8.821  17.739  0.00  0.00    +0.000 N 
ATOM      4  H   UNL     1       1.694   8.552  16.768  0.00  0.00    +0.000 HD
ENDROOT
BRANCH   3   5
ATOM      5  C   UNL     1       1.271  10.068  18.138  0.00  0.00    +0.000 A 
ATOM      6  C   UNL     1      -0.109  10.209  18.433  0.00  0.00    +0.000 A 
ATOM      7  C   UNL     1      -0.682  11.426  18.786  0.00  0.00    +0.000 A 
ATOM      8  C   UNL     1       0.171  12.493  18.835  0.00  0.00    +0.000 A 
ATOM      9  N   UNL     1      -0.095  13.822  19.142  0.00  0.00    +0.000 N 
ATOM     10  C   UNL     1       1.098  14.545  19.049  0.00  0.00    +0.000 A 
ATOM     11  O   UNL     1       1.236  15.746  19.238  0.00  0.00    +0.000 OA
ATOM     12  N   UNL     1       2.103  13.635  18.696  0.00  0.00    +0.000 N 
ATOM     13  C   UNL     1       1.536  12.374  18.566  0.00  0.00    +0.000 A 
ATOM     14  C   UNL     1       2.123  11.173  18.228  0.00  0.00    +0.000 A 
ATOM     15  H   UNL     1      -0.985  14.222  19.381  0.00  0.00    +0.000 HD
ATOM     16  H   UNL     1       3.066  13.890  18.559  0.00  0.00    +0.000 HD
ENDBRANCH   3   5
BRANCH   1  17
ATOM     17  C   UNL     1       2.814   6.599  18.000  0.00  0.00    +0.000 C 
BRANCH  17  19
ATOM     18  C   UNL     1       5.147   6.810  17.390  0.00  0.00    +0.000 C 
ATOM     19  N   UNL     1       4.213   6.385  18.444  0.00  0.00    +0.000 NA
BRANCH  19  20
ATOM     20  C   UNL     1       4.493   5.001  18.924  0.00  0.00    +0.000 C 
ATOM     21  C   UNL     1       5.229   4.127  17.875  0.00  0.00    +0.000 C 
ATOM     22  C   UNL     1       4.317   3.840  16.686  0.00  0.00    +0.000 C 
ATOM     23  C   UNL     1       3.179   2.934  17.136  0.00  0.00    +0.000 C 
ATOM     24  C   UNL     1       2.558   3.361  18.444  0.00  0.00    +0.000 A 
ATOM     25  C   UNL     1       1.337   2.776  18.819  0.00  0.00    +0.000 A 
ATOM     26  C   UNL     1       0.734   3.097  20.033  0.00  0.00    +0.000 A 
ATOM     27  C   UNL     1       1.371   3.961  20.914  0.00  0.00    +0.000 A 
ATOM     28  C   UNL     1       2.611   4.505  20.578  0.00  0.00    +0.000 A 
ATOM     29  C   UNL     1       3.204   4.257  19.324  0.00  0.00    +0.000 A 
ENDBRANCH  19  20
ENDBRANCH  17  19
ENDBRANCH   1  17
TORSDOF 4
ENDMDL
MODEL 4
REMARK VINA RESULT:      -8.4      6.162      9.315
REMARK  Name = 
REMARK  5 active torsions:
REMARK  status: ('A' for Active; 'I' for Inactive)
REMARK    1  A    between atoms: C_1  and  N_2
REMARK    2  A    between atoms: N_2  and  C_3
REMARK    3  A    between atoms: N_2  and  C_17
REMARK    4  A    between atoms: C_3  and  C_4
REMARK    5  A    between atoms: N_6  and  C_7
REMARK                            x       y       z     vdW  Elec       q    Type
REMARK                         _______ _______ _______ _____ _____    ______ ____
ROOT
ATOM      1  C   UNL     1       2.052   8.943  17.959  0.00  0.00    +0.000 C 
ATOM      2  O   UNL     1       3.133   9.485  17.700  0.00  0.00    +0.000 OA
ATOM      3  N   UNL     1       1.889   7.591  18.225  0.00  0.00    +0.000 N 
ATOM      4  H   UNL     1       0.960   7.199  18.126  0.00  0.00    +0.000 HD
ENDROOT
BRANCH   3   5
ATOM      5  C   UNL     1       2.971   6.690  18.346  0.00  0.00    +0.000 A 
ATOM      6  C   UNL     1       3.060   5.802  19.448  0.00  0.00    +0.000 A 
ATOM      7  C   UNL     1       4.129   4.931  19.629  0.00  0.00    +0.000 A 
ATOM      8  C   UNL     1       5.103   4.978  18.670  0.00  0.00    +0.000 A 
ATOM      9  N   UNL     1       6.283   4.251  18.575  0.00  0.00    +0.000 N 
ATOM     10  C   UNL     1       6.962   4.657  17.422  0.00  0.00    +0.000 A 
ATOM     11  O   UNL     1       8.043   4.240  17.030  0.00  0.00    +0.000 OA
ATOM     12  N   UNL     1       6.171   5.634  16.804  0.00  0.00    +0.000 N 
ATOM     13  C   UNL     1       5.029   5.831  17.568  0.00  0.00    +0.000 A 
ATOM     14  C   UNL     1       3.970   6.691  17.366  0.00  0.00    +0.000 A 
ATOM     15  H   UNL     1       6.619   3.555  19.217  0.00  0.00    +0.000 HD
ATOM     16  H   UNL     1       6.425   6.102  15.951  0.00  0.00    +0.000 HD
ENDBRANCH   3   5
BRANCH   1  17
ATOM     17  C   UNL     1       0.757   9.750  17.935  0.00  0.00    +0.000 C 
BRANCH  17  19
ATOM     18  C   UNL     1      -1.207  10.442  19.167  0.00  0.00    +0.000 C 
ATOM     19  N   UNL     1       0.053   9.686  19.238  0.00  0.00    +0.000 NA
BRANCH  19  20
ATOM     20  C   UNL     1       0.891  10.092  20.402  0.00  0.00    +0.000 C 
ATOM     21  C   UNL     1       1.032   8.978  21.474  0.00  0.00    +0.000 C 
ATOM     22  C   UNL     1      -0.309   8.726  22.159  0.00  0.00    +0.000 C 
ATOM     23  C   UNL     1      -0.682   9.945  22.991  0.00  0.00    +0.000 C 
ATOM     24  C   UNL     1      -0.469  11.252  22.265  0.00  0.00    +0.000 A 
ATOM     25  C   UNL     1      -1.030  12.415  22.818  0.00  0.00    +0.000 A 
ATOM     26  C   UNL     1      -0.835  13.657  22.218  0.00  0.00    +0.000 A 
ATOM     27  C   UNL     1      -0.030  13.761  21.091  0.00  0.00    +0.000 A 
ATOM     28  C   UNL     1       0.578  12.621  20.564  0.00  0.00    +0.000 A 
ATOM     29  C   UNL     1       0.334  11.344  21.107  0.00  0.00    +0.000 A 
ENDBRANCH  19  20
ENDBRANCH  17  19
ENDBRANCH   1  17
TORSDOF 4
ENDMDL
MODEL 5
REMARK VINA RESULT:      -8.4      5.745      7.230
REMARK  Name = 
REMARK  5 active torsions:
REMARK  status: ('A' for Active; 'I' for Inactive)
REMARK    1  A    between atoms: C_1  and  N_2
REMARK    2  A    between atoms: N_2  and  C_3
REMARK    3  A    between atoms: N_2  and  C_17
REMARK    4  A    between atoms: C_3  and  C_4
REMARK    5  A    between atoms: N_6  and  C_7
REMARK                            x       y       z     vdW  Elec       q    Type
REMARK                         _______ _______ _______ _____ _____    ______ ____
ROOT
ATOM      1  C   UNL     1       2.203   7.835  18.689  0.00  0.00    +0.000 C 
ATOM      2  O   UNL     1       2.056   7.874  19.916  0.00  0.00    +0.000 OA
ATOM      3  N   UNL     1       1.809   8.838  17.813  0.00  0.00    +0.000 N 
ATOM      4  H   UNL     1       1.694   8.593  16.836  0.00  0.00    +0.000 HD
ENDROOT
BRANCH   3   5
ATOM      5  C   UNL     1       1.294  10.081  18.242  0.00  0.00    +0.000 A 
ATOM      6  C   UNL     1       2.109  11.242  18.254  0.00  0.00    +0.000 A 
ATOM      7  C   UNL     1       1.656  12.475  18.709  0.00  0.00    +0.000 A 
ATOM      8  C   UNL     1       0.362  12.508  19.150  0.00  0.00    +0.000 A 
ATOM      9  N   UNL     1      -0.368  13.572  19.665  0.00  0.00    +0.000 N 
ATOM     10  C   UNL     1      -1.649  13.114  19.988  0.00  0.00    +0.000 A 
ATOM     11  O   UNL     1      -2.554  13.776  20.479  0.00  0.00    +0.000 OA
ATOM     12  N   UNL     1      -1.698  11.757  19.647  0.00  0.00    +0.000 N 
ATOM     13  C   UNL     1      -0.464  11.383  19.130  0.00  0.00    +0.000 A 
ATOM     14  C   UNL     1      -0.036  10.156  18.670  0.00  0.00    +0.000 A 
ATOM     15  H   UNL     1      -0.049  14.515  19.804  0.00  0.00    +0.000 HD
ATOM     16  H   UNL     1      -2.508  11.175  19.778  0.00  0.00    +0.000 HD
ENDBRANCH   3   5
BRANCH   1  17
ATOM     17  C   UNL     1       2.792   6.597  18.020  0.00  0.00    +0.000 C 
BRANCH  17  19
ATOM     18  C   UNL     1       5.107   6.807  17.347  0.00  0.00    +0.000 C 
ATOM     19  N   UNL     1       4.202   6.379  18.424  0.00  0.00    +0.000 NA
BRANCH  19  20
ATOM     20  C   UNL     1       4.493   4.993  18.890  0.00  0.00    +0.000 C 
ATOM     21  C   UNL     1       5.199   4.122  17.817  0.00  0.00    +0.000 C 
ATOM     22  C   UNL     1       4.254   3.843  16.652  0.00  0.00    +0.000 C 
ATOM     23  C   UNL     1       3.127   2.936  17.129  0.00  0.00    +0.000 C 
ATOM     24  C   UNL     1       2.543   3.358  18.456  0.00  0.00    +0.000 A 
ATOM     25  C   UNL     1       1.331   2.773  18.861  0.00  0.00    +0.000 A 
ATOM     26  C   UNL     1       0.762   3.089  20.092  0.00  0.00    +0.000 A 
ATOM     27  C   UNL     1       1.425   3.948  20.960  0.00  0.00    +0.000 A 
ATOM     28  C   UNL     1       2.656   4.492  20.592  0.00  0.00    +0.000 A 
ATOM     29  C   UNL     1       3.215   4.249  19.321  0.00  0.00    +0.000 A 
ENDBRANCH  19  20
ENDBRANCH  17  19
ENDBRANCH   1  17
TORSDOF 4
ENDMDL
MODEL 6
REMARK VINA RESULT:      -8.4      5.777      7.333
REMARK  Name = 
REMARK  5 active torsions:
REMARK  status: ('A' for Active; 'I' for Inactive)
REMARK    1  A    between atoms: C_1  and  N_2
REMARK    2  A    between atoms: N_2  and  C_3
REMARK    3  A    between atoms: N_2  and  C_17
REMARK    4  A    between atoms: C_3  and  C_4
REMARK    5  A    between atoms: N_6  and  C_7
REMARK                            x       y       z     vdW  Elec       q    Type
REMARK                         _______ _______ _______ _____ _____    ______ ____
ROOT
ATOM      1  C   UNL     1       2.297   5.523  19.974  0.00  0.00    +0.000 C 
ATOM      2  O   UNL     1       1.166   5.216  20.368  0.00  0.00    +0.000 OA
ATOM      3  N   UNL     1       2.698   6.812  19.651  0.00  0.00    +0.000 N 
ATOM      4  H   UNL     1       3.518   6.918  19.065  0.00  0.00    +0.000 HD
ENDROOT
BRANCH   3   5
ATOM      5  C   UNL     1       1.882   7.949  19.847  0.00  0.00    +0.000 A 
ATOM      6  C   UNL     1       1.347   8.248  21.126  0.00  0.00    +0.000 A 
ATOM      7  C   UNL     1       0.505   9.330  21.355  0.00  0.00    +0.000 A 
ATOM      8  C   UNL     1       0.217  10.102  20.263  0.00  0.00    +0.000 A 
ATOM      9  N   UNL     1      -0.588  11.230  20.167  0.00  0.00    +0.000 N 
ATOM     10  C   UNL     1      -0.583  11.666  18.839  0.00  0.00    +0.000 A 
ATOM     11  O   UNL     1      -1.195  12.624  18.386  0.00  0.00    +0.000 OA
ATOM     12  N   UNL     1       0.252  10.797  18.126  0.00  0.00    +0.000 N 
ATOM     13  C   UNL     1       0.746   9.837  18.999  0.00  0.00    +0.000 A 
ATOM     14  C   UNL     1       1.594   8.776  18.757  0.00  0.00    +0.000 A 
ATOM     15  H   UNL     1      -1.107  11.669  20.908  0.00  0.00    +0.000 HD
ATOM     16  H   UNL     1       0.435  10.879  17.140  0.00  0.00    +0.000 HD
ENDBRANCH   3   5
BRANCH   1  17
ATOM     17  C   UNL     1       3.354   4.448  19.744  0.00  0.00    +0.000 C 
BRANCH  17  19
ATOM     18  C   UNL     1       2.859   3.883  17.443  0.00  0.00    +0.000 C 
ATOM     19  N   UNL     1       3.858   4.471  18.349  0.00  0.00    +0.000 NA
BRANCH  19  20
ATOM     20  C   UNL     1       5.206   3.856  18.181  0.00  0.00    +0.000 C 
ATOM     21  C   UNL     1       6.214   4.277  19.282  0.00  0.00    +0.000 C 
ATOM     22  C   UNL     1       6.556   5.759  19.153  0.00  0.00    +0.000 C 
ATOM     23  C   UNL     1       7.350   5.978  17.872  0.00  0.00    +0.000 C 
ATOM     24  C   UNL     1       6.769   5.257  16.679  0.00  0.00    +0.000 A 
ATOM     25  C   UNL     1       7.246   5.600  15.403  0.00  0.00    +0.000 A 
ATOM     26  C   UNL     1       6.781   4.943  14.266  0.00  0.00    +0.000 A 
ATOM     27  C   UNL     1       5.877   3.896  14.394  0.00  0.00    +0.000 A 
ATOM     28  C   UNL     1       5.438   3.509  15.661  0.00  0.00    +0.000 A 
ATOM     29  C   UNL     1       5.835   4.208  16.819  0.00  0.00    +0.000 A 
ENDBRANCH  19  20
ENDBRANCH  17  19
ENDBRANCH   1  17
TORSDOF 4
ENDMDL
MODEL 7
REMARK VINA RESULT:      -8.3      2.470      9.490
REMARK  Name = 
REMARK  5 active torsions:
REMARK  status: ('A' for Active; 'I' for Inactive)
REMARK    1  A    between atoms: C_1  and  N_2
REMARK    2  A    between atoms: N_2  and  C_3
REMARK    3  A    between atoms: N_2  and  C_17
REMARK    4  A    between atoms: C_3  and  C_4
REMARK    5  A    between atoms: N_6  and  C_7
REMARK                            x       y       z     vdW  Elec       q    Type
REMARK                         _______ _______ _______ _____ _____    ______ ____
ROOT
ATOM      1  C   UNL     1       7.873   8.448  17.909  0.00  0.00    +0.000 C 
ATOM      2  O   UNL     1       8.519   7.744  18.694  0.00  0.00    +0.000 OA
ATOM      3  N   UNL     1       6.878   7.979  17.063  0.00  0.00    +0.000 N 
ATOM      4  H   UNL     1       6.627   8.553  16.266  0.00  0.00    +0.000 HD
ENDROOT
BRANCH   3   5
ATOM      5  C   UNL     1       6.406   6.648  17.085  0.00  0.00    +0.000 A 
ATOM      6  C   UNL     1       7.050   5.635  16.330  0.00  0.00    +0.000 A 
ATOM      7  C   UNL     1       6.593   4.322  16.288  0.00  0.00    +0.000 A 
ATOM      8  C   UNL     1       5.474   4.058  17.028  0.00  0.00    +0.000 A 
ATOM      9  N   UNL     1       4.779   2.865  17.183  0.00  0.00    +0.000 N 
ATOM     10  C   UNL     1       3.691   3.092  18.030  0.00  0.00    +0.000 A 
ATOM     11  O   UNL     1       2.854   2.268  18.375  0.00  0.00    +0.000 OA
ATOM     12  N   UNL     1       3.739   4.440  18.406  0.00  0.00    +0.000 N 
ATOM     13  C   UNL     1       4.834   5.034  17.793  0.00  0.00    +0.000 A 
ATOM     14  C   UNL     1       5.281   6.337  17.857  0.00  0.00    +0.000 A 
ATOM     15  H   UNL     1       4.995   1.979  16.758  0.00  0.00    +0.000 HD
ATOM     16  H   UNL     1       3.068   4.876  19.016  0.00  0.00    +0.000 HD
ENDBRANCH   3   5
BRANCH   1  17
ATOM     17  C   UNL     1       8.187   9.934  17.765  0.00  0.00    +0.000 C 
BRANCH  17  19
ATOM     18  C   UNL     1       9.138  10.523  19.911  0.00  0.00    +0.000 C 
ATOM     19  N   UNL     1       9.430  10.300  18.486  0.00  0.00    +0.000 NA
BRANCH  19  20
ATOM     20  C   UNL     1      10.173  11.439  17.876  0.00  0.00    +0.000 C 
ATOM     21  C   UNL     1      11.689  11.431  18.209  0.00  0.00    +0.000 C 
ATOM     22  C   UNL     1      11.909  11.705  19.694  0.00  0.00    +0.000 C 
ATOM     23  C   UNL     1      11.508  13.142  20.002  0.00  0.00    +0.000 C 
ATOM     24  C   UNL     1      10.195  13.542  19.374  0.00  0.00    +0.000 A 
ATOM     25  C   UNL     1       9.591  14.734  19.807  0.00  0.00    +0.000 A 
ATOM     26  C   UNL     1       8.400  15.180  19.238  0.00  0.00    +0.000 A 
ATOM     27  C   UNL     1       7.827  14.470  18.190  0.00  0.00    +0.000 A 
ATOM     28  C   UNL     1       8.446  13.314  17.714  0.00  0.00    +0.000 A 
ATOM     29  C   UNL     1       9.609  12.802  18.323  0.00  0.00    +0.000 A 
ENDBRANCH  19  20
ENDBRANCH  17  19
ENDBRANCH   1  17
TORSDOF 4
ENDMDL
MODEL 8
REMARK VINA RESULT:      -8.3      5.879      7.366
REMARK  Name = 
REMARK  5 active torsions:
REMARK  status: ('A' for Active; 'I' for Inactive)
REMARK    1  A    between atoms: C_1  and  N_2
REMARK    2  A    between atoms: N_2  and  C_3
REMARK    3  A    between atoms: N_2  and  C_17
REMARK    4  A    between atoms: C_3  and  C_4
REMARK    5  A    between atoms: N_6  and  C_7
REMARK                            x       y       z     vdW  Elec       q    Type
REMARK                         _______ _______ _______ _____ _____    ______ ____
ROOT
ATOM      1  C   UNL     1       3.638   7.038  18.001  0.00  0.00    +0.000 C 
ATOM      2  O   UNL     1       3.765   8.090  17.365  0.00  0.00    +0.000 OA
ATOM      3  N   UNL     1       2.823   6.879  19.113  0.00  0.00    +0.000 N 
ATOM      4  H   UNL     1       3.012   6.097  19.729  0.00  0.00    +0.000 HD
ENDROOT
BRANCH   3   5
ATOM      5  C   UNL     1       1.948   7.885  19.581  0.00  0.00    +0.000 A 
ATOM      6  C   UNL     1       1.454   8.886  18.705  0.00  0.00    +0.000 A 
ATOM      7  C   UNL     1       0.628   9.919  19.132  0.00  0.00    +0.000 A 
ATOM      8  C   UNL     1       0.311   9.916  20.462  0.00  0.00    +0.000 A 
ATOM      9  N   UNL     1      -0.475  10.806  21.184  0.00  0.00    +0.000 N 
ATOM     10  C   UNL     1      -0.497  10.394  22.520  0.00  0.00    +0.000 A 
ATOM     11  O   UNL     1      -1.079  10.950  23.442  0.00  0.00    +0.000 OA
ATOM     12  N   UNL     1       0.274   9.229  22.602  0.00  0.00    +0.000 N 
ATOM     13  C   UNL     1       0.770   8.932  21.339  0.00  0.00    +0.000 A 
ATOM     14  C   UNL     1       1.579   7.894  20.930  0.00  0.00    +0.000 A 
ATOM     15  H   UNL     1      -0.947  11.620  20.832  0.00  0.00    +0.000 HD
ATOM     16  H   UNL     1       0.431   8.719  23.456  0.00  0.00    +0.000 HD
ENDBRANCH   3   5
BRANCH   1  17
ATOM     17  C   UNL     1       4.456   5.805  17.628  0.00  0.00    +0.000 C 
BRANCH  17  19
ATOM     18  C   UNL     1       6.254   5.193  19.127  0.00  0.00    +0.000 C 
ATOM     19  N   UNL     1       4.825   5.015  18.827  0.00  0.00    +0.000 NA
BRANCH  19  20
ATOM     20  C   UNL     1       4.440   3.577  18.748  0.00  0.00    +0.000 C 
ATOM     21  C   UNL     1       4.085   3.115  17.309  0.00  0.00    +0.000 C 
ATOM     22  C   UNL     1       2.798   3.785  16.837  0.00  0.00    +0.000 C 
ATOM     23  C   UNL     1       1.629   3.253  17.656  0.00  0.00    +0.000 C 
ATOM     24  C   UNL     1       1.917   3.190  19.136  0.00  0.00    +0.000 A 
ATOM     25  C   UNL     1       0.838   2.982  20.012  0.00  0.00    +0.000 A 
ATOM     26  C   UNL     1       1.044   2.872  21.386  0.00  0.00    +0.000 A 
ATOM     27  C   UNL     1       2.335   2.912  21.897  0.00  0.00    +0.000 A 
ATOM     28  C   UNL     1       3.419   3.063  21.032  0.00  0.00    +0.000 A 
ATOM     29  C   UNL     1       3.232   3.252  19.648  0.00  0.00    +0.000 A 
ENDBRANCH  19  20
ENDBRANCH  17  19
ENDBRANCH   1  17
TORSDOF 4
ENDMDL
MODEL 9
REMARK VINA RESULT:      -8.2      5.816      7.518
REMARK  Name = 
REMARK  5 active torsions:
REMARK  status: ('A' for Active; 'I' for Inactive)
REMARK    1  A    between atoms: C_1  and  N_2
REMARK    2  A    between atoms: N_2  and  C_3
REMARK    3  A    between atoms: N_2  and  C_17
REMARK    4  A    between atoms: C_3  and  C_4
REMARK    5  A    between atoms: N_6  and  C_7
REMARK                            x       y       z     vdW  Elec       q    Type
REMARK                         _______ _______ _______ _____ _____    ______ ____
ROOT
ATOM      1  C   UNL     1       2.318   7.922  18.585  0.00  0.00    +0.000 C 
ATOM      2  O   UNL     1       2.369   9.027  18.033  0.00  0.00    +0.000 OA
ATOM      3  N   UNL     1       1.775   7.691  19.842  0.00  0.00    +0.000 N 
ATOM      4  H   UNL     1       2.045   6.841  20.323  0.00  0.00    +0.000 HD
ENDROOT
BRANCH   3   5
ATOM      5  C   UNL     1       1.108   8.686  20.591  0.00  0.00    +0.000 A 
ATOM      6  C   UNL     1       1.204   8.718  22.006  0.00  0.00    +0.000 A 
ATOM      7  C   UNL     1       0.530   9.651  22.785  0.00  0.00    +0.000 A 
ATOM      8  C   UNL     1      -0.242  10.550  22.102  0.00  0.00    +0.000 A 
ATOM      9  N   UNL     1      -1.032  11.584  22.589  0.00  0.00    +0.000 N 
ATOM     10  C   UNL     1      -1.642  12.223  21.505  0.00  0.00    +0.000 A 
ATOM     11  O   UNL     1      -2.417  13.169  21.561  0.00  0.00    +0.000 OA
ATOM     12  N   UNL     1      -1.199  11.576  20.345  0.00  0.00    +0.000 N 
ATOM     13  C   UNL     1      -0.338  10.549  20.710  0.00  0.00    +0.000 A 
ATOM     14  C   UNL     1       0.335   9.639  19.921  0.00  0.00    +0.000 A 
ATOM     15  H   UNL     1      -1.169  11.841  23.551  0.00  0.00    +0.000 HD
ATOM     16  H   UNL     1      -1.486  11.832  19.416  0.00  0.00    +0.000 HD
ENDBRANCH   3   5
BRANCH   1  17
ATOM     17  C   UNL     1       2.935   6.695  17.921  0.00  0.00    +0.000 C 
BRANCH  17  19
ATOM     18  C   UNL     1       5.299   6.895  17.444  0.00  0.00    +0.000 C 
ATOM     19  N   UNL     1       4.305   6.435  18.426  0.00  0.00    +0.000 NA
BRANCH  19  20
ATOM     20  C   UNL     1       4.538   5.025  18.849  0.00  0.00    +0.000 C 
ATOM     21  C   UNL     1       5.201   4.156  17.747  0.00  0.00    +0.000 C 
ATOM     22  C   UNL     1       4.239   3.951  16.580  0.00  0.00    +0.000 C 
ATOM     23  C   UNL     1       3.077   3.080  17.038  0.00  0.00    +0.000 C 
ATOM     24  C   UNL     1       2.518   3.487  18.380  0.00  0.00    +0.000 A 
ATOM     25  C   UNL     1       1.285   2.944  18.775  0.00  0.00    +0.000 A 
ATOM     26  C   UNL     1       0.736   3.247  20.019  0.00  0.00    +0.000 A 
ATOM     27  C   UNL     1       1.439   4.052  20.907  0.00  0.00    +0.000 A 
ATOM     28  C   UNL     1       2.691   4.553  20.548  0.00  0.00    +0.000 A 
ATOM     29  C   UNL     1       3.232   4.323  19.267  0.00  0.00    +0.000 A 
ENDBRANCH  19  20
ENDBRANCH  17  19
ENDBRANCH   1  17
TORSDOF 4
ENDMDL
