MODEL 1
REMARK VINA RESULT:      -6.9      0.000      0.000
REMARK  Name = 
REMARK  5 active torsions:
REMARK  status: ('A' for Active; 'I' for Inactive)
REMARK    1  A    between atoms: C_1  and  C_2
REMARK    2  A    between atoms: C_3  and  C_4
REMARK    3  A    between atoms: C_19  and  C_21
REMARK    4  A    between atoms: C_21  and  N_22
REMARK    5  A    between atoms: N_25  and  C_26
REMARK                            x       y       z     vdW  Elec       q    Type
REMARK                         _______ _______ _______ _____ _____    ______ ____
ROOT
ATOM      1  C   UNL     1      -1.966  15.310  20.800  0.00  0.00    +0.000 C 
ATOM      2  C   UNL     1      -1.454  13.858  20.760  0.00  0.00    +0.000 C 
ATOM      3  C   UNL     1      -0.742  13.358  22.064  0.00  0.00    +0.000 C 
ATOM      4  C   UNL     1      -1.532  13.875  23.260  0.00  0.00    +0.000 A 
ATOM      5  C   UNL     1      -0.912  14.848  24.074  0.00  0.00    +0.000 A 
ATOM      6  C   UNL     1      -1.590  15.430  25.138  0.00  0.00    +0.000 A 
ATOM      7  C   UNL     1      -2.880  15.014  25.434  0.00  0.00    +0.000 A 
ATOM      8  C   UNL     1      -3.515  14.062  24.627  0.00  0.00    +0.000 A 
ATOM      9  C   UNL     1      -2.878  13.519  23.496  0.00  0.00    +0.000 A 
ATOM     10  C   UNL     1      -3.656  12.563  22.603  0.00  0.00    +0.000 C 
ATOM     11  C   UNL     1      -3.757  12.870  21.091  0.00  0.00    +0.000 C 
ATOM     12  N   UNL     1      -2.503  12.917  20.319  0.00  0.00    +0.000 N 
ATOM     13  C   UNL     1      -2.266  12.240  19.116  0.00  0.00    +0.000 C 
ATOM     14  O   UNL     1      -1.338  12.570  18.367  0.00  0.00    +0.000 OA
ENDROOT
BRANCH   3  15
ATOM     15  C   UNL     1      -0.396  11.850  22.067  0.00  0.00    +0.000 A 
ATOM     16  C   UNL     1      -0.936  11.016  23.064  0.00  0.00    +0.000 A 
ATOM     17  C   UNL     1      -0.520   9.687  23.204  0.00  0.00    +0.000 A 
ATOM     18  C   UNL     1       0.436   9.158  22.344  0.00  0.00    +0.000 A 
ATOM     19  C   UNL     1       0.925   9.938  21.302  0.00  0.00    +0.000 A 
ATOM     20  C   UNL     1       0.481  11.255  21.144  0.00  0.00    +0.000 A 
ENDBRANCH   3  15
BRANCH  13  21
ATOM     21  C   UNL     1      -3.153  11.069  18.713  0.00  0.00    +0.000 C 
BRANCH  21  22
ATOM     22  N   UNL     1      -3.343  11.038  17.285  0.00  0.00    +0.000 N 
ATOM     23  N   UNL     1      -4.398  11.657  16.650  0.00  0.00    +0.000 NA
ATOM     24  C   UNL     1      -4.269  11.294  15.417  0.00  0.00    +0.000 A 
ATOM     25  N   UNL     1      -3.219  10.495  15.159  0.00  0.00    +0.000 N 
ATOM     26  C   UNL     1      -2.877   9.851  13.919  0.00  0.00    +0.000 C 
ATOM     27  C   UNL     1      -2.603  10.281  16.367  0.00  0.00    +0.000 A 
ATOM     28  O   UNL     1      -1.659   9.539  16.588  0.00  0.00    +0.000 OA
ENDBRANCH  21  22
ENDBRANCH  13  21
TORSDOF 3
ENDMDL
MODEL 2
REMARK VINA RESULT:      -6.8      3.035      6.687
REMARK  Name = 
REMARK  5 active torsions:
REMARK  status: ('A' for Active; 'I' for Inactive)
REMARK    1  A    between atoms: C_1  and  C_2
REMARK    2  A    between atoms: C_3  and  C_4
REMARK    3  A    between atoms: C_19  and  C_21
REMARK    4  A    between atoms: C_21  and  N_22
REMARK    5  A    between atoms: N_25  and  C_26
REMARK                            x       y       z     vdW  Elec       q    Type
REMARK                         _______ _______ _______ _____ _____    ______ ____
ROOT
ATOM      1  C   UNL     1       1.628  12.261  20.532  0.00  0.00    +0.000 C 
ATOM      2  C   UNL     1       0.131  12.147  20.190  0.00  0.00    +0.000 C 
ATOM      3  C   UNL     1      -0.208  11.302  18.913  0.00  0.00    +0.000 C 
ATOM      4  C   UNL     1       0.691  10.072  18.911  0.00  0.00    +0.000 A 
ATOM      5  C   UNL     1       1.679   9.992  17.905  0.00  0.00    +0.000 A 
ATOM      6  C   UNL     1       2.590   8.945  17.876  0.00  0.00    +0.000 A 
ATOM      7  C   UNL     1       2.498   7.935  18.823  0.00  0.00    +0.000 A 
ATOM      8  C   UNL     1       1.535   8.005  19.836  0.00  0.00    +0.000 A 
ATOM      9  C   UNL     1       0.654   9.099  19.934  0.00  0.00    +0.000 A 
ATOM     10  C   UNL     1      -0.305   9.167  21.114  0.00  0.00    +0.000 C 
ATOM     11  C   UNL     1      -0.312  10.435  21.997  0.00  0.00    +0.000 C 
ATOM     12  N   UNL     1      -0.667  11.712  21.355  0.00  0.00    +0.000 N 
ATOM     13  C   UNL     1      -1.616  12.624  21.834  0.00  0.00    +0.000 C 
ATOM     14  O   UNL     1      -1.633  13.797  21.440  0.00  0.00    +0.000 OA
ENDROOT
BRANCH   3  15
ATOM     15  C   UNL     1      -1.718  11.053  18.691  0.00  0.00    +0.000 A 
ATOM     16  C   UNL     1      -2.143   9.855  18.087  0.00  0.00    +0.000 A 
ATOM     17  C   UNL     1      -3.478   9.660  17.718  0.00  0.00    +0.000 A 
ATOM     18  C   UNL     1      -4.422  10.653  17.953  0.00  0.00    +0.000 A 
ATOM     19  C   UNL     1      -4.043  11.812  18.620  0.00  0.00    +0.000 A 
ATOM     20  C   UNL     1      -2.714  11.988  19.020  0.00  0.00    +0.000 A 
ENDBRANCH   3  15
BRANCH  13  21
ATOM     21  C   UNL     1      -2.656  12.177  22.852  0.00  0.00    +0.000 C 
BRANCH  21  22
ATOM     22  N   UNL     1      -3.691  13.170  22.998  0.00  0.00    +0.000 N 
ATOM     23  N   UNL     1      -3.578  14.261  23.834  0.00  0.00    +0.000 NA
ATOM     24  C   UNL     1      -4.740  14.820  23.764  0.00  0.00    +0.000 A 
ATOM     25  N   UNL     1      -5.624  14.214  22.952  0.00  0.00    +0.000 N 
ATOM     26  C   UNL     1      -7.011  14.537  22.750  0.00  0.00    +0.000 C 
ATOM     27  C   UNL     1      -4.980  13.109  22.452  0.00  0.00    +0.000 A 
ATOM     28  O   UNL     1      -5.458  12.239  21.744  0.00  0.00    +0.000 OA
ENDBRANCH  21  22
ENDBRANCH  13  21
TORSDOF 3
ENDMDL
MODEL 3
REMARK VINA RESULT:      -6.7      3.046      6.768
REMARK  Name = 
REMARK  5 active torsions:
REMARK  status: ('A' for Active; 'I' for Inactive)
REMARK    1  A    between atoms: C_1  and  C_2
REMARK    2  A    between atoms: C_3  and  C_4
REMARK    3  A    between atoms: C_19  and  C_21
REMARK    4  A    between atoms: C_21  and  N_22
REMARK    5  A    between atoms: N_25  and  C_26
REMARK                            x       y       z     vdW  Elec       q    Type
REMARK                         _______ _______ _______ _____ _____    ______ ____
ROOT
ATOM      1  C   UNL     1       1.570  12.309  20.671  0.00  0.00    +0.000 C 
ATOM      2  C   UNL     1       0.070  12.184  20.344  0.00  0.00    +0.000 C 
ATOM      3  C   UNL     1      -0.272  11.416  19.021  0.00  0.00    +0.000 C 
ATOM      4  C   UNL     1       0.652  10.208  18.926  0.00  0.00    +0.000 A 
ATOM      5  C   UNL     1       1.626  10.214  17.903  0.00  0.00    +0.000 A 
ATOM      6  C   UNL     1       2.558   9.191  17.794  0.00  0.00    +0.000 A 
ATOM      7  C   UNL     1       2.501   8.120  18.674  0.00  0.00    +0.000 A 
ATOM      8  C   UNL     1       1.553   8.105  19.704  0.00  0.00    +0.000 A 
ATOM      9  C   UNL     1       0.652   9.171  19.885  0.00  0.00    +0.000 A 
ATOM     10  C   UNL     1      -0.289   9.142  21.081  0.00  0.00    +0.000 C 
ATOM     11  C   UNL     1      -0.308  10.351  22.044  0.00  0.00    +0.000 C 
ATOM     12  N   UNL     1      -0.700  11.659  21.491  0.00  0.00    +0.000 N 
ATOM     13  C   UNL     1      -1.660  12.517  22.041  0.00  0.00    +0.000 C 
ATOM     14  O   UNL     1      -1.708  13.712  21.724  0.00  0.00    +0.000 OA
ENDROOT
BRANCH   3  15
ATOM     15  C   UNL     1      -1.780  11.149  18.806  0.00  0.00    +0.000 A 
ATOM     16  C   UNL     1      -2.192   9.955  18.184  0.00  0.00    +0.000 A 
ATOM     17  C   UNL     1      -3.527   9.747  17.820  0.00  0.00    +0.000 A 
ATOM     18  C   UNL     1      -4.484  10.723  18.080  0.00  0.00    +0.000 A 
ATOM     19  C   UNL     1      -4.116  11.875  18.764  0.00  0.00    +0.000 A 
ATOM     20  C   UNL     1      -2.786  12.064  19.158  0.00  0.00    +0.000 A 
ENDBRANCH   3  15
BRANCH  13  21
ATOM     21  C   UNL     1      -2.674  11.984  23.044  0.00  0.00    +0.000 C 
BRANCH  21  22
ATOM     22  N   UNL     1      -3.878  12.775  23.025  0.00  0.00    +0.000 N 
ATOM     23  N   UNL     1      -4.892  12.585  22.110  0.00  0.00    +0.000 NA
ATOM     24  C   UNL     1      -5.711  13.554  22.355  0.00  0.00    +0.000 A 
ATOM     25  N   UNL     1      -5.348  14.374  23.357  0.00  0.00    +0.000 N 
ATOM     26  C   UNL     1      -5.993  15.585  23.790  0.00  0.00    +0.000 C 
ATOM     27  C   UNL     1      -4.135  13.911  23.803  0.00  0.00    +0.000 A 
ATOM     28  O   UNL     1      -3.419  14.425  24.647  0.00  0.00    +0.000 OA
ENDBRANCH  21  22
ENDBRANCH  13  21
TORSDOF 3
ENDMDL
MODEL 4
REMARK VINA RESULT:      -6.7      0.885      1.133
REMARK  Name = 
REMARK  5 active torsions:
REMARK  status: ('A' for Active; 'I' for Inactive)
REMARK    1  A    between atoms: C_1  and  C_2
REMARK    2  A    between atoms: C_3  and  C_4
REMARK    3  A    between atoms: C_19  and  C_21
REMARK    4  A    between atoms: C_21  and  N_22
REMARK    5  A    between atoms: N_25  and  C_26
REMARK                            x       y       z     vdW  Elec       q    Type
REMARK                         _______ _______ _______ _____ _____    ______ ____
ROOT
ATOM      1  C   UNL     1      -2.185  15.353  20.851  0.00  0.00    +0.000 C 
ATOM      2  C   UNL     1      -1.691  13.897  20.782  0.00  0.00    +0.000 C 
ATOM      3  C   UNL     1      -0.881  13.399  22.029  0.00  0.00    +0.000 C 
ATOM      4  C   UNL     1      -1.567  13.933  23.280  0.00  0.00    +0.000 A 
ATOM      5  C   UNL     1      -0.875  14.907  24.034  0.00  0.00    +0.000 A 
ATOM      6  C   UNL     1      -1.460  15.503  25.143  0.00  0.00    +0.000 A 
ATOM      7  C   UNL     1      -2.726  15.102  25.546  0.00  0.00    +0.000 A 
ATOM      8  C   UNL     1      -3.432  14.150  24.801  0.00  0.00    +0.000 A 
ATOM      9  C   UNL     1      -2.893  13.593  23.626  0.00  0.00    +0.000 A 
ATOM     10  C   UNL     1      -3.749  12.637  22.807  0.00  0.00    +0.000 C 
ATOM     11  C   UNL     1      -3.968  12.933  21.306  0.00  0.00    +0.000 C 
ATOM     12  N   UNL     1      -2.781  12.962  20.435  0.00  0.00    +0.000 N 
ATOM     13  C   UNL     1      -2.648  12.273  19.223  0.00  0.00    +0.000 C 
ATOM     14  O   UNL     1      -1.780  12.588  18.399  0.00  0.00    +0.000 OA
ENDROOT
BRANCH   3  15
ATOM     15  C   UNL     1      -0.549  11.888  22.017  0.00  0.00    +0.000 A 
ATOM     16  C   UNL     1      -0.985  11.073  23.079  0.00  0.00    +0.000 A 
ATOM     17  C   UNL     1      -0.569   9.742  23.192  0.00  0.00    +0.000 A 
ATOM     18  C   UNL     1       0.285   9.192  22.242  0.00  0.00    +0.000 A 
ATOM     19  C   UNL     1       0.665   9.952  21.143  0.00  0.00    +0.000 A 
ATOM     20  C   UNL     1       0.217  11.272  21.014  0.00  0.00    +0.000 A 
ENDBRANCH   3  15
BRANCH  13  21
ATOM     21  C   UNL     1      -3.574  11.108  18.903  0.00  0.00    +0.000 C 
BRANCH  21  22
ATOM     22  N   UNL     1      -3.258  10.540  17.616  0.00  0.00    +0.000 N 
ATOM     23  N   UNL     1      -2.176   9.713  17.402  0.00  0.00    +0.000 NA
ATOM     24  C   UNL     1      -2.181   9.528  16.123  0.00  0.00    +0.000 A 
ATOM     25  N   UNL     1      -3.173  10.145  15.456  0.00  0.00    +0.000 N 
ATOM     26  C   UNL     1      -3.379  10.212  14.034  0.00  0.00    +0.000 C 
ATOM     27  C   UNL     1      -3.884  10.844  16.400  0.00  0.00    +0.000 A 
ATOM     28  O   UNL     1      -4.813  11.609  16.201  0.00  0.00    +0.000 OA
ENDBRANCH  21  22
ENDBRANCH  13  21
TORSDOF 3
ENDMDL
MODEL 5
REMARK VINA RESULT:      -6.7      2.752      7.170
REMARK  Name = 
REMARK  5 active torsions:
REMARK  status: ('A' for Active; 'I' for Inactive)
REMARK    1  A    between atoms: C_1  and  C_2
REMARK    2  A    between atoms: C_3  and  C_4
REMARK    3  A    between atoms: C_19  and  C_21
REMARK    4  A    between atoms: C_21  and  N_22
REMARK    5  A    between atoms: N_25  and  C_26
REMARK                            x       y       z     vdW  Elec       q    Type
REMARK                         _______ _______ _______ _____ _____    ______ ____
ROOT
ATOM      1  C   UNL     1       1.829  12.278  20.066  0.00  0.00    +0.000 C 
ATOM      2  C   UNL     1       0.322  12.186  19.763  0.00  0.00    +0.000 C 
ATOM      3  C   UNL     1      -0.081  11.162  18.647  0.00  0.00    +0.000 C 
ATOM      4  C   UNL     1       0.756   9.903  18.838  0.00  0.00    +0.000 A 
ATOM      5  C   UNL     1       1.720   9.609  17.849  0.00  0.00    +0.000 A 
ATOM      6  C   UNL     1       2.578   8.526  17.983  0.00  0.00    +0.000 A 
ATOM      7  C   UNL     1       2.455   7.691  19.084  0.00  0.00    +0.000 A 
ATOM      8  C   UNL     1       1.515   7.976  20.082  0.00  0.00    +0.000 A 
ATOM      9  C   UNL     1       0.691   9.115  20.008  0.00  0.00    +0.000 A 
ATOM     10  C   UNL     1      -0.241   9.424  21.171  0.00  0.00    +0.000 C 
ATOM     11  C   UNL     1      -0.170  10.819  21.832  0.00  0.00    +0.000 C 
ATOM     12  N   UNL     1      -0.474  11.990  20.992  0.00  0.00    +0.000 N 
ATOM     13  C   UNL     1      -1.368  13.015  21.324  0.00  0.00    +0.000 C 
ATOM     14  O   UNL     1      -1.336  14.107  20.743  0.00  0.00    +0.000 OA
ENDROOT
BRANCH   3  15
ATOM     15  C   UNL     1      -1.606  10.957  18.485  0.00  0.00    +0.000 A 
ATOM     16  C   UNL     1      -2.092   9.747  17.954  0.00  0.00    +0.000 A 
ATOM     17  C   UNL     1      -3.445   9.583  17.637  0.00  0.00    +0.000 A 
ATOM     18  C   UNL     1      -4.345  10.621  17.852  0.00  0.00    +0.000 A 
ATOM     19  C   UNL     1      -3.904  11.796  18.449  0.00  0.00    +0.000 A 
ATOM     20  C   UNL     1      -2.557  11.943  18.798  0.00  0.00    +0.000 A 
ENDBRANCH   3  15
BRANCH  13  21
ATOM     21  C   UNL     1      -2.409  12.796  22.413  0.00  0.00    +0.000 C 
BRANCH  21  22
ATOM     22  N   UNL     1      -2.513  13.954  23.265  0.00  0.00    +0.000 N 
ATOM     23  N   UNL     1      -1.528  14.327  24.155  0.00  0.00    +0.000 NA
ATOM     24  C   UNL     1      -2.052  15.320  24.793  0.00  0.00    +0.000 A 
ATOM     25  N   UNL     1      -3.296  15.658  24.409  0.00  0.00    +0.000 N 
ATOM     26  C   UNL     1      -4.169  16.641  24.994  0.00  0.00    +0.000 C 
ATOM     27  C   UNL     1      -3.644  14.764  23.427  0.00  0.00    +0.000 A 
ATOM     28  O   UNL     1      -4.727  14.668  22.873  0.00  0.00    +0.000 OA
ENDBRANCH  21  22
ENDBRANCH  13  21
TORSDOF 3
ENDMDL
MODEL 6
REMARK VINA RESULT:      -6.5      3.555      5.293
REMARK  Name = 
REMARK  5 active torsions:
REMARK  status: ('A' for Active; 'I' for Inactive)
REMARK    1  A    between atoms: C_1  and  C_2
REMARK    2  A    between atoms: C_3  and  C_4
REMARK    3  A    between atoms: C_19  and  C_21
REMARK    4  A    between atoms: C_21  and  N_22
REMARK    5  A    between atoms: N_25  and  C_26
REMARK                            x       y       z     vdW  Elec       q    Type
REMARK                         _______ _______ _______ _____ _____    ______ ____
ROOT
ATOM      1  C   UNL     1       2.562  14.164  20.756  0.00  0.00    +0.000 C 
ATOM      2  C   UNL     1       1.272  13.456  21.210  0.00  0.00    +0.000 C 
ATOM      3  C   UNL     1       0.083  14.402  21.597  0.00  0.00    +0.000 C 
ATOM      4  C   UNL     1       0.035  15.537  20.582  0.00  0.00    +0.000 A 
ATOM      5  C   UNL     1       0.360  16.832  21.041  0.00  0.00    +0.000 A 
ATOM      6  C   UNL     1       0.418  17.910  20.167  0.00  0.00    +0.000 A 
ATOM      7  C   UNL     1       0.104  17.720  18.829  0.00  0.00    +0.000 A 
ATOM      8  C   UNL     1      -0.205  16.440  18.354  0.00  0.00    +0.000 A 
ATOM      9  C   UNL     1      -0.188  15.319  19.204  0.00  0.00    +0.000 A 
ATOM     10  C   UNL     1      -0.436  13.940  18.608  0.00  0.00    +0.000 C 
ATOM     11  C   UNL     1       0.602  12.823  18.856  0.00  0.00    +0.000 C 
ATOM     12  N   UNL     1       0.848  12.416  20.250  0.00  0.00    +0.000 N 
ATOM     13  C   UNL     1       0.845  11.098  20.723  0.00  0.00    +0.000 C 
ATOM     14  O   UNL     1       1.367  10.803  21.805  0.00  0.00    +0.000 OA
ENDROOT
BRANCH   3  15
ATOM     15  C   UNL     1      -1.252  13.672  21.878  0.00  0.00    +0.000 A 
ATOM     16  C   UNL     1      -2.407  14.039  21.162  0.00  0.00    +0.000 A 
ATOM     17  C   UNL     1      -3.665  13.524  21.498  0.00  0.00    +0.000 A 
ATOM     18  C   UNL     1      -3.794  12.623  22.550  0.00  0.00    +0.000 A 
ATOM     19  C   UNL     1      -2.658  12.186  23.219  0.00  0.00    +0.000 A 
ATOM     20  C   UNL     1      -1.398  12.675  22.857  0.00  0.00    +0.000 A 
ENDBRANCH   3  15
BRANCH  13  21
ATOM     21  C   UNL     1       0.183   9.997  19.905  0.00  0.00    +0.000 C 
BRANCH  21  22
ATOM     22  N   UNL     1       1.173   9.170  19.262  0.00  0.00    +0.000 N 
ATOM     23  N   UNL     1       1.588   9.362  17.961  0.00  0.00    +0.000 NA
ATOM     24  C   UNL     1       2.372   8.361  17.739  0.00  0.00    +0.000 A 
ATOM     25  N   UNL     1       2.533   7.515  18.772  0.00  0.00    +0.000 N 
ATOM     26  C   UNL     1       3.252   6.270  18.796  0.00  0.00    +0.000 C 
ATOM     27  C   UNL     1       1.738   7.998  19.782  0.00  0.00    +0.000 A 
ATOM     28  O   UNL     1       1.528   7.475  20.864  0.00  0.00    +0.000 OA
ENDBRANCH  21  22
ENDBRANCH  13  21
TORSDOF 3
ENDMDL
MODEL 7
REMARK VINA RESULT:      -6.5      2.736      7.088
REMARK  Name = 
REMARK  5 active torsions:
REMARK  status: ('A' for Active; 'I' for Inactive)
REMARK    1  A    between atoms: C_1  and  C_2
REMARK    2  A    between atoms: C_3  and  C_4
REMARK    3  A    between atoms: C_19  and  C_21
REMARK    4  A    between atoms: C_21  and  N_22
REMARK    5  A    between atoms: N_25  and  C_26
REMARK                            x       y       z     vdW  Elec       q    Type
REMARK                         _______ _______ _______ _____ _____    ______ ____
ROOT
ATOM      1  C   UNL     1       1.632  12.375  20.107  0.00  0.00    +0.000 C 
ATOM      2  C   UNL     1       0.134  12.246  19.773  0.00  0.00    +0.000 C 
ATOM      3  C   UNL     1      -0.218  11.234  18.628  0.00  0.00    +0.000 C 
ATOM      4  C   UNL     1       0.652   9.996  18.810  0.00  0.00    +0.000 A 
ATOM      5  C   UNL     1       1.643   9.751  17.834  0.00  0.00    +0.000 A 
ATOM      6  C   UNL     1       2.530   8.690  17.963  0.00  0.00    +0.000 A 
ATOM      7  C   UNL     1       2.410   7.829  19.044  0.00  0.00    +0.000 A 
ATOM      8  C   UNL     1       1.443   8.066  20.029  0.00  0.00    +0.000 A 
ATOM      9  C   UNL     1       0.588   9.182  19.962  0.00  0.00    +0.000 A 
ATOM     10  C   UNL     1      -0.374   9.440  21.113  0.00  0.00    +0.000 C 
ATOM     11  C   UNL     1      -0.356  10.822  21.804  0.00  0.00    +0.000 C 
ATOM     12  N   UNL     1      -0.678  12.001  20.982  0.00  0.00    +0.000 N 
ATOM     13  C   UNL     1      -1.608  12.993  21.318  0.00  0.00    +0.000 C 
ATOM     14  O   UNL     1      -1.597  14.098  20.759  0.00  0.00    +0.000 OA
ENDROOT
BRANCH   3  15
ATOM     15  C   UNL     1      -1.733  10.989  18.433  0.00  0.00    +0.000 A 
ATOM     16  C   UNL     1      -2.182   9.725  18.005  0.00  0.00    +0.000 A 
ATOM     17  C   UNL     1      -3.520   9.509  17.657  0.00  0.00    +0.000 A 
ATOM     18  C   UNL     1      -4.442  10.547  17.738  0.00  0.00    +0.000 A 
ATOM     19  C   UNL     1      -4.039  11.782  18.233  0.00  0.00    +0.000 A 
ATOM     20  C   UNL     1      -2.708  11.985  18.614  0.00  0.00    +0.000 A 
ENDBRANCH   3  15
BRANCH  13  21
ATOM     21  C   UNL     1      -2.663  12.721  22.381  0.00  0.00    +0.000 C 
BRANCH  21  22
ATOM     22  N   UNL     1      -2.908  13.899  23.175  0.00  0.00    +0.000 N 
ATOM     23  N   UNL     1      -4.078  14.625  23.106  0.00  0.00    +0.000 NA
ATOM     24  C   UNL     1      -3.850  15.645  23.865  0.00  0.00    +0.000 A 
ATOM     25  N   UNL     1      -2.639  15.670  24.448  0.00  0.00    +0.000 N 
ATOM     26  C   UNL     1      -2.062  16.713  25.253  0.00  0.00    +0.000 C 
ATOM     27  C   UNL     1      -1.980  14.554  23.995  0.00  0.00    +0.000 A 
ATOM     28  O   UNL     1      -0.819  14.248  24.214  0.00  0.00    +0.000 OA
ENDBRANCH  21  22
ENDBRANCH  13  21
TORSDOF 3
ENDMDL
MODEL 8
REMARK VINA RESULT:      -6.4      3.488      5.311
REMARK  Name = 
REMARK  5 active torsions:
REMARK  status: ('A' for Active; 'I' for Inactive)
REMARK    1  A    between atoms: C_1  and  C_2
REMARK    2  A    between atoms: C_3  and  C_4
REMARK    3  A    between atoms: C_19  and  C_21
REMARK    4  A    between atoms: C_21  and  N_22
REMARK    5  A    between atoms: N_25  and  C_26
REMARK                            x       y       z     vdW  Elec       q    Type
REMARK                         _______ _______ _______ _____ _____    ______ ____
ROOT
ATOM      1  C   UNL     1       2.673  13.991  20.598  0.00  0.00    +0.000 C 
ATOM      2  C   UNL     1       1.393  13.309  21.114  0.00  0.00    +0.000 C 
ATOM      3  C   UNL     1       0.235  14.278  21.537  0.00  0.00    +0.000 C 
ATOM      4  C   UNL     1       0.162  15.401  20.510  0.00  0.00    +0.000 A 
ATOM      5  C   UNL     1       0.525  16.697  20.939  0.00  0.00    +0.000 A 
ATOM      6  C   UNL     1       0.562  17.762  20.050  0.00  0.00    +0.000 A 
ATOM      7  C   UNL     1       0.190  17.561  18.728  0.00  0.00    +0.000 A 
ATOM      8  C   UNL     1      -0.157  16.280  18.283  0.00  0.00    +0.000 A 
ATOM      9  C   UNL     1      -0.122  15.169  19.146  0.00  0.00    +0.000 A 
ATOM     10  C   UNL     1      -0.415  13.788  18.579  0.00  0.00    +0.000 C 
ATOM     11  C   UNL     1       0.616  12.658  18.798  0.00  0.00    +0.000 C 
ATOM     12  N   UNL     1       0.914  12.264  20.186  0.00  0.00    +0.000 N 
ATOM     13  C   UNL     1       0.911  10.952  20.675  0.00  0.00    +0.000 C 
ATOM     14  O   UNL     1       1.473  10.663  21.739  0.00  0.00    +0.000 OA
ENDROOT
BRANCH   3  15
ATOM     15  C   UNL     1      -1.098  13.572  21.882  0.00  0.00    +0.000 A 
ATOM     16  C   UNL     1      -2.295  14.022  21.294  0.00  0.00    +0.000 A 
ATOM     17  C   UNL     1      -3.538  13.525  21.701  0.00  0.00    +0.000 A 
ATOM     18  C   UNL     1      -3.612  12.558  22.699  0.00  0.00    +0.000 A 
ATOM     19  C   UNL     1      -2.441  12.041  23.239  0.00  0.00    +0.000 A 
ATOM     20  C   UNL     1      -1.198  12.515  22.803  0.00  0.00    +0.000 A 
ENDBRANCH   3  15
BRANCH  13  21
ATOM     21  C   UNL     1       0.199   9.852  19.899  0.00  0.00    +0.000 C 
BRANCH  21  22
ATOM     22  N   UNL     1       1.124   8.813  19.518  0.00  0.00    +0.000 N 
ATOM     23  N   UNL     1       1.465   7.765  20.347  0.00  0.00    +0.000 NA
ATOM     24  C   UNL     1       2.387   7.143  19.690  0.00  0.00    +0.000 A 
ATOM     25  N   UNL     1       2.692   7.668  18.491  0.00  0.00    +0.000 N 
ATOM     26  C   UNL     1       3.735   7.265  17.585  0.00  0.00    +0.000 C 
ATOM     27  C   UNL     1       1.903   8.784  18.355  0.00  0.00    +0.000 A 
ATOM     28  O   UNL     1       1.933   9.597  17.446  0.00  0.00    +0.000 OA
ENDBRANCH  21  22
ENDBRANCH  13  21
TORSDOF 3
ENDMDL
MODEL 9
REMARK VINA RESULT:      -6.2      3.401      6.661
REMARK  Name = 
REMARK  5 active torsions:
REMARK  status: ('A' for Active; 'I' for Inactive)
REMARK    1  A    between atoms: C_1  and  C_2
REMARK    2  A    between atoms: C_3  and  C_4
REMARK    3  A    between atoms: C_19  and  C_21
REMARK    4  A    between atoms: C_21  and  N_22
REMARK    5  A    between atoms: N_25  and  C_26
REMARK                            x       y       z     vdW  Elec       q    Type
REMARK                         _______ _______ _______ _____ _____    ______ ____
ROOT
ATOM      1  C   UNL     1      -0.314  10.668  22.244  0.00  0.00    +0.000 C 
ATOM      2  C   UNL     1      -0.241  12.180  21.958  0.00  0.00    +0.000 C 
ATOM      3  C   UNL     1       0.495  12.582  20.633  0.00  0.00    +0.000 C 
ATOM      4  C   UNL     1       0.076  11.600  19.546  0.00  0.00    +0.000 A 
ATOM      5  C   UNL     1       1.062  10.714  19.057  0.00  0.00    +0.000 A 
ATOM      6  C   UNL     1       0.747   9.737  18.123  0.00  0.00    +0.000 A 
ATOM      7  C   UNL     1      -0.546   9.659  17.626  0.00  0.00    +0.000 A 
ATOM      8  C   UNL     1      -1.539  10.519  18.110  0.00  0.00    +0.000 A 
ATOM      9  C   UNL     1      -1.263  11.463  19.117  0.00  0.00    +0.000 A 
ATOM     10  C   UNL     1      -2.406  12.301  19.673  0.00  0.00    +0.000 C 
ATOM     11  C   UNL     1      -2.649  12.312  21.199  0.00  0.00    +0.000 C 
ATOM     12  N   UNL     1      -1.567  12.822  22.059  0.00  0.00    +0.000 N 
ATOM     13  C   UNL     1      -1.718  13.783  23.067  0.00  0.00    +0.000 C 
ATOM     14  O   UNL     1      -0.862  13.926  23.949  0.00  0.00    +0.000 OA
ENDROOT
BRANCH   3  15
ATOM     15  C   UNL     1       0.401  14.085  20.278  0.00  0.00    +0.000 A 
ATOM     16  C   UNL     1       0.889  15.044  21.185  0.00  0.00    +0.000 A 
ATOM     17  C   UNL     1       0.675  16.412  20.981  0.00  0.00    +0.000 A 
ATOM     18  C   UNL     1      -0.022  16.853  19.861  0.00  0.00    +0.000 A 
ATOM     19  C   UNL     1      -0.443  15.930  18.912  0.00  0.00    +0.000 A 
ATOM     20  C   UNL     1      -0.197  14.566  19.101  0.00  0.00    +0.000 A 
ENDBRANCH   3  15
BRANCH  13  21
ATOM     21  C   UNL     1      -2.948  14.680  23.087  0.00  0.00    +0.000 C 
BRANCH  21  22
ATOM     22  N   UNL     1      -4.091  13.972  23.607  0.00  0.00    +0.000 N 
ATOM     23  N   UNL     1      -3.993  12.968  24.547  0.00  0.00    +0.000 NA
ATOM     24  C   UNL     1      -5.202  12.526  24.649  0.00  0.00    +0.000 A 
ATOM     25  N   UNL     1      -6.109  13.145  23.872  0.00  0.00    +0.000 N 
ATOM     26  C   UNL     1      -7.497  12.813  23.691  0.00  0.00    +0.000 C 
ATOM     27  C   UNL     1      -5.411  14.082  23.152  0.00  0.00    +0.000 A 
ATOM     28  O   UNL     1      -5.846  14.799  22.266  0.00  0.00    +0.000 OA
ENDBRANCH  21  22
ENDBRANCH  13  21
TORSDOF 3
ENDMDL
