MODEL 1
REMARK VINA RESULT:      -8.7      0.000      0.000
REMARK  Name = 
REMARK  4 active torsions:
REMARK  status: ('A' for Active; 'I' for Inactive)
REMARK    1  A    between atoms: C_2  and  C_3
REMARK    2  A    between atoms: C_3  and  C_4
REMARK    3  A    between atoms: C_4  and  N_5
REMARK    4  A    between atoms: N_16  and  C_17
REMARK                            x       y       z     vdW  Elec       q    Type
REMARK                         _______ _______ _______ _____ _____    ______ ____
ROOT
ATOM      1  O   UNL     1       0.635   4.928  20.428  0.00  0.00    +0.000 OA
ATOM      2  C   UNL     1       1.839   5.115  20.579  0.00  0.00    +0.000 C 
ATOM      3  N   UNL     1       2.495   6.318  20.432  0.00  0.00    +0.000 N 
ATOM      4  H   UNL     1       3.504   6.289  20.349  0.00  0.00    +0.000 HD
ENDROOT
BRANCH   3   5
ATOM      5  C   UNL     1       1.904   7.574  20.209  0.00  0.00    +0.000 A 
ATOM      6  C   UNL     1       1.870   8.234  18.978  0.00  0.00    +0.000 A 
ATOM      7  C   UNL     1       1.256   9.479  18.854  0.00  0.00    +0.000 A 
ATOM      8  C   UNL     1       0.666  10.084  19.956  0.00  0.00    +0.000 A 
ATOM      9  C   UNL     1       0.740   9.447  21.187  0.00  0.00    +0.000 A 
ATOM     10  C   UNL     1       1.319   8.187  21.317  0.00  0.00    +0.000 A 
ATOM     11  N   UNL     1       0.255  10.064  22.345  0.00  0.00    +0.000 N 
ATOM     12  C   UNL     1      -0.722  11.015  22.200  0.00  0.00    +0.000 C 
ATOM     13  O   UNL     1      -1.495  11.291  23.115  0.00  0.00    +0.000 OA
ATOM     14  C   UNL     1      -0.716  11.750  20.862  0.00  0.00    +0.000 C 
ATOM     15  O   UNL     1       0.117  11.323  19.794  0.00  0.00    +0.000 OA
ATOM     16  H   UNL     1       1.033  10.469  22.867  0.00  0.00    +0.000 HD
ENDBRANCH   3   5
BRANCH   2  17
ATOM     17  C   UNL     1       2.757   3.952  20.882  0.00  0.00    +0.000 C 
BRANCH  17  18
ATOM     18  C   UNL     1       3.008   3.060  19.670  0.00  0.00    +0.000 C 
BRANCH  18  19
ATOM     19  N   UNL     1       4.037   3.631  18.817  0.00  0.00    +0.000 N 
ATOM     20  C   UNL     1       5.240   4.007  19.366  0.00  0.00    +0.000 A 
ATOM     21  N   UNL     1       6.256   4.424  18.693  0.00  0.00    +0.000 NA
ATOM     22  C   UNL     1       6.138   4.470  17.299  0.00  0.00    +0.000 A 
ATOM     23  C   UNL     1       7.250   4.858  16.545  0.00  0.00    +0.000 A 
ATOM     24  C   UNL     1       7.185   4.885  15.150  0.00  0.00    +0.000 A 
ATOM     25  C   UNL     1       6.003   4.536  14.492  0.00  0.00    +0.000 A 
ATOM     26  C   UNL     1       4.882   4.159  15.231  0.00  0.00    +0.000 A 
ATOM     27  C   UNL     1       4.961   4.123  16.628  0.00  0.00    +0.000 A 
ATOM     28  C   UNL     1       3.822   3.665  17.445  0.00  0.00    +0.000 A 
ATOM     29  O   UNL     1       2.773   3.310  16.912  0.00  0.00    +0.000 OA
ENDBRANCH  18  19
ENDBRANCH  17  18
ENDBRANCH   2  17
TORSDOF 4
ENDMDL
MODEL 2
REMARK VINA RESULT:      -8.5      6.305      7.965
REMARK  Name = 
REMARK  4 active torsions:
REMARK  status: ('A' for Active; 'I' for Inactive)
REMARK    1  A    between atoms: C_2  and  C_3
REMARK    2  A    between atoms: C_3  and  C_4
REMARK    3  A    between atoms: C_4  and  N_5
REMARK    4  A    between atoms: N_16  and  C_17
REMARK                            x       y       z     vdW  Elec       q    Type
REMARK                         _______ _______ _______ _____ _____    ______ ____
ROOT
ATOM      1  O   UNL     1       8.629   7.486  18.957  0.00  0.00    +0.000 OA
ATOM      2  C   UNL     1       7.997   8.019  18.050  0.00  0.00    +0.000 C 
ATOM      3  N   UNL     1       7.967   9.368  17.770  0.00  0.00    +0.000 N 
ATOM      4  H   UNL     1       7.230   9.698  17.158  0.00  0.00    +0.000 HD
ENDROOT
BRANCH   3   5
ATOM      5  C   UNL     1       8.745  10.369  18.377  0.00  0.00    +0.000 A 
ATOM      6  C   UNL     1       9.388  10.243  19.610  0.00  0.00    +0.000 A 
ATOM      7  C   UNL     1      10.144  11.292  20.130  0.00  0.00    +0.000 A 
ATOM      8  C   UNL     1      10.270  12.483  19.427  0.00  0.00    +0.000 A 
ATOM      9  C   UNL     1       9.593  12.622  18.223  0.00  0.00    +0.000 A 
ATOM     10  C   UNL     1       8.865  11.569  17.675  0.00  0.00    +0.000 A 
ATOM     11  N   UNL     1       9.603  13.838  17.531  0.00  0.00    +0.000 N 
ATOM     12  C   UNL     1      10.655  14.688  17.749  0.00  0.00    +0.000 C 
ATOM     13  O   UNL     1      10.986  15.534  16.920  0.00  0.00    +0.000 OA
ATOM     14  C   UNL     1      11.318  14.560  19.118  0.00  0.00    +0.000 C 
ATOM     15  O   UNL     1      10.982  13.496  19.998  0.00  0.00    +0.000 OA
ATOM     16  H   UNL     1       8.733  14.339  17.710  0.00  0.00    +0.000 HD
ENDBRANCH   3   5
BRANCH   2  17
ATOM     17  C   UNL     1       7.088   7.191  17.169  0.00  0.00    +0.000 C 
BRANCH  17  18
ATOM     18  C   UNL     1       7.288   5.690  17.352  0.00  0.00    +0.000 C 
BRANCH  18  19
ATOM     19  N   UNL     1       6.008   5.012  17.466  0.00  0.00    +0.000 N 
ATOM     20  C   UNL     1       5.328   4.652  16.327  0.00  0.00    +0.000 A 
ATOM     21  N   UNL     1       4.242   3.958  16.307  0.00  0.00    +0.000 NA
ATOM     22  C   UNL     1       3.734   3.513  17.533  0.00  0.00    +0.000 A 
ATOM     23  C   UNL     1       2.593   2.704  17.531  0.00  0.00    +0.000 A 
ATOM     24  C   UNL     1       2.072   2.210  18.729  0.00  0.00    +0.000 A 
ATOM     25  C   UNL     1       2.679   2.529  19.946  0.00  0.00    +0.000 A 
ATOM     26  C   UNL     1       3.811   3.345  19.965  0.00  0.00    +0.000 A 
ATOM     27  C   UNL     1       4.331   3.824  18.758  0.00  0.00    +0.000 A 
ATOM     28  C   UNL     1       5.565   4.633  18.727  0.00  0.00    +0.000 A 
ATOM     29  O   UNL     1       6.158   4.908  19.768  0.00  0.00    +0.000 OA
ENDBRANCH  18  19
ENDBRANCH  17  18
ENDBRANCH   2  17
TORSDOF 4
ENDMDL
MODEL 3
REMARK VINA RESULT:      -8.4      6.668      7.999
REMARK  Name = 
REMARK  4 active torsions:
REMARK  status: ('A' for Active; 'I' for Inactive)
REMARK    1  A    between atoms: C_2  and  C_3
REMARK    2  A    between atoms: C_3  and  C_4
REMARK    3  A    between atoms: C_4  and  N_5
REMARK    4  A    between atoms: N_16  and  C_17
REMARK                            x       y       z     vdW  Elec       q    Type
REMARK                         _______ _______ _______ _____ _____    ______ ____
ROOT
ATOM      1  O   UNL     1       7.475   9.667  17.605  0.00  0.00    +0.000 OA
ATOM      2  C   UNL     1       8.223   8.975  18.288  0.00  0.00    +0.000 C 
ATOM      3  N   UNL     1       9.228   9.438  19.110  0.00  0.00    +0.000 N 
ATOM      4  H   UNL     1       9.917   8.765  19.426  0.00  0.00    +0.000 HD
ENDROOT
BRANCH   3   5
ATOM      5  C   UNL     1       9.506  10.781  19.422  0.00  0.00    +0.000 A 
ATOM      6  C   UNL     1       9.604  11.296  20.717  0.00  0.00    +0.000 A 
ATOM      7  C   UNL     1       9.888  12.643  20.928  0.00  0.00    +0.000 A 
ATOM      8  C   UNL     1      10.079  13.498  19.850  0.00  0.00    +0.000 A 
ATOM      9  C   UNL     1       9.936  12.993  18.565  0.00  0.00    +0.000 A 
ATOM     10  C   UNL     1       9.689  11.641  18.341  0.00  0.00    +0.000 A 
ATOM     11  N   UNL     1      10.013  13.836  17.450  0.00  0.00    +0.000 N 
ATOM     12  C   UNL     1      10.721  15.003  17.580  0.00  0.00    +0.000 C 
ATOM     13  O   UNL     1      11.206  15.577  16.608  0.00  0.00    +0.000 OA
ATOM     14  C   UNL     1      10.783  15.568  18.998  0.00  0.00    +0.000 C 
ATOM     15  O   UNL     1      10.309  14.818  20.107  0.00  0.00    +0.000 OA
ATOM     16  H   UNL     1       9.073  14.057  17.124  0.00  0.00    +0.000 HD
ENDBRANCH   3   5
BRANCH   2  17
ATOM     17  C   UNL     1       8.141   7.467  18.215  0.00  0.00    +0.000 C 
BRANCH  17  18
ATOM     18  C   UNL     1       7.079   6.976  17.235  0.00  0.00    +0.000 C 
BRANCH  18  19
ATOM     19  N   UNL     1       6.367   5.832  17.780  0.00  0.00    +0.000 N 
ATOM     20  C   UNL     1       6.617   5.431  19.071  0.00  0.00    +0.000 A 
ATOM     21  N   UNL     1       5.974   4.502  19.689  0.00  0.00    +0.000 NA
ATOM     22  C   UNL     1       4.924   3.875  19.008  0.00  0.00    +0.000 A 
ATOM     23  C   UNL     1       4.170   2.909  19.682  0.00  0.00    +0.000 A 
ATOM     24  C   UNL     1       3.092   2.284  19.051  0.00  0.00    +0.000 A 
ATOM     25  C   UNL     1       2.762   2.608  17.732  0.00  0.00    +0.000 A 
ATOM     26  C   UNL     1       3.513   3.561  17.043  0.00  0.00    +0.000 A 
ATOM     27  C   UNL     1       4.583   4.190  17.689  0.00  0.00    +0.000 A 
ATOM     28  C   UNL     1       5.358   5.251  17.021  0.00  0.00    +0.000 A 
ATOM     29  O   UNL     1       5.083   5.601  15.875  0.00  0.00    +0.000 OA
ENDBRANCH  18  19
ENDBRANCH  17  18
ENDBRANCH   2  17
TORSDOF 4
ENDMDL
MODEL 4
REMARK VINA RESULT:      -8.4      5.988      7.902
REMARK  Name = 
REMARK  4 active torsions:
REMARK  status: ('A' for Active; 'I' for Inactive)
REMARK    1  A    between atoms: C_2  and  C_3
REMARK    2  A    between atoms: C_3  and  C_4
REMARK    3  A    between atoms: C_4  and  N_5
REMARK    4  A    between atoms: N_16  and  C_17
REMARK                            x       y       z     vdW  Elec       q    Type
REMARK                         _______ _______ _______ _____ _____    ______ ____
ROOT
ATOM      1  O   UNL     1       8.418   6.975  18.866  0.00  0.00    +0.000 OA
ATOM      2  C   UNL     1       7.820   7.499  17.932  0.00  0.00    +0.000 C 
ATOM      3  N   UNL     1       7.806   8.846  17.635  0.00  0.00    +0.000 N 
ATOM      4  H   UNL     1       7.093   9.172  16.994  0.00  0.00    +0.000 HD
ENDROOT
BRANCH   3   5
ATOM      5  C   UNL     1       8.568   9.851  18.257  0.00  0.00    +0.000 A 
ATOM      6  C   UNL     1       9.099   9.767  19.546  0.00  0.00    +0.000 A 
ATOM      7  C   UNL     1       9.847  10.816  20.078  0.00  0.00    +0.000 A 
ATOM      8  C   UNL     1      10.077  11.964  19.330  0.00  0.00    +0.000 A 
ATOM      9  C   UNL     1       9.510  12.062  18.067  0.00  0.00    +0.000 A 
ATOM     10  C   UNL     1       8.792  11.007  17.511  0.00  0.00    +0.000 A 
ATOM     11  N   UNL     1       9.624  13.240  17.319  0.00  0.00    +0.000 N 
ATOM     12  C   UNL     1      10.686  14.065  17.585  0.00  0.00    +0.000 C 
ATOM     13  O   UNL     1      11.116  14.855  16.748  0.00  0.00    +0.000 OA
ATOM     14  C   UNL     1      11.225  13.985  19.012  0.00  0.00    +0.000 C 
ATOM     15  O   UNL     1      10.777  12.981  19.911  0.00  0.00    +0.000 OA
ATOM     16  H   UNL     1       8.761  13.778  17.398  0.00  0.00    +0.000 HD
ENDBRANCH   3   5
BRANCH   2  17
ATOM     17  C   UNL     1       6.939   6.666  17.029  0.00  0.00    +0.000 C 
BRANCH  17  18
ATOM     18  C   UNL     1       5.451   6.921  17.250  0.00  0.00    +0.000 C 
BRANCH  18  19
ATOM     19  N   UNL     1       4.846   5.825  17.986  0.00  0.00    +0.000 N 
ATOM     20  C   UNL     1       5.556   4.663  18.178  0.00  0.00    +0.000 A 
ATOM     21  N   UNL     1       5.162   3.672  18.900  0.00  0.00    +0.000 NA
ATOM     22  C   UNL     1       3.935   3.798  19.563  0.00  0.00    +0.000 A 
ATOM     23  C   UNL     1       3.519   2.761  20.405  0.00  0.00    +0.000 A 
ATOM     24  C   UNL     1       2.318   2.861  21.111  0.00  0.00    +0.000 A 
ATOM     25  C   UNL     1       1.512   3.994  20.976  0.00  0.00    +0.000 A 
ATOM     26  C   UNL     1       1.909   5.032  20.131  0.00  0.00    +0.000 A 
ATOM     27  C   UNL     1       3.120   4.927  19.437  0.00  0.00    +0.000 A 
ATOM     28  C   UNL     1       3.609   6.028  18.588  0.00  0.00    +0.000 A 
ATOM     29  O   UNL     1       2.956   7.063  18.467  0.00  0.00    +0.000 OA
ENDBRANCH  18  19
ENDBRANCH  17  18
ENDBRANCH   2  17
TORSDOF 4
ENDMDL
MODEL 5
REMARK VINA RESULT:      -8.4      6.151      7.797
REMARK  Name = 
REMARK  4 active torsions:
REMARK  status: ('A' for Active; 'I' for Inactive)
REMARK    1  A    between atoms: C_2  and  C_3
REMARK    2  A    between atoms: C_3  and  C_4
REMARK    3  A    between atoms: C_4  and  N_5
REMARK    4  A    between atoms: N_16  and  C_17
REMARK                            x       y       z     vdW  Elec       q    Type
REMARK                         _______ _______ _______ _____ _____    ______ ____
ROOT
ATOM      1  O   UNL     1       8.492   7.316  18.807  0.00  0.00    +0.000 OA
ATOM      2  C   UNL     1       7.860   7.882  17.921  0.00  0.00    +0.000 C 
ATOM      3  N   UNL     1       7.844   9.239  17.680  0.00  0.00    +0.000 N 
ATOM      4  H   UNL     1       7.107   9.596  17.084  0.00  0.00    +0.000 HD
ENDROOT
BRANCH   3   5
ATOM      5  C   UNL     1       8.638  10.213  18.310  0.00  0.00    +0.000 A 
ATOM      6  C   UNL     1       9.269  10.052  19.546  0.00  0.00    +0.000 A 
ATOM      7  C   UNL     1      10.043  11.075  20.090  0.00  0.00    +0.000 A 
ATOM      8  C   UNL     1      10.199  12.276  19.409  0.00  0.00    +0.000 A 
ATOM      9  C   UNL     1       9.534  12.450  18.203  0.00  0.00    +0.000 A 
ATOM     10  C   UNL     1       8.788  11.422  17.631  0.00  0.00    +0.000 A 
ATOM     11  N   UNL     1       9.574  13.677  17.532  0.00  0.00    +0.000 N 
ATOM     12  C   UNL     1      10.643  14.502  17.773  0.00  0.00    +0.000 C 
ATOM     13  O   UNL     1      10.996  15.355  16.962  0.00  0.00    +0.000 OA
ATOM     14  C   UNL     1      11.293  14.335  19.145  0.00  0.00    +0.000 C 
ATOM     15  O   UNL     1      10.928  13.264  20.003  0.00  0.00    +0.000 OA
ATOM     16  H   UNL     1       8.713  14.193  17.714  0.00  0.00    +0.000 HD
ENDBRANCH   3   5
BRANCH   2  17
ATOM     17  C   UNL     1       6.935   7.092  17.023  0.00  0.00    +0.000 C 
BRANCH  17  18
ATOM     18  C   UNL     1       7.050   5.584  17.229  0.00  0.00    +0.000 C 
BRANCH  18  19
ATOM     19  N   UNL     1       5.885   5.071  17.928  0.00  0.00    +0.000 N 
ATOM     20  C   UNL     1       5.762   5.276  19.282  0.00  0.00    +0.000 A 
ATOM     21  N   UNL     1       4.729   4.960  19.982  0.00  0.00    +0.000 NA
ATOM     22  C   UNL     1       3.638   4.393  19.312  0.00  0.00    +0.000 A 
ATOM     23  C   UNL     1       2.481   4.101  20.041  0.00  0.00    +0.000 A 
ATOM     24  C   UNL     1       1.358   3.567  19.405  0.00  0.00    +0.000 A 
ATOM     25  C   UNL     1       1.383   3.305  18.033  0.00  0.00    +0.000 A 
ATOM     26  C   UNL     1       2.535   3.579  17.294  0.00  0.00    +0.000 A 
ATOM     27  C   UNL     1       3.649   4.126  17.939  0.00  0.00    +0.000 A 
ATOM     28  C   UNL     1       4.862   4.495  17.184  0.00  0.00    +0.000 A 
ATOM     29  O   UNL     1       4.919   4.321  15.969  0.00  0.00    +0.000 OA
ENDBRANCH  18  19
ENDBRANCH  17  18
ENDBRANCH   2  17
TORSDOF 4
ENDMDL
MODEL 6
REMARK VINA RESULT:      -8.4      6.035      7.821
REMARK  Name = 
REMARK  4 active torsions:
REMARK  status: ('A' for Active; 'I' for Inactive)
REMARK    1  A    between atoms: C_2  and  C_3
REMARK    2  A    between atoms: C_3  and  C_4
REMARK    3  A    between atoms: C_4  and  N_5
REMARK    4  A    between atoms: N_16  and  C_17
REMARK                            x       y       z     vdW  Elec       q    Type
REMARK                         _______ _______ _______ _____ _____    ______ ____
ROOT
ATOM      1  O   UNL     1       8.379   7.011  18.851  0.00  0.00    +0.000 OA
ATOM      2  C   UNL     1       7.762   7.549  17.937  0.00  0.00    +0.000 C 
ATOM      3  N   UNL     1       7.746   8.899  17.657  0.00  0.00    +0.000 N 
ATOM      4  H   UNL     1       7.019   9.236  17.037  0.00  0.00    +0.000 HD
ENDROOT
BRANCH   3   5
ATOM      5  C   UNL     1       8.526   9.894  18.273  0.00  0.00    +0.000 A 
ATOM      6  C   UNL     1       9.080   9.796  19.552  0.00  0.00    +0.000 A 
ATOM      7  C   UNL     1       9.845  10.835  20.078  0.00  0.00    +0.000 A 
ATOM      8  C   UNL     1      10.069  11.988  19.337  0.00  0.00    +0.000 A 
ATOM      9  C   UNL     1       9.480  12.100  18.084  0.00  0.00    +0.000 A 
ATOM     10  C   UNL     1       8.745  11.055  17.533  0.00  0.00    +0.000 A 
ATOM     11  N   UNL     1       9.589  13.283  17.344  0.00  0.00    +0.000 N 
ATOM     12  C   UNL     1      10.661  14.099  17.598  0.00  0.00    +0.000 C 
ATOM     13  O   UNL     1      11.083  14.892  16.760  0.00  0.00    +0.000 OA
ATOM     14  C   UNL     1      11.226  14.004  19.014  0.00  0.00    +0.000 C 
ATOM     15  O   UNL     1      10.786  12.995  19.912  0.00  0.00    +0.000 OA
ATOM     16  H   UNL     1       8.732  13.827  17.443  0.00  0.00    +0.000 HD
ENDBRANCH   3   5
BRANCH   2  17
ATOM     17  C   UNL     1       6.857   6.730  17.045  0.00  0.00    +0.000 C 
BRANCH  17  18
ATOM     18  C   UNL     1       5.382   7.084  17.207  0.00  0.00    +0.000 C 
BRANCH  18  19
ATOM     19  N   UNL     1       4.573   5.882  17.307  0.00  0.00    +0.000 N 
ATOM     20  C   UNL     1       4.995   4.728  16.691  0.00  0.00    +0.000 A 
ATOM     21  N   UNL     1       4.416   3.582  16.799  0.00  0.00    +0.000 NA
ATOM     22  C   UNL     1       3.291   3.499  17.629  0.00  0.00    +0.000 A 
ATOM     23  C   UNL     1       2.685   2.252  17.812  0.00  0.00    +0.000 A 
ATOM     24  C   UNL     1       1.582   2.118  18.658  0.00  0.00    +0.000 A 
ATOM     25  C   UNL     1       1.063   3.232  19.322  0.00  0.00    +0.000 A 
ATOM     26  C   UNL     1       1.649   4.485  19.139  0.00  0.00    +0.000 A 
ATOM     27  C   UNL     1       2.762   4.606  18.299  0.00  0.00    +0.000 A 
ATOM     28  C   UNL     1       3.454   5.898  18.132  0.00  0.00    +0.000 A 
ATOM     29  O   UNL     1       3.060   6.900  18.725  0.00  0.00    +0.000 OA
ENDBRANCH  18  19
ENDBRANCH  17  18
ENDBRANCH   2  17
TORSDOF 4
ENDMDL
MODEL 7
REMARK VINA RESULT:      -8.4      6.548      7.979
REMARK  Name = 
REMARK  4 active torsions:
REMARK  status: ('A' for Active; 'I' for Inactive)
REMARK    1  A    between atoms: C_2  and  C_3
REMARK    2  A    between atoms: C_3  and  C_4
REMARK    3  A    between atoms: C_4  and  N_5
REMARK    4  A    between atoms: N_16  and  C_17
REMARK                            x       y       z     vdW  Elec       q    Type
REMARK                         _______ _______ _______ _____ _____    ______ ____
ROOT
ATOM      1  O   UNL     1       7.373   9.411  17.441  0.00  0.00    +0.000 OA
ATOM      2  C   UNL     1       8.047   8.694  18.174  0.00  0.00    +0.000 C 
ATOM      3  N   UNL     1       9.023   9.123  19.048  0.00  0.00    +0.000 N 
ATOM      4  H   UNL     1       9.660   8.423  19.411  0.00  0.00    +0.000 HD
ENDROOT
BRANCH   3   5
ATOM      5  C   UNL     1       9.343  10.455  19.363  0.00  0.00    +0.000 A 
ATOM      6  C   UNL     1       9.427  10.972  20.658  0.00  0.00    +0.000 A 
ATOM      7  C   UNL     1       9.756  12.309  20.871  0.00  0.00    +0.000 A 
ATOM      8  C   UNL     1      10.007  13.151  19.795  0.00  0.00    +0.000 A 
ATOM      9  C   UNL     1       9.879  12.646  18.508  0.00  0.00    +0.000 A 
ATOM     10  C   UNL     1       9.587  11.303  18.283  0.00  0.00    +0.000 A 
ATOM     11  N   UNL     1      10.017  13.479  17.393  0.00  0.00    +0.000 N 
ATOM     12  C   UNL     1      10.765  14.619  17.537  0.00  0.00    +0.000 C 
ATOM     13  O   UNL     1      11.297  15.170  16.575  0.00  0.00    +0.000 OA
ATOM     14  C   UNL     1      10.811  15.189  18.953  0.00  0.00    +0.000 C 
ATOM     15  O   UNL     1      10.281  14.462  20.053  0.00  0.00    +0.000 OA
ATOM     16  H   UNL     1       9.094  13.734  17.041  0.00  0.00    +0.000 HD
ENDBRANCH   3   5
BRANCH   2  17
ATOM     17  C   UNL     1       7.900   7.191  18.111  0.00  0.00    +0.000 C 
BRANCH  17  18
ATOM     18  C   UNL     1       7.112   6.720  16.892  0.00  0.00    +0.000 C 
BRANCH  18  19
ATOM     19  N   UNL     1       5.823   6.181  17.291  0.00  0.00    +0.000 N 
ATOM     20  C   UNL     1       4.786   7.040  17.568  0.00  0.00    +0.000 A 
ATOM     21  N   UNL     1       3.579   6.674  17.827  0.00  0.00    +0.000 NA
ATOM     22  C   UNL     1       3.294   5.304  17.795  0.00  0.00    +0.000 A 
ATOM     23  C   UNL     1       1.976   4.888  18.009  0.00  0.00    +0.000 A 
ATOM     24  C   UNL     1       1.642   3.533  17.951  0.00  0.00    +0.000 A 
ATOM     25  C   UNL     1       2.625   2.575  17.691  0.00  0.00    +0.000 A 
ATOM     26  C   UNL     1       3.946   2.973  17.487  0.00  0.00    +0.000 A 
ATOM     27  C   UNL     1       4.268   4.334  17.535  0.00  0.00    +0.000 A 
ATOM     28  C   UNL     1       5.638   4.804  17.257  0.00  0.00    +0.000 A 
ATOM     29  O   UNL     1       6.530   4.004  16.985  0.00  0.00    +0.000 OA
ENDBRANCH  18  19
ENDBRANCH  17  18
ENDBRANCH   2  17
TORSDOF 4
ENDMDL
MODEL 8
REMARK VINA RESULT:      -8.3      6.580      8.998
REMARK  Name = 
REMARK  4 active torsions:
REMARK  status: ('A' for Active; 'I' for Inactive)
REMARK    1  A    between atoms: C_2  and  C_3
REMARK    2  A    between atoms: C_3  and  C_4
REMARK    3  A    between atoms: C_4  and  N_5
REMARK    4  A    between atoms: N_16  and  C_17
REMARK                            x       y       z     vdW  Elec       q    Type
REMARK                         _______ _______ _______ _____ _____    ______ ____
ROOT
ATOM      1  O   UNL     1       8.248   6.947  18.615  0.00  0.00    +0.000 OA
ATOM      2  C   UNL     1       7.744   7.825  17.922  0.00  0.00    +0.000 C 
ATOM      3  N   UNL     1       6.660   7.672  17.085  0.00  0.00    +0.000 N 
ATOM      4  H   UNL     1       6.497   8.400  16.399  0.00  0.00    +0.000 HD
ENDROOT
BRANCH   3   5
ATOM      5  C   UNL     1       5.850   6.530  16.960  0.00  0.00    +0.000 A 
ATOM      6  C   UNL     1       6.133   5.435  16.139  0.00  0.00    +0.000 A 
ATOM      7  C   UNL     1       5.270   4.343  16.085  0.00  0.00    +0.000 A 
ATOM      8  C   UNL     1       4.110   4.326  16.849  0.00  0.00    +0.000 A 
ATOM      9  C   UNL     1       3.808   5.434  17.630  0.00  0.00    +0.000 A 
ATOM     10  C   UNL     1       4.681   6.515  17.720  0.00  0.00    +0.000 A 
ATOM     11  N   UNL     1       2.602   5.508  18.334  0.00  0.00    +0.000 N 
ATOM     12  C   UNL     1       1.984   4.331  18.668  0.00  0.00    +0.000 C 
ATOM     13  O   UNL     1       1.200   4.257  19.612  0.00  0.00    +0.000 OA
ATOM     14  C   UNL     1       2.277   3.158  17.735  0.00  0.00    +0.000 C 
ATOM     15  O   UNL     1       3.274   3.255  16.728  0.00  0.00    +0.000 OA
ATOM     16  H   UNL     1       1.942   6.091  17.818  0.00  0.00    +0.000 HD
ENDBRANCH   3   5
BRANCH   2  17
ATOM     17  C   UNL     1       8.361   9.205  17.876  0.00  0.00    +0.000 C 
BRANCH  17  18
ATOM     18  C   UNL     1       8.996   9.617  19.201  0.00  0.00    +0.000 C 
BRANCH  18  19
ATOM     19  N   UNL     1       9.668  10.899  19.071  0.00  0.00    +0.000 N 
ATOM     20  C   UNL     1      10.095  11.318  17.834  0.00  0.00    +0.000 A 
ATOM     21  N   UNL     1      10.605  12.475  17.585  0.00  0.00    +0.000 NA
ATOM     22  C   UNL     1      10.704  13.383  18.646  0.00  0.00    +0.000 A 
ATOM     23  C   UNL     1      11.194  14.666  18.386  0.00  0.00    +0.000 A 
ATOM     24  C   UNL     1      11.277  15.614  19.409  0.00  0.00    +0.000 A 
ATOM     25  C   UNL     1      10.884  15.285  20.708  0.00  0.00    +0.000 A 
ATOM     26  C   UNL     1      10.404  14.005  20.985  0.00  0.00    +0.000 A 
ATOM     27  C   UNL     1      10.312  13.067  19.951  0.00  0.00    +0.000 A 
ATOM     28  C   UNL     1       9.747  11.725  20.186  0.00  0.00    +0.000 A 
ATOM     29  O   UNL     1       9.350  11.401  21.303  0.00  0.00    +0.000 OA
ENDBRANCH  18  19
ENDBRANCH  17  18
ENDBRANCH   2  17
TORSDOF 4
ENDMDL
MODEL 9
REMARK VINA RESULT:      -8.2      1.303      2.076
REMARK  Name = 
REMARK  4 active torsions:
REMARK  status: ('A' for Active; 'I' for Inactive)
REMARK    1  A    between atoms: C_2  and  C_3
REMARK    2  A    between atoms: C_3  and  C_4
REMARK    3  A    between atoms: C_4  and  N_5
REMARK    4  A    between atoms: N_16  and  C_17
REMARK                            x       y       z     vdW  Elec       q    Type
REMARK                         _______ _______ _______ _____ _____    ______ ____
ROOT
ATOM      1  O   UNL     1       0.391   4.491  20.187  0.00  0.00    +0.000 OA
ATOM      2  C   UNL     1       1.537   4.653  20.595  0.00  0.00    +0.000 C 
ATOM      3  N   UNL     1       2.160   5.867  20.793  0.00  0.00    +0.000 N 
ATOM      4  H   UNL     1       3.168   5.859  20.900  0.00  0.00    +0.000 HD
ENDROOT
BRANCH   3   5
ATOM      5  C   UNL     1       1.572   7.140  20.693  0.00  0.00    +0.000 A 
ATOM      6  C   UNL     1       0.583   7.632  21.547  0.00  0.00    +0.000 A 
ATOM      7  C   UNL     1       0.062   8.912  21.371  0.00  0.00    +0.000 A 
ATOM      8  C   UNL     1       0.520   9.721  20.339  0.00  0.00    +0.000 A 
ATOM      9  C   UNL     1       1.471   9.213  19.464  0.00  0.00    +0.000 A 
ATOM     10  C   UNL     1       2.025   7.949  19.652  0.00  0.00    +0.000 A 
ATOM     11  N   UNL     1       1.885   9.948  18.348  0.00  0.00    +0.000 N 
ATOM     12  C   UNL     1       1.762  11.313  18.402  0.00  0.00    +0.000 C 
ATOM     13  O   UNL     1       2.459  12.052  17.709  0.00  0.00    +0.000 OA
ATOM     14  C   UNL     1       0.650  11.827  19.312  0.00  0.00    +0.000 C 
ATOM     15  O   UNL     1      -0.053  10.949  20.179  0.00  0.00    +0.000 OA
ATOM     16  H   UNL     1       1.403   9.607  17.517  0.00  0.00    +0.000 HD
ENDBRANCH   3   5
BRANCH   2  17
ATOM     17  C   UNL     1       2.428   3.459  20.853  0.00  0.00    +0.000 C 
BRANCH  17  18
ATOM     18  C   UNL     1       2.767   2.685  19.582  0.00  0.00    +0.000 C 
BRANCH  18  19
ATOM     19  N   UNL     1       3.815   3.358  18.834  0.00  0.00    +0.000 N 
ATOM     20  C   UNL     1       4.987   3.698  19.466  0.00  0.00    +0.000 A 
ATOM     21  N   UNL     1       6.019   4.200  18.881  0.00  0.00    +0.000 NA
ATOM     22  C   UNL     1       5.953   4.385  17.494  0.00  0.00    +0.000 A 
ATOM     23  C   UNL     1       7.084   4.867  16.829  0.00  0.00    +0.000 A 
ATOM     24  C   UNL     1       7.073   5.034  15.442  0.00  0.00    +0.000 A 
ATOM     25  C   UNL     1       5.925   4.733  14.705  0.00  0.00    +0.000 A 
ATOM     26  C   UNL     1       4.785   4.261  15.357  0.00  0.00    +0.000 A 
ATOM     27  C   UNL     1       4.811   4.086  16.745  0.00  0.00    +0.000 A 
ATOM     28  C   UNL     1       3.652   3.526  17.464  0.00  0.00    +0.000 A 
ATOM     29  O   UNL     1       2.632   3.208  16.856  0.00  0.00    +0.000 OA
ENDBRANCH  18  19
ENDBRANCH  17  18
ENDBRANCH   2  17
TORSDOF 4
ENDMDL
