MODEL 1
REMARK VINA RESULT:      -9.0      0.000      0.000
REMARK  Name = 
REMARK  3 active torsions:
REMARK  status: ('A' for Active; 'I' for Inactive)
REMARK    1  A    between atoms: C_2  and  C_3
REMARK    2  A    between atoms: C_3  and  C_4
REMARK    3  A    between atoms: C_16  and  C_17
REMARK                            x       y       z     vdW  Elec       q    Type
REMARK                         _______ _______ _______ _____ _____    ______ ____
ROOT
ATOM      1  O   UNL     1       4.893   2.196  17.109  0.00  0.00    +0.000 OA
ATOM      2  C   UNL     1       4.329   3.234  17.478  0.00  0.00    +0.000 C 
ATOM      3  N   UNL     1       3.790   3.256  18.731  0.00  0.00    +0.000 N 
ATOM      4  C   UNL     1       3.141   4.308  19.296  0.00  0.00    +0.000 A 
ATOM      5  N   UNL     1       2.991   5.516  18.821  0.00  0.00    +0.000 NA
ATOM      6  C   UNL     1       2.229   6.272  19.688  0.00  0.00    +0.000 A 
ATOM      7  C   UNL     1       1.791   5.595  20.811  0.00  0.00    +0.000 A 
ATOM      8  S   UNL     1       2.399   3.984  20.795  0.00  0.00    +0.000 S 
ATOM      9  H   UNL     1       3.895   2.411  19.275  0.00  0.00    +0.000 HD
ENDROOT
BRANCH   6  10
ATOM     10  C   UNL     1       1.934   7.666  19.387  0.00  0.00    +0.000 A 
ATOM     11  C   UNL     1       2.227   8.179  18.115  0.00  0.00    +0.000 A 
ATOM     12  C   UNL     1       1.921   9.503  17.782  0.00  0.00    +0.000 A 
ATOM     13  C   UNL     1       1.350  10.331  18.742  0.00  0.00    +0.000 A 
ATOM     14  C   UNL     1       1.052   9.840  20.017  0.00  0.00    +0.000 A 
ATOM     15  C   UNL     1       1.330   8.505  20.333  0.00  0.00    +0.000 A 
ATOM     16  C   UNL     1       0.341  10.730  20.997  0.00  0.00    +0.000 C 
ATOM     17  C   UNL     1       0.773  12.173  20.810  0.00  0.00    +0.000 C 
ATOM     18  C   UNL     1       0.677  12.596  19.363  0.00  0.00    +0.000 C 
ATOM     19  O   UNL     1       0.391  13.740  19.027  0.00  0.00    +0.000 OA
ATOM     20  N   UNL     1       1.052  11.659  18.431  0.00  0.00    +0.000 N 
ATOM     21  H   UNL     1       1.129  11.991  17.479  0.00  0.00    +0.000 HD
ENDBRANCH   6  10
BRANCH   2  22
ATOM     22  C   UNL     1       4.168   4.404  16.525  0.00  0.00    +0.000 C 
BRANCH  22  23
ATOM     23  C   UNL     1       5.413   4.783  15.804  0.00  0.00    +0.000 A 
ATOM     24  N   UNL     1       6.342   5.584  16.348  0.00  0.00    +0.000 NA
ATOM     25  O   UNL     1       7.327   5.731  15.387  0.00  0.00    +0.000 OA
ATOM     26  C   UNL     1       6.996   5.016  14.281  0.00  0.00    +0.000 A 
ATOM     27  C   UNL     1       7.733   4.928  13.104  0.00  0.00    +0.000 A 
ATOM     28  C   UNL     1       7.185   4.135  12.089  0.00  0.00    +0.000 A 
ATOM     29  C   UNL     1       5.963   3.477  12.263  0.00  0.00    +0.000 A 
ATOM     30  C   UNL     1       5.246   3.590  13.464  0.00  0.00    +0.000 A 
ATOM     31  C   UNL     1       5.785   4.382  14.493  0.00  0.00    +0.000 A 
ENDBRANCH  22  23
ENDBRANCH   2  22
TORSDOF 3
ENDMDL
MODEL 2
REMARK VINA RESULT:      -8.8      4.689     10.035
REMARK  Name = 
REMARK  3 active torsions:
REMARK  status: ('A' for Active; 'I' for Inactive)
REMARK    1  A    between atoms: C_2  and  C_3
REMARK    2  A    between atoms: C_3  and  C_4
REMARK    3  A    between atoms: C_16  and  C_17
REMARK                            x       y       z     vdW  Elec       q    Type
REMARK                         _______ _______ _______ _____ _____    ______ ____
ROOT
ATOM      1  O   UNL     1      -4.956  14.680  20.703  0.00  0.00    +0.000 OA
ATOM      2  C   UNL     1      -3.953  13.960  20.615  0.00  0.00    +0.000 C 
ATOM      3  N   UNL     1      -2.730  14.559  20.687  0.00  0.00    +0.000 N 
ATOM      4  C   UNL     1      -1.531  13.923  20.611  0.00  0.00    +0.000 A 
ATOM      5  N   UNL     1      -1.297  12.638  20.562  0.00  0.00    +0.000 NA
ATOM      6  C   UNL     1       0.058  12.410  20.448  0.00  0.00    +0.000 A 
ATOM      7  C   UNL     1       0.833  13.553  20.387  0.00  0.00    +0.000 A 
ATOM      8  S   UNL     1      -0.170  14.945  20.531  0.00  0.00    +0.000 S 
ATOM      9  H   UNL     1      -2.732  15.562  20.812  0.00  0.00    +0.000 HD
ENDROOT
BRANCH   6  10
ATOM     10  C   UNL     1       0.574  11.049  20.391  0.00  0.00    +0.000 A 
ATOM     11  C   UNL     1       0.621  10.274  21.559  0.00  0.00    +0.000 A 
ATOM     12  C   UNL     1       1.075   8.951  21.531  0.00  0.00    +0.000 A 
ATOM     13  C   UNL     1       1.519   8.411  20.329  0.00  0.00    +0.000 A 
ATOM     14  C   UNL     1       1.484   9.167  19.153  0.00  0.00    +0.000 A 
ATOM     15  C   UNL     1       0.997  10.478  19.183  0.00  0.00    +0.000 A 
ATOM     16  C   UNL     1       1.873   8.520  17.854  0.00  0.00    +0.000 C 
ATOM     17  C   UNL     1       2.976   7.502  18.081  0.00  0.00    +0.000 C 
ATOM     18  C   UNL     1       2.629   6.549  19.200  0.00  0.00    +0.000 C 
ATOM     19  O   UNL     1       2.987   5.377  19.205  0.00  0.00    +0.000 OA
ATOM     20  N   UNL     1       1.990   7.096  20.286  0.00  0.00    +0.000 N 
ATOM     21  H   UNL     1       1.892   6.491  21.091  0.00  0.00    +0.000 HD
ENDBRANCH   6  10
BRANCH   2  22
ATOM     22  C   UNL     1      -4.093  12.473  20.341  0.00  0.00    +0.000 C 
BRANCH  22  23
ATOM     23  C   UNL     1      -4.402  12.138  18.925  0.00  0.00    +0.000 A 
ATOM     24  N   UNL     1      -5.515  12.566  18.311  0.00  0.00    +0.000 NA
ATOM     25  O   UNL     1      -5.471  12.041  17.032  0.00  0.00    +0.000 OA
ATOM     26  C   UNL     1      -4.335  11.311  16.877  0.00  0.00    +0.000 A 
ATOM     27  C   UNL     1      -3.947  10.621  15.733  0.00  0.00    +0.000 A 
ATOM     28  C   UNL     1      -2.735   9.926  15.811  0.00  0.00    +0.000 A 
ATOM     29  C   UNL     1      -1.970   9.934  16.982  0.00  0.00    +0.000 A 
ATOM     30  C   UNL     1      -2.393  10.641  18.117  0.00  0.00    +0.000 A 
ATOM     31  C   UNL     1      -3.608  11.344  18.053  0.00  0.00    +0.000 A 
ENDBRANCH  22  23
ENDBRANCH   2  22
TORSDOF 3
ENDMDL
MODEL 3
REMARK VINA RESULT:      -8.5      1.620      1.820
REMARK  Name = 
REMARK  3 active torsions:
REMARK  status: ('A' for Active; 'I' for Inactive)
REMARK    1  A    between atoms: C_2  and  C_3
REMARK    2  A    between atoms: C_3  and  C_4
REMARK    3  A    between atoms: C_16  and  C_17
REMARK                            x       y       z     vdW  Elec       q    Type
REMARK                         _______ _______ _______ _____ _____    ______ ____
ROOT
ATOM      1  O   UNL     1       8.219   3.810  17.363  0.00  0.00    +0.000 OA
ATOM      2  C   UNL     1       7.194   4.462  17.602  0.00  0.00    +0.000 C 
ATOM      3  N   UNL     1       6.388   4.032  18.616  0.00  0.00    +0.000 N 
ATOM      4  C   UNL     1       5.232   4.626  19.014  0.00  0.00    +0.000 A 
ATOM      5  N   UNL     1       4.717   5.753  18.601  0.00  0.00    +0.000 NA
ATOM      6  C   UNL     1       3.509   5.977  19.228  0.00  0.00    +0.000 A 
ATOM      7  C   UNL     1       3.119   4.979  20.102  0.00  0.00    +0.000 A 
ATOM      8  S   UNL     1       4.331   3.758  20.171  0.00  0.00    +0.000 S 
ATOM      9  H   UNL     1       6.692   3.201  19.104  0.00  0.00    +0.000 HD
ENDROOT
BRANCH   6  10
ATOM     10  C   UNL     1       2.744   7.184  18.946  0.00  0.00    +0.000 A 
ATOM     11  C   UNL     1       2.845   7.792  17.687  0.00  0.00    +0.000 A 
ATOM     12  C   UNL     1       2.095   8.930  17.371  0.00  0.00    +0.000 A 
ATOM     13  C   UNL     1       1.262   9.484  18.338  0.00  0.00    +0.000 A 
ATOM     14  C   UNL     1       1.149   8.895  19.601  0.00  0.00    +0.000 A 
ATOM     15  C   UNL     1       1.877   7.738  19.898  0.00  0.00    +0.000 A 
ATOM     16  C   UNL     1       0.164   9.458  20.586  0.00  0.00    +0.000 C 
ATOM     17  C   UNL     1       0.061  10.964  20.428  0.00  0.00    +0.000 C 
ATOM     18  C   UNL     1      -0.169  11.355  18.986  0.00  0.00    +0.000 C 
ATOM     19  O   UNL     1      -0.838  12.332  18.666  0.00  0.00    +0.000 OA
ATOM     20  N   UNL     1       0.518  10.629  18.045  0.00  0.00    +0.000 N 
ATOM     21  H   UNL     1       0.478  10.985  17.099  0.00  0.00    +0.000 HD
ENDBRANCH   6  10
BRANCH   2  22
ATOM     22  C   UNL     1       6.811   5.644  16.731  0.00  0.00    +0.000 C 
BRANCH  22  23
ATOM     23  C   UNL     1       7.222   5.514  15.307  0.00  0.00    +0.000 A 
ATOM     24  N   UNL     1       8.287   6.158  14.806  0.00  0.00    +0.000 NA
ATOM     25  O   UNL     1       8.339   5.820  13.464  0.00  0.00    +0.000 OA
ATOM     26  C   UNL     1       7.320   4.973  13.168  0.00  0.00    +0.000 A 
ATOM     27  C   UNL     1       7.038   4.426  11.919  0.00  0.00    +0.000 A 
ATOM     28  C   UNL     1       5.923   3.582  11.851  0.00  0.00    +0.000 A 
ATOM     29  C   UNL     1       5.145   3.316  12.983  0.00  0.00    +0.000 A 
ATOM     30  C   UNL     1       5.459   3.886  14.226  0.00  0.00    +0.000 A 
ATOM     31  C   UNL     1       6.577   4.734  14.309  0.00  0.00    +0.000 A 
ENDBRANCH  22  23
ENDBRANCH   2  22
TORSDOF 3
ENDMDL
MODEL 4
REMARK VINA RESULT:      -8.5      1.929      2.623
REMARK  Name = 
REMARK  3 active torsions:
REMARK  status: ('A' for Active; 'I' for Inactive)
REMARK    1  A    between atoms: C_2  and  C_3
REMARK    2  A    between atoms: C_3  and  C_4
REMARK    3  A    between atoms: C_16  and  C_17
REMARK                            x       y       z     vdW  Elec       q    Type
REMARK                         _______ _______ _______ _____ _____    ______ ____
ROOT
ATOM      1  O   UNL     1       4.026   0.988  17.897  0.00  0.00    +0.000 OA
ATOM      2  C   UNL     1       3.624   2.132  18.144  0.00  0.00    +0.000 C 
ATOM      3  N   UNL     1       3.173   2.391  19.406  0.00  0.00    +0.000 N 
ATOM      4  C   UNL     1       2.701   3.587  19.849  0.00  0.00    +0.000 A 
ATOM      5  N   UNL     1       2.677   4.731  19.219  0.00  0.00    +0.000 NA
ATOM      6  C   UNL     1       2.075   5.690  20.007  0.00  0.00    +0.000 A 
ATOM      7  C   UNL     1       1.626   5.232  21.231  0.00  0.00    +0.000 A 
ATOM      8  S   UNL     1       2.020   3.565  21.410  0.00  0.00    +0.000 S 
ATOM      9  H   UNL     1       3.202   1.618  20.056  0.00  0.00    +0.000 HD
ENDROOT
BRANCH   6  10
ATOM     10  C   UNL     1       1.944   7.060  19.530  0.00  0.00    +0.000 A 
ATOM     11  C   UNL     1       2.435   7.404  18.262  0.00  0.00    +0.000 A 
ATOM     12  C   UNL     1       2.289   8.702  17.759  0.00  0.00    +0.000 A 
ATOM     13  C   UNL     1       1.680   9.672  18.547  0.00  0.00    +0.000 A 
ATOM     14  C   UNL     1       1.186   9.350  19.815  0.00  0.00    +0.000 A 
ATOM     15  C   UNL     1       1.304   8.042  20.298  0.00  0.00    +0.000 A 
ATOM     16  C   UNL     1       0.441  10.394  20.598  0.00  0.00    +0.000 C 
ATOM     17  C   UNL     1       1.018  11.771  20.324  0.00  0.00    +0.000 C 
ATOM     18  C   UNL     1       1.138  12.036  18.841  0.00  0.00    +0.000 C 
ATOM     19  O   UNL     1       0.997  13.154  18.356  0.00  0.00    +0.000 OA
ATOM     20  N   UNL     1       1.541  10.976  18.067  0.00  0.00    +0.000 N 
ATOM     21  H   UNL     1       1.762  11.192  17.104  0.00  0.00    +0.000 HD
ENDBRANCH   6  10
BRANCH   2  22
ATOM     22  C   UNL     1       3.554   3.179  17.047  0.00  0.00    +0.000 C 
BRANCH  22  23
ATOM     23  C   UNL     1       4.860   3.814  16.723  0.00  0.00    +0.000 A 
ATOM     24  N   UNL     1       5.386   3.786  15.489  0.00  0.00    +0.000 NA
ATOM     25  O   UNL     1       6.600   4.445  15.578  0.00  0.00    +0.000 OA
ATOM     26  C   UNL     1       6.794   4.873  16.852  0.00  0.00    +0.000 A 
ATOM     27  C   UNL     1       7.904   5.564  17.330  0.00  0.00    +0.000 A 
ATOM     28  C   UNL     1       7.889   5.894  18.691  0.00  0.00    +0.000 A 
ATOM     29  C   UNL     1       6.811   5.540  19.510  0.00  0.00    +0.000 A 
ATOM     30  C   UNL     1       5.708   4.843  18.993  0.00  0.00    +0.000 A 
ATOM     31  C   UNL     1       5.710   4.506  17.628  0.00  0.00    +0.000 A 
ENDBRANCH  22  23
ENDBRANCH   2  22
TORSDOF 3
ENDMDL
MODEL 5
REMARK VINA RESULT:      -8.3      2.130      8.458
REMARK  Name = 
REMARK  3 active torsions:
REMARK  status: ('A' for Active; 'I' for Inactive)
REMARK    1  A    between atoms: C_2  and  C_3
REMARK    2  A    between atoms: C_3  and  C_4
REMARK    3  A    between atoms: C_16  and  C_17
REMARK                            x       y       z     vdW  Elec       q    Type
REMARK                         _______ _______ _______ _____ _____    ______ ____
ROOT
ATOM      1  O   UNL     1      -0.229   8.413  21.578  0.00  0.00    +0.000 OA
ATOM      2  C   UNL     1       0.669   7.888  20.907  0.00  0.00    +0.000 C 
ATOM      3  N   UNL     1       0.958   6.576  21.145  0.00  0.00    +0.000 N 
ATOM      4  C   UNL     1       1.908   5.845  20.503  0.00  0.00    +0.000 A 
ATOM      5  N   UNL     1       2.647   6.195  19.485  0.00  0.00    +0.000 NA
ATOM      6  C   UNL     1       3.518   5.175  19.161  0.00  0.00    +0.000 A 
ATOM      7  C   UNL     1       3.431   4.062  19.977  0.00  0.00    +0.000 A 
ATOM      8  S   UNL     1       2.186   4.291  21.144  0.00  0.00    +0.000 S 
ATOM      9  H   UNL     1       0.409   6.122  21.861  0.00  0.00    +0.000 HD
ENDROOT
BRANCH   6  10
ATOM     10  C   UNL     1       4.440   5.318  18.043  0.00  0.00    +0.000 A 
ATOM     11  C   UNL     1       5.240   6.466  17.946  0.00  0.00    +0.000 A 
ATOM     12  C   UNL     1       6.163   6.616  16.905  0.00  0.00    +0.000 A 
ATOM     13  C   UNL     1       6.260   5.625  15.934  0.00  0.00    +0.000 A 
ATOM     14  C   UNL     1       5.469   4.475  16.011  0.00  0.00    +0.000 A 
ATOM     15  C   UNL     1       4.572   4.315  17.073  0.00  0.00    +0.000 A 
ATOM     16  C   UNL     1       5.672   3.377  15.004  0.00  0.00    +0.000 C 
ATOM     17  C   UNL     1       6.050   3.962  13.655  0.00  0.00    +0.000 C 
ATOM     18  C   UNL     1       7.189   4.947  13.778  0.00  0.00    +0.000 C 
ATOM     19  O   UNL     1       8.032   5.095  12.900  0.00  0.00    +0.000 OA
ATOM     20  N   UNL     1       7.165   5.767  14.879  0.00  0.00    +0.000 N 
ATOM     21  H   UNL     1       7.841   6.519  14.884  0.00  0.00    +0.000 HD
ENDBRANCH   6  10
BRANCH   2  22
ATOM     22  C   UNL     1       1.477   8.712  19.921  0.00  0.00    +0.000 C 
BRANCH  22  23
ATOM     23  C   UNL     1       0.885  10.039  19.603  0.00  0.00    +0.000 A 
ATOM     24  N   UNL     1       1.308  11.172  20.184  0.00  0.00    +0.000 NA
ATOM     25  O   UNL     1       0.517  12.183  19.667  0.00  0.00    +0.000 OA
ATOM     26  C   UNL     1      -0.365  11.661  18.776  0.00  0.00    +0.000 A 
ATOM     27  C   UNL     1      -1.329  12.366  18.060  0.00  0.00    +0.000 A 
ATOM     28  C   UNL     1      -2.138  11.610  17.203  0.00  0.00    +0.000 A 
ATOM     29  C   UNL     1      -1.974  10.225  17.085  0.00  0.00    +0.000 A 
ATOM     30  C   UNL     1      -0.991   9.549  17.823  0.00  0.00    +0.000 A 
ATOM     31  C   UNL     1      -0.171  10.295  18.687  0.00  0.00    +0.000 A 
ENDBRANCH  22  23
ENDBRANCH   2  22
TORSDOF 3
ENDMDL
MODEL 6
REMARK VINA RESULT:      -8.1      2.006      2.685
REMARK  Name = 
REMARK  3 active torsions:
REMARK  status: ('A' for Active; 'I' for Inactive)
REMARK    1  A    between atoms: C_2  and  C_3
REMARK    2  A    between atoms: C_3  and  C_4
REMARK    3  A    between atoms: C_16  and  C_17
REMARK                            x       y       z     vdW  Elec       q    Type
REMARK                         _______ _______ _______ _____ _____    ______ ____
ROOT
ATOM      1  O   UNL     1       4.402   2.252  17.534  0.00  0.00    +0.000 OA
ATOM      2  C   UNL     1       3.885   3.331  17.849  0.00  0.00    +0.000 C 
ATOM      3  N   UNL     1       3.400   3.459  19.118  0.00  0.00    +0.000 N 
ATOM      4  C   UNL     1       2.806   4.569  19.631  0.00  0.00    +0.000 A 
ATOM      5  N   UNL     1       2.672   5.745  19.077  0.00  0.00    +0.000 NA
ATOM      6  C   UNL     1       1.970   6.584  19.917  0.00  0.00    +0.000 A 
ATOM      7  C   UNL     1       1.560   6.003  21.102  0.00  0.00    +0.000 A 
ATOM      8  S   UNL     1       2.119   4.376  21.178  0.00  0.00    +0.000 S 
ATOM      9  H   UNL     1       3.502   2.651  19.717  0.00  0.00    +0.000 HD
ENDROOT
BRANCH   6  10
ATOM     10  C   UNL     1       1.705   7.963  19.529  0.00  0.00    +0.000 A 
ATOM     11  C   UNL     1       2.097   8.414  18.260  0.00  0.00    +0.000 A 
ATOM     12  C   UNL     1       1.822   9.721  17.842  0.00  0.00    +0.000 A 
ATOM     13  C   UNL     1       1.181  10.593  18.716  0.00  0.00    +0.000 A 
ATOM     14  C   UNL     1       0.785  10.164  19.986  0.00  0.00    +0.000 A 
ATOM     15  C   UNL     1       1.033   8.846  20.385  0.00  0.00    +0.000 A 
ATOM     16  C   UNL     1       0.004  11.099  20.865  0.00  0.00    +0.000 C 
ATOM     17  C   UNL     1       0.454  12.532  20.644  0.00  0.00    +0.000 C 
ATOM     18  C   UNL     1       0.471  12.886  19.175  0.00  0.00    +0.000 C 
ATOM     19  O   UNL     1       0.216  14.013  18.764  0.00  0.00    +0.000 OA
ATOM     20  N   UNL     1       0.913  11.906  18.321  0.00  0.00    +0.000 N 
ATOM     21  H   UNL     1       1.063  12.192  17.362  0.00  0.00    +0.000 HD
ENDBRANCH   6  10
BRANCH   2  22
ATOM     22  C   UNL     1       3.719   4.436  16.822  0.00  0.00    +0.000 C 
BRANCH  22  23
ATOM     23  C   UNL     1       4.867   5.378  16.745  0.00  0.00    +0.000 A 
ATOM     24  N   UNL     1       5.074   6.173  15.683  0.00  0.00    +0.000 NA
ATOM     25  O   UNL     1       6.234   6.877  15.956  0.00  0.00    +0.000 OA
ATOM     26  C   UNL     1       6.712   6.515  17.175  0.00  0.00    +0.000 A 
ATOM     27  C   UNL     1       7.865   6.999  17.786  0.00  0.00    +0.000 A 
ATOM     28  C   UNL     1       8.166   6.468  19.046  0.00  0.00    +0.000 A 
ATOM     29  C   UNL     1       7.344   5.506  19.642  0.00  0.00    +0.000 A 
ATOM     30  C   UNL     1       6.189   5.041  18.996  0.00  0.00    +0.000 A 
ATOM     31  C   UNL     1       5.874   5.565  17.730  0.00  0.00    +0.000 A 
ENDBRANCH  22  23
ENDBRANCH   2  22
TORSDOF 3
ENDMDL
MODEL 7
REMARK VINA RESULT:      -8.0      6.530      9.657
REMARK  Name = 
REMARK  3 active torsions:
REMARK  status: ('A' for Active; 'I' for Inactive)
REMARK    1  A    between atoms: C_2  and  C_3
REMARK    2  A    between atoms: C_3  and  C_4
REMARK    3  A    between atoms: C_16  and  C_17
REMARK                            x       y       z     vdW  Elec       q    Type
REMARK                         _______ _______ _______ _____ _____    ______ ____
ROOT
ATOM      1  O   UNL     1       1.271   9.918  17.700  0.00  0.00    +0.000 OA
ATOM      2  C   UNL     1       0.668  10.365  18.684  0.00  0.00    +0.000 C 
ATOM      3  N   UNL     1       0.856   9.743  19.883  0.00  0.00    +0.000 N 
ATOM      4  C   UNL     1       0.278  10.101  21.061  0.00  0.00    +0.000 A 
ATOM      5  N   UNL     1      -0.469  11.143  21.312  0.00  0.00    +0.000 NA
ATOM      6  C   UNL     1      -0.890  11.116  22.625  0.00  0.00    +0.000 A 
ATOM      7  C   UNL     1      -0.462  10.016  23.345  0.00  0.00    +0.000 A 
ATOM      8  S   UNL     1       0.537   9.023  22.355  0.00  0.00    +0.000 S 
ATOM      9  H   UNL     1       1.484   8.951  19.880  0.00  0.00    +0.000 HD
ENDROOT
BRANCH   6  10
ATOM     10  C   UNL     1      -1.726  12.185  23.154  0.00  0.00    +0.000 A 
ATOM     11  C   UNL     1      -3.061  11.921  23.489  0.00  0.00    +0.000 A 
ATOM     12  C   UNL     1      -3.879  12.917  24.035  0.00  0.00    +0.000 A 
ATOM     13  C   UNL     1      -3.365  14.197  24.214  0.00  0.00    +0.000 A 
ATOM     14  C   UNL     1      -2.036  14.481  23.884  0.00  0.00    +0.000 A 
ATOM     15  C   UNL     1      -1.214  13.472  23.370  0.00  0.00    +0.000 A 
ATOM     16  C   UNL     1      -1.482  15.845  24.186  0.00  0.00    +0.000 C 
ATOM     17  C   UNL     1      -2.559  16.901  24.019  0.00  0.00    +0.000 C 
ATOM     18  C   UNL     1      -3.818  16.533  24.769  0.00  0.00    +0.000 C 
ATOM     19  O   UNL     1      -4.551  17.371  25.281  0.00  0.00    +0.000 OA
ATOM     20  N   UNL     1      -4.172  15.206  24.744  0.00  0.00    +0.000 N 
ATOM     21  H   UNL     1      -5.086  14.987  25.118  0.00  0.00    +0.000 HD
ENDBRANCH   6  10
BRANCH   2  22
ATOM     22  C   UNL     1      -0.315  11.512  18.531  0.00  0.00    +0.000 C 
BRANCH  22  23
ATOM     23  C   UNL     1      -1.678  11.096  18.105  0.00  0.00    +0.000 A 
ATOM     24  N   UNL     1      -1.884  10.231  17.100  0.00  0.00    +0.000 NA
ATOM     25  O   UNL     1      -3.258  10.109  16.978  0.00  0.00    +0.000 OA
ATOM     26  C   UNL     1      -3.869  10.888  17.908  0.00  0.00    +0.000 A 
ATOM     27  C   UNL     1      -5.241  11.036  18.087  0.00  0.00    +0.000 A 
ATOM     28  C   UNL     1      -5.641  11.906  19.109  0.00  0.00    +0.000 A 
ATOM     29  C   UNL     1      -4.701  12.581  19.895  0.00  0.00    +0.000 A 
ATOM     30  C   UNL     1      -3.325  12.407  19.686  0.00  0.00    +0.000 A 
ATOM     31  C   UNL     1      -2.909  11.536  18.664  0.00  0.00    +0.000 A 
ENDBRANCH  22  23
ENDBRANCH   2  22
TORSDOF 3
ENDMDL
MODEL 8
REMARK VINA RESULT:      -7.9      8.397     11.255
REMARK  Name = 
REMARK  3 active torsions:
REMARK  status: ('A' for Active; 'I' for Inactive)
REMARK    1  A    between atoms: C_2  and  C_3
REMARK    2  A    between atoms: C_3  and  C_4
REMARK    3  A    between atoms: C_16  and  C_17
REMARK                            x       y       z     vdW  Elec       q    Type
REMARK                         _______ _______ _______ _____ _____    ______ ____
ROOT
ATOM      1  O   UNL     1      -3.578  13.244  25.727  0.00  0.00    +0.000 OA
ATOM      2  C   UNL     1      -3.881  13.059  24.541  0.00  0.00    +0.000 C 
ATOM      3  N   UNL     1      -5.054  13.594  24.093  0.00  0.00    +0.000 N 
ATOM      4  C   UNL     1      -5.538  13.491  22.826  0.00  0.00    +0.000 A 
ATOM      5  N   UNL     1      -4.957  12.971  21.778  0.00  0.00    +0.000 NA
ATOM      6  C   UNL     1      -5.807  13.028  20.692  0.00  0.00    +0.000 A 
ATOM      7  C   UNL     1      -7.046  13.580  20.958  0.00  0.00    +0.000 A 
ATOM      8  S   UNL     1      -7.119  14.086  22.603  0.00  0.00    +0.000 S 
ATOM      9  H   UNL     1      -5.595  14.111  24.771  0.00  0.00    +0.000 HD
ENDROOT
BRANCH   6  10
ATOM     10  C   UNL     1      -5.380  12.523  19.394  0.00  0.00    +0.000 A 
ATOM     11  C   UNL     1      -6.269  12.555  18.310  0.00  0.00    +0.000 A 
ATOM     12  C   UNL     1      -5.877  12.113  17.042  0.00  0.00    +0.000 A 
ATOM     13  C   UNL     1      -4.596  11.602  16.866  0.00  0.00    +0.000 A 
ATOM     14  C   UNL     1      -3.695  11.558  17.935  0.00  0.00    +0.000 A 
ATOM     15  C   UNL     1      -4.083  12.033  19.193  0.00  0.00    +0.000 A 
ATOM     16  C   UNL     1      -2.286  11.097  17.688  0.00  0.00    +0.000 C 
ATOM     17  C   UNL     1      -2.264  10.020  16.619  0.00  0.00    +0.000 C 
ATOM     18  C   UNL     1      -3.032  10.444  15.389  0.00  0.00    +0.000 C 
ATOM     19  O   UNL     1      -2.710  10.097  14.257  0.00  0.00    +0.000 OA
ATOM     20  N   UNL     1      -4.193  11.142  15.610  0.00  0.00    +0.000 N 
ATOM     21  H   UNL     1      -4.778  11.295  14.799  0.00  0.00    +0.000 HD
ENDBRANCH   6  10
BRANCH   2  22
ATOM     22  C   UNL     1      -3.015  12.187  23.650  0.00  0.00    +0.000 C 
BRANCH  22  23
ATOM     23  C   UNL     1      -1.796  12.864  23.130  0.00  0.00    +0.000 A 
ATOM     24  N   UNL     1      -1.358  14.032  23.623  0.00  0.00    +0.000 NA
ATOM     25  O   UNL     1      -0.234  14.359  22.884  0.00  0.00    +0.000 OA
ATOM     26  C   UNL     1       0.004  13.389  21.962  0.00  0.00    +0.000 A 
ATOM     27  C   UNL     1       1.037  13.373  21.030  0.00  0.00    +0.000 A 
ATOM     28  C   UNL     1       1.076  12.269  20.170  0.00  0.00    +0.000 A 
ATOM     29  C   UNL     1       0.121  11.250  20.255  0.00  0.00    +0.000 A 
ATOM     30  C   UNL     1      -0.908  11.301  21.207  0.00  0.00    +0.000 A 
ATOM     31  C   UNL     1      -0.959  12.403  22.078  0.00  0.00    +0.000 A 
ENDBRANCH  22  23
ENDBRANCH   2  22
TORSDOF 3
ENDMDL
MODEL 9
REMARK VINA RESULT:      -7.9      2.977      9.385
REMARK  Name = 
REMARK  3 active torsions:
REMARK  status: ('A' for Active; 'I' for Inactive)
REMARK    1  A    between atoms: C_2  and  C_3
REMARK    2  A    between atoms: C_3  and  C_4
REMARK    3  A    between atoms: C_16  and  C_17
REMARK                            x       y       z     vdW  Elec       q    Type
REMARK                         _______ _______ _______ _____ _____    ______ ____
ROOT
ATOM      1  O   UNL     1      -2.361  13.605  20.373  0.00  0.00    +0.000 OA
ATOM      2  C   UNL     1      -1.595  12.642  20.238  0.00  0.00    +0.000 C 
ATOM      3  N   UNL     1      -1.403  11.825  21.314  0.00  0.00    +0.000 N 
ATOM      4  C   UNL     1      -0.603  10.726  21.340  0.00  0.00    +0.000 A 
ATOM      5  N   UNL     1       0.047  10.173  20.350  0.00  0.00    +0.000 NA
ATOM      6  C   UNL     1       0.778   9.097  20.809  0.00  0.00    +0.000 A 
ATOM      7  C   UNL     1       0.681   8.872  22.170  0.00  0.00    +0.000 A 
ATOM      8  S   UNL     1      -0.399  10.013  22.874  0.00  0.00    +0.000 S 
ATOM      9  H   UNL     1      -1.908  12.069  22.154  0.00  0.00    +0.000 HD
ENDROOT
BRANCH   6  10
ATOM     10  C   UNL     1       1.578   8.302  19.887  0.00  0.00    +0.000 A 
ATOM     11  C   UNL     1       1.899   8.819  18.624  0.00  0.00    +0.000 A 
ATOM     12  C   UNL     1       2.697   8.097  17.730  0.00  0.00    +0.000 A 
ATOM     13  C   UNL     1       3.148   6.831  18.091  0.00  0.00    +0.000 A 
ATOM     14  C   UNL     1       2.837   6.297  19.345  0.00  0.00    +0.000 A 
ATOM     15  C   UNL     1       2.066   7.039  20.247  0.00  0.00    +0.000 A 
ATOM     16  C   UNL     1       3.425   4.973  19.744  0.00  0.00    +0.000 C 
ATOM     17  C   UNL     1       3.556   4.067  18.533  0.00  0.00    +0.000 C 
ATOM     18  C   UNL     1       4.253   4.768  17.390  0.00  0.00    +0.000 C 
ATOM     19  O   UNL     1       4.978   4.178  16.597  0.00  0.00    +0.000 OA
ATOM     20  N   UNL     1       3.933   6.091  17.205  0.00  0.00    +0.000 N 
ATOM     21  H   UNL     1       4.285   6.514  16.356  0.00  0.00    +0.000 HD
ENDBRANCH   6  10
BRANCH   2  22
ATOM     22  C   UNL     1      -0.831  12.441  18.942  0.00  0.00    +0.000 C 
BRANCH  22  23
ATOM     23  C   UNL     1       0.429  13.226  18.846  0.00  0.00    +0.000 A 
ATOM     24  N   UNL     1       1.639  12.650  18.886  0.00  0.00    +0.000 NA
ATOM     25  O   UNL     1       2.556  13.683  18.798  0.00  0.00    +0.000 OA
ATOM     26  C   UNL     1       1.899  14.868  18.696  0.00  0.00    +0.000 A 
ATOM     27  C   UNL     1       2.482  16.129  18.599  0.00  0.00    +0.000 A 
ATOM     28  C   UNL     1       1.600  17.212  18.514  0.00  0.00    +0.000 A 
ATOM     29  C   UNL     1       0.214  17.021  18.529  0.00  0.00    +0.000 A 
ATOM     30  C   UNL     1      -0.338  15.735  18.628  0.00  0.00    +0.000 A 
ATOM     31  C   UNL     1       0.536  14.638  18.713  0.00  0.00    +0.000 A 
ENDBRANCH  22  23
ENDBRANCH   2  22
TORSDOF 3
ENDMDL
