MODEL 1
REMARK VINA RESULT:      -9.2      0.000      0.000
REMARK  Name = 
REMARK  5 active torsions:
REMARK  status: ('A' for Active; 'I' for Inactive)
REMARK    1  A    between atoms: C_1  and  C_2
REMARK    2  A    between atoms: C_8  and  C_10
REMARK    3  A    between atoms: C_14  and  O_15
REMARK    4  A    between atoms: O_15  and  C_16
REMARK    5  A    between atoms: C_16  and  C_17
REMARK                            x       y       z     vdW  Elec       q    Type
REMARK                         _______ _______ _______ _____ _____    ______ ____
ROOT
ATOM      1  C   UNL     1       2.867   5.948  19.665  0.00  0.00    +0.000 A 
ATOM      2  C   UNL     1       2.178   4.998  20.427  0.00  0.00    +0.000 A 
ATOM      3  C   UNL     1       2.662   3.691  20.521  0.00  0.00    +0.000 A 
ATOM      4  C   UNL     1       3.848   3.339  19.875  0.00  0.00    +0.000 A 
ATOM      5  C   UNL     1       4.573   4.300  19.170  0.00  0.00    +0.000 A 
ATOM      6  C   UNL     1       4.076   5.598  19.059  0.00  0.00    +0.000 A 
ENDROOT
BRANCH   1  14
ATOM      7  C   UNL     1      -1.276  10.797  23.241  0.00  0.00    +0.000 C 
ATOM      8  C   UNL     1      -0.468  10.488  22.015  0.00  0.00    +0.000 A 
ATOM      9  C   UNL     1      -0.321  11.431  21.001  0.00  0.00    +0.000 A 
ATOM     10  C   UNL     1       0.430  11.090  19.891  0.00  0.00    +0.000 A 
ATOM     11  N   UNL     1       1.033   9.896  19.733  0.00  0.00    +0.000 NA
ATOM     12  C   UNL     1       0.906   8.990  20.714  0.00  0.00    +0.000 A 
ATOM     13  N   UNL     1       1.545   7.747  20.613  0.00  0.00    +0.000 N 
ATOM     14  C   UNL     1       2.318   7.330  19.544  0.00  0.00    +0.000 C 
ATOM     15  O   UNL     1       2.610   7.965  18.536  0.00  0.00    +0.000 OA
ATOM     16  C   UNL     1       0.160   9.245  21.865  0.00  0.00    +0.000 A 
ATOM     17  H   UNL     1       1.466   7.155  21.424  0.00  0.00    +0.000 HD
ENDBRANCH   1  14
BRANCH   5  18
ATOM     18  O   UNL     1       5.757   3.883  18.624  0.00  0.00    +0.000 OA
BRANCH  18  19
ATOM     19  C   UNL     1       6.503   4.909  17.952  0.00  0.00    +0.000 C 
BRANCH  19  20
ATOM     20  C   UNL     1       6.517   4.714  16.481  0.00  0.00    +0.000 A 
ATOM     21  C   UNL     1       5.772   3.838  15.721  0.00  0.00    +0.000 A 
ATOM     22  N   UNL     1       6.209   3.999  14.438  0.00  0.00    +0.000 N 
ATOM     23  C   UNL     1       5.801   3.349  13.279  0.00  0.00    +0.000 A 
ATOM     24  C   UNL     1       6.387   3.667  12.113  0.00  0.00    +0.000 A 
ATOM     25  C   UNL     1       7.437   4.678  12.103  0.00  0.00    +0.000 A 
ATOM     26  C   UNL     1       7.829   5.298  13.233  0.00  0.00    +0.000 A 
ATOM     27  C   UNL     1       7.205   4.969  14.470  0.00  0.00    +0.000 A 
ATOM     28  N   UNL     1       7.405   5.413  15.692  0.00  0.00    +0.000 NA
ENDBRANCH  19  20
ENDBRANCH  18  19
ENDBRANCH   5  18
TORSDOF 4
ENDMDL
MODEL 2
REMARK VINA RESULT:      -8.7      4.844      7.445
REMARK  Name = 
REMARK  5 active torsions:
REMARK  status: ('A' for Active; 'I' for Inactive)
REMARK    1  A    between atoms: C_1  and  C_2
REMARK    2  A    between atoms: C_8  and  C_10
REMARK    3  A    between atoms: C_14  and  O_15
REMARK    4  A    between atoms: O_15  and  C_16
REMARK    5  A    between atoms: C_16  and  C_17
REMARK                            x       y       z     vdW  Elec       q    Type
REMARK                         _______ _______ _______ _____ _____    ______ ____
ROOT
ATOM      1  C   UNL     1       7.722   7.334  17.962  0.00  0.00    +0.000 A 
ATOM      2  C   UNL     1       8.265   6.727  19.100  0.00  0.00    +0.000 A 
ATOM      3  C   UNL     1       8.122   5.351  19.295  0.00  0.00    +0.000 A 
ATOM      4  C   UNL     1       7.459   4.577  18.341  0.00  0.00    +0.000 A 
ATOM      5  C   UNL     1       6.975   5.167  17.174  0.00  0.00    +0.000 A 
ATOM      6  C   UNL     1       7.099   6.545  16.992  0.00  0.00    +0.000 A 
ENDROOT
BRANCH   1  14
ATOM      7  C   UNL     1      11.978  12.977  19.833  0.00  0.00    +0.000 C 
ATOM      8  C   UNL     1      10.758  12.505  19.100  0.00  0.00    +0.000 A 
ATOM      9  C   UNL     1       9.959  13.402  18.394  0.00  0.00    +0.000 A 
ATOM     10  C   UNL     1       8.842  12.913  17.742  0.00  0.00    +0.000 A 
ATOM     11  N   UNL     1       8.480  11.616  17.746  0.00  0.00    +0.000 NA
ATOM     12  C   UNL     1       9.255  10.746  18.412  0.00  0.00    +0.000 A 
ATOM     13  N   UNL     1       8.941   9.381  18.416  0.00  0.00    +0.000 N 
ATOM     14  C   UNL     1       7.850   8.810  17.785  0.00  0.00    +0.000 C 
ATOM     15  O   UNL     1       7.004   9.370  17.096  0.00  0.00    +0.000 OA
ATOM     16  C   UNL     1      10.395  11.152  19.106  0.00  0.00    +0.000 A 
ATOM     17  H   UNL     1       9.614   8.785  18.871  0.00  0.00    +0.000 HD
ENDBRANCH   1  14
BRANCH   5  18
ATOM     18  O   UNL     1       6.398   4.323  16.264  0.00  0.00    +0.000 OA
BRANCH  18  19
ATOM     19  C   UNL     1       5.016   4.591  15.988  0.00  0.00    +0.000 C 
BRANCH  19  20
ATOM     20  C   UNL     1       4.140   4.244  17.135  0.00  0.00    +0.000 A 
ATOM     21  C   UNL     1       3.780   2.995  17.596  0.00  0.00    +0.000 A 
ATOM     22  N   UNL     1       2.908   3.219  18.622  0.00  0.00    +0.000 N 
ATOM     23  C   UNL     1       2.235   2.304  19.422  0.00  0.00    +0.000 A 
ATOM     24  C   UNL     1       1.407   2.758  20.378  0.00  0.00    +0.000 A 
ATOM     25  C   UNL     1       1.236   4.198  20.537  0.00  0.00    +0.000 A 
ATOM     26  C   UNL     1       1.889   5.076  19.752  0.00  0.00    +0.000 A 
ATOM     27  C   UNL     1       2.774   4.598  18.743  0.00  0.00    +0.000 A 
ATOM     28  N   UNL     1       3.508   5.233  17.856  0.00  0.00    +0.000 NA
ENDBRANCH  19  20
ENDBRANCH  18  19
ENDBRANCH   5  18
TORSDOF 4
ENDMDL
MODEL 3
REMARK VINA RESULT:      -8.6      4.814      7.451
REMARK  Name = 
REMARK  5 active torsions:
REMARK  status: ('A' for Active; 'I' for Inactive)
REMARK    1  A    between atoms: C_1  and  C_2
REMARK    2  A    between atoms: C_8  and  C_10
REMARK    3  A    between atoms: C_14  and  O_15
REMARK    4  A    between atoms: O_15  and  C_16
REMARK    5  A    between atoms: C_16  and  C_17
REMARK                            x       y       z     vdW  Elec       q    Type
REMARK                         _______ _______ _______ _____ _____    ______ ____
ROOT
ATOM      1  C   UNL     1       7.759   7.364  17.970  0.00  0.00    +0.000 A 
ATOM      2  C   UNL     1       8.277   6.765  19.125  0.00  0.00    +0.000 A 
ATOM      3  C   UNL     1       8.141   5.388  19.321  0.00  0.00    +0.000 A 
ATOM      4  C   UNL     1       7.510   4.606  18.352  0.00  0.00    +0.000 A 
ATOM      5  C   UNL     1       7.053   5.188  17.170  0.00  0.00    +0.000 A 
ATOM      6  C   UNL     1       7.169   6.566  16.987  0.00  0.00    +0.000 A 
ENDROOT
BRANCH   1  14
ATOM      7  C   UNL     1      12.005  13.026  19.807  0.00  0.00    +0.000 C 
ATOM      8  C   UNL     1      10.781  12.549  19.084  0.00  0.00    +0.000 A 
ATOM      9  C   UNL     1       9.973  13.441  18.384  0.00  0.00    +0.000 A 
ATOM     10  C   UNL     1       8.853  12.947  17.741  0.00  0.00    +0.000 A 
ATOM     11  N   UNL     1       8.497  11.648  17.748  0.00  0.00    +0.000 NA
ATOM     12  C   UNL     1       9.281  10.783  18.408  0.00  0.00    +0.000 A 
ATOM     13  N   UNL     1       8.973   9.416  18.415  0.00  0.00    +0.000 N 
ATOM     14  C   UNL     1       7.879   8.840  17.792  0.00  0.00    +0.000 C 
ATOM     15  O   UNL     1       7.025   9.396  17.110  0.00  0.00    +0.000 OA
ATOM     16  C   UNL     1      10.425  11.194  19.093  0.00  0.00    +0.000 A 
ATOM     17  H   UNL     1       9.652   8.823  18.864  0.00  0.00    +0.000 HD
ENDBRANCH   1  14
BRANCH   5  18
ATOM     18  O   UNL     1       6.508   4.336  16.248  0.00  0.00    +0.000 OA
BRANCH  18  19
ATOM     19  C   UNL     1       5.161   4.649  15.862  0.00  0.00    +0.000 C 
BRANCH  19  20
ATOM     20  C   UNL     1       4.188   4.348  16.942  0.00  0.00    +0.000 A 
ATOM     21  C   UNL     1       3.430   5.227  17.687  0.00  0.00    +0.000 A 
ATOM     22  N   UNL     1       2.758   4.457  18.592  0.00  0.00    +0.000 N 
ATOM     23  C   UNL     1       1.869   4.843  19.589  0.00  0.00    +0.000 A 
ATOM     24  C   UNL     1       1.328   3.901  20.379  0.00  0.00    +0.000 A 
ATOM     25  C   UNL     1       1.699   2.506  20.171  0.00  0.00    +0.000 A 
ATOM     26  C   UNL     1       2.567   2.144  19.205  0.00  0.00    +0.000 A 
ATOM     27  C   UNL     1       3.135   3.139  18.360  0.00  0.00    +0.000 A 
ATOM     28  N   UNL     1       3.997   3.053  17.370  0.00  0.00    +0.000 NA
ENDBRANCH  19  20
ENDBRANCH  18  19
ENDBRANCH   5  18
TORSDOF 4
ENDMDL
MODEL 4
REMARK VINA RESULT:      -8.5      1.437     10.032
REMARK  Name = 
REMARK  5 active torsions:
REMARK  status: ('A' for Active; 'I' for Inactive)
REMARK    1  A    between atoms: C_1  and  C_2
REMARK    2  A    between atoms: C_8  and  C_10
REMARK    3  A    between atoms: C_14  and  O_15
REMARK    4  A    between atoms: O_15  and  C_16
REMARK    5  A    between atoms: C_16  and  C_17
REMARK                            x       y       z     vdW  Elec       q    Type
REMARK                         _______ _______ _______ _____ _____    ______ ____
ROOT
ATOM      1  C   UNL     1       4.560   5.737  17.655  0.00  0.00    +0.000 A 
ATOM      2  C   UNL     1       4.512   4.617  18.493  0.00  0.00    +0.000 A 
ATOM      3  C   UNL     1       3.666   4.610  19.604  0.00  0.00    +0.000 A 
ATOM      4  C   UNL     1       2.848   5.711  19.864  0.00  0.00    +0.000 A 
ATOM      5  C   UNL     1       2.843   6.801  18.994  0.00  0.00    +0.000 A 
ATOM      6  C   UNL     1       3.706   6.815  17.898  0.00  0.00    +0.000 A 
ENDROOT
BRANCH   1  14
ATOM      7  C   UNL     1       5.848   2.323  11.318  0.00  0.00    +0.000 C 
ATOM      8  C   UNL     1       6.268   3.390  12.285  0.00  0.00    +0.000 A 
ATOM      9  C   UNL     1       7.368   4.202  12.018  0.00  0.00    +0.000 A 
ATOM     10  C   UNL     1       7.713   5.166  12.947  0.00  0.00    +0.000 A 
ATOM     11  N   UNL     1       7.044   5.371  14.098  0.00  0.00    +0.000 NA
ATOM     12  C   UNL     1       5.974   4.601  14.352  0.00  0.00    +0.000 A 
ATOM     13  N   UNL     1       5.224   4.800  15.518  0.00  0.00    +0.000 N 
ATOM     14  C   UNL     1       5.495   5.744  16.492  0.00  0.00    +0.000 C 
ATOM     15  O   UNL     1       6.392   6.581  16.497  0.00  0.00    +0.000 OA
ATOM     16  C   UNL     1       5.559   3.598  13.476  0.00  0.00    +0.000 A 
ATOM     17  H   UNL     1       4.393   4.237  15.597  0.00  0.00    +0.000 HD
ENDBRANCH   1  14
BRANCH   5  18
ATOM     18  O   UNL     1       1.964   7.806  19.290  0.00  0.00    +0.000 OA
BRANCH  18  19
ATOM     19  C   UNL     1       1.630   7.924  20.681  0.00  0.00    +0.000 C 
BRANCH  19  20
ATOM     20  C   UNL     1       0.718   9.065  20.941  0.00  0.00    +0.000 A 
ATOM     21  C   UNL     1       0.342  10.080  20.086  0.00  0.00    +0.000 A 
ATOM     22  N   UNL     1      -0.447  10.912  20.825  0.00  0.00    +0.000 N 
ATOM     23  C   UNL     1      -1.076  12.094  20.451  0.00  0.00    +0.000 A 
ATOM     24  C   UNL     1      -1.805  12.760  21.362  0.00  0.00    +0.000 A 
ATOM     25  C   UNL     1      -1.905  12.225  22.715  0.00  0.00    +0.000 A 
ATOM     26  C   UNL     1      -1.287  11.082  23.068  0.00  0.00    +0.000 A 
ATOM     27  C   UNL     1      -0.520  10.368  22.103  0.00  0.00    +0.000 A 
ATOM     28  N   UNL     1       0.176   9.256  22.193  0.00  0.00    +0.000 NA
ENDBRANCH  19  20
ENDBRANCH  18  19
ENDBRANCH   5  18
TORSDOF 4
ENDMDL
MODEL 5
REMARK VINA RESULT:      -8.5      1.441      9.989
REMARK  Name = 
REMARK  5 active torsions:
REMARK  status: ('A' for Active; 'I' for Inactive)
REMARK    1  A    between atoms: C_1  and  C_2
REMARK    2  A    between atoms: C_8  and  C_10
REMARK    3  A    between atoms: C_14  and  O_15
REMARK    4  A    between atoms: O_15  and  C_16
REMARK    5  A    between atoms: C_16  and  C_17
REMARK                            x       y       z     vdW  Elec       q    Type
REMARK                         _______ _______ _______ _____ _____    ______ ____
ROOT
ATOM      1  C   UNL     1       4.408   5.689  17.639  0.00  0.00    +0.000 A 
ATOM      2  C   UNL     1       4.292   4.519  18.398  0.00  0.00    +0.000 A 
ATOM      3  C   UNL     1       3.450   4.489  19.512  0.00  0.00    +0.000 A 
ATOM      4  C   UNL     1       2.704   5.619  19.853  0.00  0.00    +0.000 A 
ATOM      5  C   UNL     1       2.766   6.764  19.060  0.00  0.00    +0.000 A 
ATOM      6  C   UNL     1       3.625   6.800  17.961  0.00  0.00    +0.000 A 
ENDROOT
BRANCH   1  14
ATOM      7  C   UNL     1       5.869   2.190  11.387  0.00  0.00    +0.000 C 
ATOM      8  C   UNL     1       6.231   3.303  12.324  0.00  0.00    +0.000 A 
ATOM      9  C   UNL     1       7.285   4.167  12.033  0.00  0.00    +0.000 A 
ATOM     10  C   UNL     1       7.578   5.172  12.936  0.00  0.00    +0.000 A 
ATOM     11  N   UNL     1       6.901   5.369  14.084  0.00  0.00    +0.000 NA
ATOM     12  C   UNL     1       5.876   4.549  14.361  0.00  0.00    +0.000 A 
ATOM     13  N   UNL     1       5.119   4.736  15.524  0.00  0.00    +0.000 N 
ATOM     14  C   UNL     1       5.340   5.718  16.473  0.00  0.00    +0.000 C 
ATOM     15  O   UNL     1       6.189   6.602  16.454  0.00  0.00    +0.000 OA
ATOM     16  C   UNL     1       5.515   3.503  13.512  0.00  0.00    +0.000 A 
ATOM     17  H   UNL     1       4.319   4.130  15.620  0.00  0.00    +0.000 HD
ENDBRANCH   1  14
BRANCH   5  18
ATOM     18  O   UNL     1       1.952   7.800  19.430  0.00  0.00    +0.000 OA
BRANCH  18  19
ATOM     19  C   UNL     1       1.632   7.843  20.829  0.00  0.00    +0.000 C 
BRANCH  19  20
ATOM     20  C   UNL     1       0.759   8.995  21.165  0.00  0.00    +0.000 A 
ATOM     21  C   UNL     1       0.204   9.329  22.382  0.00  0.00    +0.000 A 
ATOM     22  N   UNL     1      -0.571  10.427  22.145  0.00  0.00    +0.000 N 
ATOM     23  C   UNL     1      -1.360  11.156  23.027  0.00  0.00    +0.000 A 
ATOM     24  C   UNL     1      -2.054  12.208  22.563  0.00  0.00    +0.000 A 
ATOM     25  C   UNL     1      -1.963  12.545  21.147  0.00  0.00    +0.000 A 
ATOM     26  C   UNL     1      -1.200  11.828  20.300  0.00  0.00    +0.000 A 
ATOM     27  C   UNL     1      -0.456  10.717  20.790  0.00  0.00    +0.000 A 
ATOM     28  N   UNL     1       0.341   9.866  20.182  0.00  0.00    +0.000 NA
ENDBRANCH  19  20
ENDBRANCH  18  19
ENDBRANCH   5  18
TORSDOF 4
ENDMDL
MODEL 6
REMARK VINA RESULT:      -8.5      1.952      9.644
REMARK  Name = 
REMARK  5 active torsions:
REMARK  status: ('A' for Active; 'I' for Inactive)
REMARK    1  A    between atoms: C_1  and  C_2
REMARK    2  A    between atoms: C_8  and  C_10
REMARK    3  A    between atoms: C_14  and  O_15
REMARK    4  A    between atoms: O_15  and  C_16
REMARK    5  A    between atoms: C_16  and  C_17
REMARK                            x       y       z     vdW  Elec       q    Type
REMARK                         _______ _______ _______ _____ _____    ______ ____
ROOT
ATOM      1  C   UNL     1       4.609   5.770  17.628  0.00  0.00    +0.000 A 
ATOM      2  C   UNL     1       4.600   4.672  18.496  0.00  0.00    +0.000 A 
ATOM      3  C   UNL     1       3.780   4.680  19.627  0.00  0.00    +0.000 A 
ATOM      4  C   UNL     1       2.950   5.774  19.878  0.00  0.00    +0.000 A 
ATOM      5  C   UNL     1       2.906   6.840  18.980  0.00  0.00    +0.000 A 
ATOM      6  C   UNL     1       3.742   6.840  17.864  0.00  0.00    +0.000 A 
ENDROOT
BRANCH   1  14
ATOM      7  C   UNL     1       5.810   2.213  11.354  0.00  0.00    +0.000 C 
ATOM      8  C   UNL     1       6.232   3.313  12.282  0.00  0.00    +0.000 A 
ATOM      9  C   UNL     1       7.312   4.136  11.969  0.00  0.00    +0.000 A 
ATOM     10  C   UNL     1       7.661   5.129  12.864  0.00  0.00    +0.000 A 
ATOM     11  N   UNL     1       7.016   5.353  14.025  0.00  0.00    +0.000 NA
ATOM     12  C   UNL     1       5.966   4.572  14.324  0.00  0.00    +0.000 A 
ATOM     13  N   UNL     1       5.240   4.789  15.502  0.00  0.00    +0.000 N 
ATOM     14  C   UNL     1       5.517   5.763  16.445  0.00  0.00    +0.000 C 
ATOM     15  O   UNL     1       6.398   6.614  16.407  0.00  0.00    +0.000 OA
ATOM     16  C   UNL     1       5.549   3.540  13.484  0.00  0.00    +0.000 A 
ATOM     17  H   UNL     1       4.420   4.214  15.615  0.00  0.00    +0.000 HD
ENDBRANCH   1  14
BRANCH   5  18
ATOM     18  O   UNL     1       2.016   7.838  19.271  0.00  0.00    +0.000 OA
BRANCH  18  19
ATOM     19  C   UNL     1       1.919   8.867  18.274  0.00  0.00    +0.000 C 
BRANCH  19  20
ATOM     20  C   UNL     1       0.722   9.721  18.471  0.00  0.00    +0.000 A 
ATOM     21  C   UNL     1       0.490  10.669  19.445  0.00  0.00    +0.000 A 
ATOM     22  N   UNL     1      -0.781  11.117  19.230  0.00  0.00    +0.000 N 
ATOM     23  C   UNL     1      -1.514  12.064  19.935  0.00  0.00    +0.000 A 
ATOM     24  C   UNL     1      -2.768  12.341  19.543  0.00  0.00    +0.000 A 
ATOM     25  C   UNL     1      -3.322  11.633  18.395  0.00  0.00    +0.000 A 
ATOM     26  C   UNL     1      -2.605  10.712  17.722  0.00  0.00    +0.000 A 
ATOM     27  C   UNL     1      -1.272  10.422  18.130  0.00  0.00    +0.000 A 
ATOM     28  N   UNL     1      -0.382   9.576  17.658  0.00  0.00    +0.000 NA
ENDBRANCH  19  20
ENDBRANCH  18  19
ENDBRANCH   5  18
TORSDOF 4
ENDMDL
MODEL 7
REMARK VINA RESULT:      -8.4      2.199      2.987
REMARK  Name = 
REMARK  5 active torsions:
REMARK  status: ('A' for Active; 'I' for Inactive)
REMARK    1  A    between atoms: C_1  and  C_2
REMARK    2  A    between atoms: C_8  and  C_10
REMARK    3  A    between atoms: C_14  and  O_15
REMARK    4  A    between atoms: O_15  and  C_16
REMARK    5  A    between atoms: C_16  and  C_17
REMARK                            x       y       z     vdW  Elec       q    Type
REMARK                         _______ _______ _______ _____ _____    ______ ____
ROOT
ATOM      1  C   UNL     1       1.950   5.722  20.053  0.00  0.00    +0.000 A 
ATOM      2  C   UNL     1       1.928   5.081  21.296  0.00  0.00    +0.000 A 
ATOM      3  C   UNL     1       2.033   3.689  21.369  0.00  0.00    +0.000 A 
ATOM      4  C   UNL     1       2.186   2.941  20.201  0.00  0.00    +0.000 A 
ATOM      5  C   UNL     1       2.276   3.581  18.965  0.00  0.00    +0.000 A 
ATOM      6  C   UNL     1       2.148   4.968  18.893  0.00  0.00    +0.000 A 
ENDROOT
BRANCH   1  14
ATOM      7  C   UNL     1      -1.567  11.265  23.273  0.00  0.00    +0.000 C 
ATOM      8  C   UNL     1      -0.606  10.829  22.207  0.00  0.00    +0.000 A 
ATOM      9  C   UNL     1      -0.007  11.760  21.362  0.00  0.00    +0.000 A 
ATOM     10  C   UNL     1       0.866  11.302  20.393  0.00  0.00    +0.000 A 
ATOM     11  N   UNL     1       1.177  10.003  20.219  0.00  0.00    +0.000 NA
ATOM     12  C   UNL     1       0.614   9.103  21.040  0.00  0.00    +0.000 A 
ATOM     13  N   UNL     1       0.933   7.745  20.922  0.00  0.00    +0.000 N 
ATOM     14  C   UNL     1       1.800   7.205  19.988  0.00  0.00    +0.000 C 
ATOM     15  O   UNL     1       2.457   7.801  19.142  0.00  0.00    +0.000 OA
ATOM     16  C   UNL     1      -0.286   9.475  22.040  0.00  0.00    +0.000 A 
ATOM     17  H   UNL     1       0.531   7.145  21.625  0.00  0.00    +0.000 HD
ENDBRANCH   1  14
BRANCH   5  18
ATOM     18  O   UNL     1       2.492   2.774  17.881  0.00  0.00    +0.000 OA
BRANCH  18  19
ATOM     19  C   UNL     1       3.863   2.400  17.673  0.00  0.00    +0.000 C 
BRANCH  19  20
ATOM     20  C   UNL     1       4.772   3.573  17.712  0.00  0.00    +0.000 A 
ATOM     21  C   UNL     1       5.021   4.502  16.724  0.00  0.00    +0.000 A 
ATOM     22  N   UNL     1       5.983   5.329  17.230  0.00  0.00    +0.000 N 
ATOM     23  C   UNL     1       6.603   6.423  16.640  0.00  0.00    +0.000 A 
ATOM     24  C   UNL     1       7.542   7.091  17.332  0.00  0.00    +0.000 A 
ATOM     25  C   UNL     1       7.884   6.639  18.675  0.00  0.00    +0.000 A 
ATOM     26  C   UNL     1       7.280   5.572  19.235  0.00  0.00    +0.000 A 
ATOM     27  C   UNL     1       6.279   4.867  18.508  0.00  0.00    +0.000 A 
ATOM     28  N   UNL     1       5.560   3.810  18.817  0.00  0.00    +0.000 NA
ENDBRANCH  19  20
ENDBRANCH  18  19
ENDBRANCH   5  18
TORSDOF 4
ENDMDL
MODEL 8
REMARK VINA RESULT:      -8.4      0.790      1.287
REMARK  Name = 
REMARK  5 active torsions:
REMARK  status: ('A' for Active; 'I' for Inactive)
REMARK    1  A    between atoms: C_1  and  C_2
REMARK    2  A    between atoms: C_8  and  C_10
REMARK    3  A    between atoms: C_14  and  O_15
REMARK    4  A    between atoms: O_15  and  C_16
REMARK    5  A    between atoms: C_16  and  C_17
REMARK                            x       y       z     vdW  Elec       q    Type
REMARK                         _______ _______ _______ _____ _____    ______ ____
ROOT
ATOM      1  C   UNL     1       2.449   6.494  19.657  0.00  0.00    +0.000 A 
ATOM      2  C   UNL     1       1.766   5.651  20.541  0.00  0.00    +0.000 A 
ATOM      3  C   UNL     1       2.137   4.309  20.655  0.00  0.00    +0.000 A 
ATOM      4  C   UNL     1       3.206   3.815  19.906  0.00  0.00    +0.000 A 
ATOM      5  C   UNL     1       3.931   4.668  19.074  0.00  0.00    +0.000 A 
ATOM      6  C   UNL     1       3.544   6.002  18.944  0.00  0.00    +0.000 A 
ENDROOT
BRANCH   1  14
ATOM      7  C   UNL     1      -1.538  11.622  23.015  0.00  0.00    +0.000 C 
ATOM      8  C   UNL     1      -0.676  11.261  21.842  0.00  0.00    +0.000 A 
ATOM      9  C   UNL     1      -0.388  12.198  20.852  0.00  0.00    +0.000 A 
ATOM     10  C   UNL     1       0.407  11.808  19.790  0.00  0.00    +0.000 A 
ATOM     11  N   UNL     1       0.925  10.572  19.656  0.00  0.00    +0.000 NA
ATOM     12  C   UNL     1       0.663   9.671  20.615  0.00  0.00    +0.000 A 
ATOM     13  N   UNL     1       1.209   8.383  20.539  0.00  0.00    +0.000 N 
ATOM     14  C   UNL     1       2.017   7.916  19.518  0.00  0.00    +0.000 C 
ATOM     15  O   UNL     1       2.424   8.534  18.541  0.00  0.00    +0.000 OA
ATOM     16  C   UNL     1      -0.137   9.974  21.717  0.00  0.00    +0.000 A 
ATOM     17  H   UNL     1       1.030   7.792  21.335  0.00  0.00    +0.000 HD
ENDBRANCH   1  14
BRANCH   5  18
ATOM     18  O   UNL     1       5.003   4.114  18.428  0.00  0.00    +0.000 OA
BRANCH  18  19
ATOM     19  C   UNL     1       5.931   5.063  17.881  0.00  0.00    +0.000 C 
BRANCH  19  20
ATOM     20  C   UNL     1       6.217   4.800  16.449  0.00  0.00    +0.000 A 
ATOM     21  C   UNL     1       7.223   5.320  15.662  0.00  0.00    +0.000 A 
ATOM     22  N   UNL     1       7.005   4.823  14.409  0.00  0.00    +0.000 N 
ATOM     23  C   UNL     1       7.719   5.043  13.237  0.00  0.00    +0.000 A 
ATOM     24  C   UNL     1       7.310   4.448  12.104  0.00  0.00    +0.000 A 
ATOM     25  C   UNL     1       6.126   3.598  12.141  0.00  0.00    +0.000 A 
ATOM     26  C   UNL     1       5.438   3.396  13.282  0.00  0.00    +0.000 A 
ATOM     27  C   UNL     1       5.874   4.018  14.486  0.00  0.00    +0.000 A 
ATOM     28  N   UNL     1       5.384   3.992  15.707  0.00  0.00    +0.000 NA
ENDBRANCH  19  20
ENDBRANCH  18  19
ENDBRANCH   5  18
TORSDOF 4
ENDMDL
MODEL 9
REMARK VINA RESULT:      -8.1      1.218      1.800
REMARK  Name = 
REMARK  5 active torsions:
REMARK  status: ('A' for Active; 'I' for Inactive)
REMARK    1  A    between atoms: C_1  and  C_2
REMARK    2  A    between atoms: C_8  and  C_10
REMARK    3  A    between atoms: C_14  and  O_15
REMARK    4  A    between atoms: O_15  and  C_16
REMARK    5  A    between atoms: C_16  and  C_17
REMARK                            x       y       z     vdW  Elec       q    Type
REMARK                         _______ _______ _______ _____ _____    ______ ____
ROOT
ATOM      1  C   UNL     1       2.656   5.288  19.348  0.00  0.00    +0.000 A 
ATOM      2  C   UNL     1       1.870   4.257  18.820  0.00  0.00    +0.000 A 
ATOM      3  C   UNL     1       2.472   3.199  18.134  0.00  0.00    +0.000 A 
ATOM      4  C   UNL     1       3.861   3.159  17.996  0.00  0.00    +0.000 A 
ATOM      5  C   UNL     1       4.652   4.149  18.578  0.00  0.00    +0.000 A 
ATOM      6  C   UNL     1       4.047   5.216  19.244  0.00  0.00    +0.000 A 
ENDROOT
BRANCH   1  14
ATOM      7  C   UNL     1       1.071  12.376  18.501  0.00  0.00    +0.000 C 
ATOM      8  C   UNL     1       0.996  11.162  19.378  0.00  0.00    +0.000 A 
ATOM      9  C   UNL     1       0.371  11.218  20.622  0.00  0.00    +0.000 A 
ATOM     10  C   UNL     1       0.336  10.070  21.392  0.00  0.00    +0.000 A 
ATOM     11  N   UNL     1       0.869   8.895  21.008  0.00  0.00    +0.000 NA
ATOM     12  C   UNL     1       1.459   8.832  19.804  0.00  0.00    +0.000 A 
ATOM     13  N   UNL     1       1.996   7.622  19.345  0.00  0.00    +0.000 N 
ATOM     14  C   UNL     1       1.996   6.430  20.047  0.00  0.00    +0.000 C 
ATOM     15  O   UNL     1       1.508   6.208  21.150  0.00  0.00    +0.000 OA
ATOM     16  C   UNL     1       1.548   9.942  18.965  0.00  0.00    +0.000 A 
ATOM     17  H   UNL     1       2.349   7.638  18.402  0.00  0.00    +0.000 HD
ENDBRANCH   1  14
BRANCH   5  18
ATOM     18  O   UNL     1       6.005   3.994  18.450  0.00  0.00    +0.000 OA
BRANCH  18  19
ATOM     19  C   UNL     1       6.667   5.051  17.738  0.00  0.00    +0.000 C 
BRANCH  19  20
ATOM     20  C   UNL     1       6.673   4.815  16.273  0.00  0.00    +0.000 A 
ATOM     21  C   UNL     1       5.992   3.858  15.551  0.00  0.00    +0.000 A 
ATOM     22  N   UNL     1       6.393   4.017  14.256  0.00  0.00    +0.000 N 
ATOM     23  C   UNL     1       6.023   3.302  13.124  0.00  0.00    +0.000 A 
ATOM     24  C   UNL     1       6.560   3.633  11.939  0.00  0.00    +0.000 A 
ATOM     25  C   UNL     1       7.522   4.728  11.881  0.00  0.00    +0.000 A 
ATOM     26  C   UNL     1       7.878   5.412  12.986  0.00  0.00    +0.000 A 
ATOM     27  C   UNL     1       7.304   5.068  14.243  0.00  0.00    +0.000 A 
ATOM     28  N   UNL     1       7.486   5.562  15.448  0.00  0.00    +0.000 NA
ENDBRANCH  19  20
ENDBRANCH  18  19
ENDBRANCH   5  18
TORSDOF 4
ENDMDL
