MODEL 1
REMARK VINA RESULT:      -9.0      0.000      0.000
REMARK  Name = 
REMARK  2 active torsions:
REMARK  status: ('A' for Active; 'I' for Inactive)
REMARK    1  A    between atoms: N_3  and  C_4
REMARK    2  A    between atoms: N_13  and  C_14
REMARK                            x       y       z     vdW  Elec       q    Type
REMARK                         _______ _______ _______ _____ _____    ______ ____
ROOT
ATOM      1  O   UNL     1       7.621   9.063  16.929  0.00  0.00    +0.000 OA
ATOM      2  C   UNL     1       8.013   8.427  17.891  0.00  0.00    +0.000 C 
ATOM      3  N   UNL     1       8.709   8.946  18.959  0.00  0.00    +0.000 N 
ATOM      4  N   UNL     1       7.833   7.081  18.082  0.00  0.00    +0.000 N 
ATOM      5  H   UNL     1       8.646   8.401  19.802  0.00  0.00    +0.000 HD
ATOM      6  H   UNL     1       8.624   6.677  18.562  0.00  0.00    +0.000 HD
ENDROOT
BRANCH   4   7
ATOM      7  C   UNL     1       7.239   6.219  17.075  0.00  0.00    +0.000 C 
ATOM      8  C   UNL     1       5.887   6.619  16.473  0.00  0.00    +0.000 C 
ATOM      9  C   UNL     1       5.558   5.364  15.647  0.00  0.00    +0.000 C 
ATOM     10  C   UNL     1       6.115   4.178  16.457  0.00  0.00    +0.000 C 
ATOM     11  C   UNL     1       6.961   4.801  17.590  0.00  0.00    +0.000 C 
ATOM     12  C   UNL     1       6.279   4.789  18.984  0.00  0.00    +0.000 C 
ATOM     13  C   UNL     1       4.774   4.873  18.969  0.00  0.00    +0.000 A 
ATOM     14  C   UNL     1       4.053   3.899  19.682  0.00  0.00    +0.000 A 
ATOM     15  C   UNL     1       2.669   3.809  19.570  0.00  0.00    +0.000 A 
ATOM     16  C   UNL     1       1.988   4.701  18.752  0.00  0.00    +0.000 A 
ATOM     17  C   UNL     1       2.686   5.716  18.093  0.00  0.00    +0.000 A 
ATOM     18  C   UNL     1       4.083   5.831  18.205  0.00  0.00    +0.000 A 
ATOM     19  C   UNL     1       4.786   6.973  17.496  0.00  0.00    +0.000 C 
ENDBRANCH   4   7
BRANCH   3  20
ATOM     20  C   UNL     1       9.046  10.358  19.132  0.00  0.00    +0.000 C 
ATOM     21  C   UNL     1      10.185  10.821  18.184  0.00  0.00    +0.000 C 
ATOM     22  C   UNL     1      10.340  12.357  18.176  0.00  0.00    +0.000 C 
ATOM     23  C   UNL     1      10.227  12.869  19.560  0.00  0.00    +0.000 A 
ATOM     24  N   UNL     1      10.539  14.114  20.018  0.00  0.00    +0.000 N 
ATOM     25  C   UNL     1      10.238  14.132  21.355  0.00  0.00    +0.000 A 
ATOM     26  N   UNL     1       9.756  12.977  21.765  0.00  0.00    +0.000 NA
ATOM     27  C   UNL     1       9.756  12.181  20.654  0.00  0.00    +0.000 A 
ATOM     28  C   UNL     1       9.314  10.762  20.608  0.00  0.00    +0.000 C 
ATOM     29  H   UNL     1      10.920  14.885  19.485  0.00  0.00    +0.000 HD
ENDBRANCH   3  20
TORSDOF 2
ENDMDL
MODEL 2
REMARK VINA RESULT:      -8.9      0.836      1.478
REMARK  Name = 
REMARK  2 active torsions:
REMARK  status: ('A' for Active; 'I' for Inactive)
REMARK    1  A    between atoms: N_3  and  C_4
REMARK    2  A    between atoms: N_13  and  C_14
REMARK                            x       y       z     vdW  Elec       q    Type
REMARK                         _______ _______ _______ _____ _____    ______ ____
ROOT
ATOM      1  O   UNL     1       8.421   8.740  16.810  0.00  0.00    +0.000 OA
ATOM      2  C   UNL     1       8.206   8.314  17.931  0.00  0.00    +0.000 C 
ATOM      3  N   UNL     1       8.636   8.897  19.101  0.00  0.00    +0.000 N 
ATOM      4  N   UNL     1       7.499   7.176  18.227  0.00  0.00    +0.000 N 
ATOM      5  H   UNL     1       8.100   8.646  19.914  0.00  0.00    +0.000 HD
ATOM      6  H   UNL     1       7.879   6.720  19.045  0.00  0.00    +0.000 HD
ENDROOT
BRANCH   4   7
ATOM      7  C   UNL     1       7.014   6.267  17.205  0.00  0.00    +0.000 C 
ATOM      8  C   UNL     1       5.686   6.588  16.509  0.00  0.00    +0.000 C 
ATOM      9  C   UNL     1       5.471   5.302  15.693  0.00  0.00    +0.000 C 
ATOM     10  C   UNL     1       6.029   4.162  16.564  0.00  0.00    +0.000 C 
ATOM     11  C   UNL     1       6.769   4.847  17.734  0.00  0.00    +0.000 C 
ATOM     12  C   UNL     1       6.000   4.830  19.081  0.00  0.00    +0.000 C 
ATOM     13  C   UNL     1       4.497   4.841  18.968  0.00  0.00    +0.000 A 
ATOM     14  C   UNL     1       3.778   3.848  19.657  0.00  0.00    +0.000 A 
ATOM     15  C   UNL     1       2.410   3.689  19.459  0.00  0.00    +0.000 A 
ATOM     16  C   UNL     1       1.742   4.530  18.579  0.00  0.00    +0.000 A 
ATOM     17  C   UNL     1       2.432   5.563  17.942  0.00  0.00    +0.000 A 
ATOM     18  C   UNL     1       3.812   5.748  18.141  0.00  0.00    +0.000 A 
ATOM     19  C   UNL     1       4.506   6.908  17.451  0.00  0.00    +0.000 C 
ENDBRANCH   4   7
BRANCH   3  20
ATOM     20  C   UNL     1       9.380  10.153  19.186  0.00  0.00    +0.000 C 
ATOM     21  C   UNL     1       9.408  10.733  20.626  0.00  0.00    +0.000 C 
ATOM     22  C   UNL     1      10.417  11.895  20.759  0.00  0.00    +0.000 C 
ATOM     23  C   UNL     1      10.313  12.773  19.571  0.00  0.00    +0.000 A 
ATOM     24  N   UNL     1      10.842  14.018  19.405  0.00  0.00    +0.000 N 
ATOM     25  C   UNL     1      10.514  14.421  18.135  0.00  0.00    +0.000 A 
ATOM     26  N   UNL     1       9.814  13.507  17.496  0.00  0.00    +0.000 NA
ATOM     27  C   UNL     1       9.676  12.481  18.387  0.00  0.00    +0.000 A 
ATOM     28  C   UNL     1       8.940  11.213  18.138  0.00  0.00    +0.000 C 
ATOM     29  H   UNL     1      11.374  14.552  20.078  0.00  0.00    +0.000 HD
ENDBRANCH   3  20
TORSDOF 2
ENDMDL
MODEL 3
REMARK VINA RESULT:      -8.7      5.721      7.442
REMARK  Name = 
REMARK  2 active torsions:
REMARK  status: ('A' for Active; 'I' for Inactive)
REMARK    1  A    between atoms: N_3  and  C_4
REMARK    2  A    between atoms: N_13  and  C_14
REMARK                            x       y       z     vdW  Elec       q    Type
REMARK                         _______ _______ _______ _____ _____    ______ ____
ROOT
ATOM      1  O   UNL     1       0.889   5.850  20.025  0.00  0.00    +0.000 OA
ATOM      2  C   UNL     1       1.944   6.414  20.258  0.00  0.00    +0.000 C 
ATOM      3  N   UNL     1       2.077   7.734  20.621  0.00  0.00    +0.000 N 
ATOM      4  N   UNL     1       3.185   5.834  20.198  0.00  0.00    +0.000 N 
ATOM      5  H   UNL     1       2.930   7.948  21.110  0.00  0.00    +0.000 HD
ATOM      6  H   UNL     1       3.877   6.498  19.880  0.00  0.00    +0.000 HD
ENDROOT
BRANCH   4   7
ATOM      7  C   UNL     1       3.395   4.478  19.725  0.00  0.00    +0.000 C 
ATOM      8  C   UNL     1       4.817   3.905  19.749  0.00  0.00    +0.000 C 
ATOM      9  C   UNL     1       4.607   2.582  18.995  0.00  0.00    +0.000 C 
ATOM     10  C   UNL     1       3.541   2.881  17.925  0.00  0.00    +0.000 C 
ATOM     11  C   UNL     1       2.992   4.287  18.257  0.00  0.00    +0.000 C 
ATOM     12  C   UNL     1       3.519   5.418  17.335  0.00  0.00    +0.000 C 
ATOM     13  C   UNL     1       4.905   5.210  16.783  0.00  0.00    +0.000 A 
ATOM     14  C   UNL     1       5.083   5.318  15.391  0.00  0.00    +0.000 A 
ATOM     15  C   UNL     1       6.290   4.967  14.795  0.00  0.00    +0.000 A 
ATOM     16  C   UNL     1       7.340   4.516  15.585  0.00  0.00    +0.000 A 
ATOM     17  C   UNL     1       7.198   4.470  16.974  0.00  0.00    +0.000 A 
ATOM     18  C   UNL     1       5.990   4.834  17.595  0.00  0.00    +0.000 A 
ATOM     19  C   UNL     1       5.901   4.799  19.110  0.00  0.00    +0.000 C 
ENDBRANCH   4   7
BRANCH   3  20
ATOM     20  C   UNL     1       0.967   8.660  20.835  0.00  0.00    +0.000 C 
ATOM     21  C   UNL     1       0.818   9.691  19.683  0.00  0.00    +0.000 C 
ATOM     22  C   UNL     1      -0.509  10.474  19.778  0.00  0.00    +0.000 C 
ATOM     23  C   UNL     1      -0.759  10.847  21.188  0.00  0.00    +0.000 A 
ATOM     24  N   UNL     1      -1.676  11.734  21.668  0.00  0.00    +0.000 N 
ATOM     25  C   UNL     1      -1.562  11.722  23.034  0.00  0.00    +0.000 A 
ATOM     26  N   UNL     1      -0.632  10.884  23.442  0.00  0.00    +0.000 NA
ATOM     27  C   UNL     1      -0.119  10.342  22.297  0.00  0.00    +0.000 A 
ATOM     28  C   UNL     1       0.981   9.343  22.231  0.00  0.00    +0.000 C 
ATOM     29  H   UNL     1      -2.322  12.298  21.131  0.00  0.00    +0.000 HD
ENDBRANCH   3  20
TORSDOF 2
ENDMDL
MODEL 4
REMARK VINA RESULT:      -8.2      5.704      7.784
REMARK  Name = 
REMARK  2 active torsions:
REMARK  status: ('A' for Active; 'I' for Inactive)
REMARK    1  A    between atoms: N_3  and  C_4
REMARK    2  A    between atoms: N_13  and  C_14
REMARK                            x       y       z     vdW  Elec       q    Type
REMARK                         _______ _______ _______ _____ _____    ______ ____
ROOT
ATOM      1  O   UNL     1       0.412   6.904  20.574  0.00  0.00    +0.000 OA
ATOM      2  C   UNL     1       1.555   7.324  20.617  0.00  0.00    +0.000 C 
ATOM      3  N   UNL     1       1.925   8.581  21.038  0.00  0.00    +0.000 N 
ATOM      4  N   UNL     1       2.675   6.622  20.250  0.00  0.00    +0.000 N 
ATOM      5  H   UNL     1       2.880   8.652  21.348  0.00  0.00    +0.000 HD
ATOM      6  H   UNL     1       3.365   7.236  19.841  0.00  0.00    +0.000 HD
ENDROOT
BRANCH   4   7
ATOM      7  C   UNL     1       2.611   5.304  19.646  0.00  0.00    +0.000 C 
ATOM      8  C   UNL     1       3.813   4.366  19.805  0.00  0.00    +0.000 C 
ATOM      9  C   UNL     1       3.407   3.217  18.867  0.00  0.00    +0.000 C 
ATOM     10  C   UNL     1       2.656   3.882  17.699  0.00  0.00    +0.000 C 
ATOM     11  C   UNL     1       2.435   5.352  18.122  0.00  0.00    +0.000 C 
ATOM     12  C   UNL     1       3.385   6.369  17.437  0.00  0.00    +0.000 C 
ATOM     13  C   UNL     1       4.746   5.838  17.072  0.00  0.00    +0.000 A 
ATOM     14  C   UNL     1       5.186   6.009  15.746  0.00  0.00    +0.000 A 
ATOM     15  C   UNL     1       6.348   5.393  15.293  0.00  0.00    +0.000 A 
ATOM     16  C   UNL     1       7.093   4.609  16.164  0.00  0.00    +0.000 A 
ATOM     17  C   UNL     1       6.705   4.489  17.500  0.00  0.00    +0.000 A 
ATOM     18  C   UNL     1       5.540   5.115  17.979  0.00  0.00    +0.000 A 
ATOM     19  C   UNL     1       5.183   4.980  19.448  0.00  0.00    +0.000 C 
ENDBRANCH   4   7
BRANCH   3  20
ATOM     20  C   UNL     1       1.008   9.596  21.552  0.00  0.00    +0.000 C 
ATOM     21  C   UNL     1       0.059   9.043  22.649  0.00  0.00    +0.000 C 
ATOM     22  C   UNL     1      -0.705  10.173  23.373  0.00  0.00    +0.000 C 
ATOM     23  C   UNL     1      -1.166  11.169  22.380  0.00  0.00    +0.000 A 
ATOM     24  N   UNL     1      -2.066  12.176  22.563  0.00  0.00    +0.000 N 
ATOM     25  C   UNL     1      -2.147  12.855  21.375  0.00  0.00    +0.000 A 
ATOM     26  N   UNL     1      -1.355  12.339  20.458  0.00  0.00    +0.000 NA
ATOM     27  C   UNL     1      -0.747  11.281  21.074  0.00  0.00    +0.000 A 
ATOM     28  C   UNL     1       0.234  10.359  20.441  0.00  0.00    +0.000 C 
ATOM     29  H   UNL     1      -2.581  12.391  23.406  0.00  0.00    +0.000 HD
ENDBRANCH   3  20
TORSDOF 2
ENDMDL
MODEL 5
REMARK VINA RESULT:      -8.0      6.019      8.917
REMARK  Name = 
REMARK  2 active torsions:
REMARK  status: ('A' for Active; 'I' for Inactive)
REMARK    1  A    between atoms: N_3  and  C_4
REMARK    2  A    between atoms: N_13  and  C_14
REMARK                            x       y       z     vdW  Elec       q    Type
REMARK                         _______ _______ _______ _____ _____    ______ ____
ROOT
ATOM      1  O   UNL     1       2.001   8.650  17.061  0.00  0.00    +0.000 OA
ATOM      2  C   UNL     1       1.958   8.547  18.274  0.00  0.00    +0.000 C 
ATOM      3  N   UNL     1       2.587   7.571  19.013  0.00  0.00    +0.000 N 
ATOM      4  N   UNL     1       1.276   9.383  19.120  0.00  0.00    +0.000 N 
ATOM      5  H   UNL     1       2.753   7.817  19.974  0.00  0.00    +0.000 HD
ATOM      6  H   UNL     1       0.912   8.873  19.913  0.00  0.00    +0.000 HD
ENDROOT
BRANCH   4   7
ATOM      7  C   UNL     1       0.409  10.445  18.642  0.00  0.00    +0.000 C 
ATOM      8  C   UNL     1       0.878  11.897  18.791  0.00  0.00    +0.000 C 
ATOM      9  C   UNL     1      -0.390  12.655  18.364  0.00  0.00    +0.000 C 
ATOM     10  C   UNL     1      -1.570  11.804  18.870  0.00  0.00    +0.000 C 
ATOM     11  C   UNL     1      -0.954  10.469  19.347  0.00  0.00    +0.000 C 
ATOM     12  C   UNL     1      -0.838  10.328  20.888  0.00  0.00    +0.000 C 
ATOM     13  C   UNL     1      -0.639  11.616  21.643  0.00  0.00    +0.000 A 
ATOM     14  C   UNL     1      -1.514  11.898  22.707  0.00  0.00    +0.000 A 
ATOM     15  C   UNL     1      -1.503  13.141  23.332  0.00  0.00    +0.000 A 
ATOM     16  C   UNL     1      -0.607  14.114  22.909  0.00  0.00    +0.000 A 
ATOM     17  C   UNL     1       0.313  13.822  21.900  0.00  0.00    +0.000 A 
ATOM     18  C   UNL     1       0.326  12.567  21.266  0.00  0.00    +0.000 A 
ATOM     19  C   UNL     1       1.371  12.292  20.200  0.00  0.00    +0.000 C 
ENDBRANCH   4   7
BRANCH   3  20
ATOM     20  C   UNL     1       3.451   6.529  18.460  0.00  0.00    +0.000 C 
ATOM     21  C   UNL     1       3.919   5.510  19.533  0.00  0.00    +0.000 C 
ATOM     22  C   UNL     1       4.590   4.273  18.899  0.00  0.00    +0.000 C 
ATOM     23  C   UNL     1       5.484   4.707  17.802  0.00  0.00    +0.000 A 
ATOM     24  N   UNL     1       6.430   3.971  17.153  0.00  0.00    +0.000 N 
ATOM     25  C   UNL     1       6.977   4.785  16.194  0.00  0.00    +0.000 A 
ATOM     26  N   UNL     1       6.433   5.984  16.199  0.00  0.00    +0.000 NA
ATOM     27  C   UNL     1       5.508   5.947  17.205  0.00  0.00    +0.000 A 
ATOM     28  C   UNL     1       4.637   7.079  17.620  0.00  0.00    +0.000 C 
ATOM     29  H   UNL     1       6.689   3.011  17.334  0.00  0.00    +0.000 HD
ENDBRANCH   3  20
TORSDOF 2
ENDMDL
MODEL 6
REMARK VINA RESULT:      -8.0      2.116      8.890
REMARK  Name = 
REMARK  2 active torsions:
REMARK  status: ('A' for Active; 'I' for Inactive)
REMARK    1  A    between atoms: N_3  and  C_4
REMARK    2  A    between atoms: N_13  and  C_14
REMARK                            x       y       z     vdW  Elec       q    Type
REMARK                         _______ _______ _______ _____ _____    ______ ____
ROOT
ATOM      1  O   UNL     1       8.832   7.777  18.940  0.00  0.00    +0.000 OA
ATOM      2  C   UNL     1       8.236   8.537  18.197  0.00  0.00    +0.000 C 
ATOM      3  N   UNL     1       7.116   8.219  17.464  0.00  0.00    +0.000 N 
ATOM      4  N   UNL     1       8.575   9.845  17.959  0.00  0.00    +0.000 N 
ATOM      5  H   UNL     1       6.553   9.009  17.198  0.00  0.00    +0.000 HD
ATOM      6  H   UNL     1       8.364  10.102  17.006  0.00  0.00    +0.000 HD
ENDROOT
BRANCH   4   7
ATOM      7  C   UNL     1       9.782  10.451  18.491  0.00  0.00    +0.000 C 
ATOM      8  C   UNL     1       9.796  10.893  19.958  0.00  0.00    +0.000 C 
ATOM      9  C   UNL     1      11.139  11.639  20.022  0.00  0.00    +0.000 C 
ATOM     10  C   UNL     1      11.300  12.317  18.649  0.00  0.00    +0.000 C 
ATOM     11  C   UNL     1      10.177  11.740  17.758  0.00  0.00    +0.000 C 
ATOM     12  C   UNL     1       8.977  12.698  17.534  0.00  0.00    +0.000 C 
ATOM     13  C   UNL     1       8.691  13.653  18.664  0.00  0.00    +0.000 A 
ATOM     14  C   UNL     1       8.592  15.023  18.359  0.00  0.00    +0.000 A 
ATOM     15  C   UNL     1       8.507  15.975  19.369  0.00  0.00    +0.000 A 
ATOM     16  C   UNL     1       8.507  15.570  20.697  0.00  0.00    +0.000 A 
ATOM     17  C   UNL     1       8.535  14.209  21.010  0.00  0.00    +0.000 A 
ATOM     18  C   UNL     1       8.607  13.230  20.003  0.00  0.00    +0.000 A 
ATOM     19  C   UNL     1       8.600  11.765  20.398  0.00  0.00    +0.000 C 
ENDBRANCH   4   7
BRANCH   3  20
ATOM     20  C   UNL     1       6.433   6.927  17.498  0.00  0.00    +0.000 C 
ATOM     21  C   UNL     1       6.967   5.941  16.424  0.00  0.00    +0.000 C 
ATOM     22  C   UNL     1       6.441   4.506  16.647  0.00  0.00    +0.000 C 
ATOM     23  C   UNL     1       5.006   4.559  17.006  0.00  0.00    +0.000 A 
ATOM     24  N   UNL     1       4.117   3.527  17.049  0.00  0.00    +0.000 N 
ATOM     25  C   UNL     1       2.921   4.051  17.466  0.00  0.00    +0.000 A 
ATOM     26  N   UNL     1       3.003   5.347  17.688  0.00  0.00    +0.000 NA
ATOM     27  C   UNL     1       4.297   5.673  17.394  0.00  0.00    +0.000 A 
ATOM     28  C   UNL     1       4.883   7.038  17.471  0.00  0.00    +0.000 C 
ATOM     29  H   UNL     1       4.293   2.557  16.821  0.00  0.00    +0.000 HD
ENDBRANCH   3  20
TORSDOF 2
ENDMDL
MODEL 7
REMARK VINA RESULT:      -7.9      6.283      9.617
REMARK  Name = 
REMARK  2 active torsions:
REMARK  status: ('A' for Active; 'I' for Inactive)
REMARK    1  A    between atoms: N_3  and  C_4
REMARK    2  A    between atoms: N_13  and  C_14
REMARK                            x       y       z     vdW  Elec       q    Type
REMARK                         _______ _______ _______ _____ _____    ______ ____
ROOT
ATOM      1  O   UNL     1       1.594   7.986  17.641  0.00  0.00    +0.000 OA
ATOM      2  C   UNL     1       1.839   8.230  18.809  0.00  0.00    +0.000 C 
ATOM      3  N   UNL     1       2.547   7.413  19.661  0.00  0.00    +0.000 N 
ATOM      4  N   UNL     1       1.453   9.359  19.484  0.00  0.00    +0.000 N 
ATOM      5  H   UNL     1       2.961   7.888  20.446  0.00  0.00    +0.000 HD
ATOM      6  H   UNL     1       1.252   9.149  20.452  0.00  0.00    +0.000 HD
ENDROOT
BRANCH   4   7
ATOM      7  C   UNL     1       0.585  10.365  18.898  0.00  0.00    +0.000 C 
ATOM      8  C   UNL     1       1.002  11.837  18.993  0.00  0.00    +0.000 C 
ATOM      9  C   UNL     1      -0.261  12.529  18.451  0.00  0.00    +0.000 C 
ATOM     10  C   UNL     1      -1.443  11.668  18.934  0.00  0.00    +0.000 C 
ATOM     11  C   UNL     1      -0.817  10.382  19.520  0.00  0.00    +0.000 C 
ATOM     12  C   UNL     1      -0.790  10.328  21.070  0.00  0.00    +0.000 C 
ATOM     13  C   UNL     1      -0.674  11.661  21.762  0.00  0.00    +0.000 A 
ATOM     14  C   UNL     1      -1.620  11.971  22.757  0.00  0.00    +0.000 A 
ATOM     15  C   UNL     1      -1.683  13.246  23.311  0.00  0.00    +0.000 A 
ATOM     16  C   UNL     1      -0.793  14.223  22.887  0.00  0.00    +0.000 A 
ATOM     17  C   UNL     1       0.195  13.908  21.951  0.00  0.00    +0.000 A 
ATOM     18  C   UNL     1       0.283  12.621  21.390  0.00  0.00    +0.000 A 
ATOM     19  C   UNL     1       1.397  12.324  20.403  0.00  0.00    +0.000 C 
ENDBRANCH   4   7
BRANCH   3  20
ATOM     20  C   UNL     1       3.163   6.142  19.283  0.00  0.00    +0.000 C 
ATOM     21  C   UNL     1       4.052   6.263  18.017  0.00  0.00    +0.000 C 
ATOM     22  C   UNL     1       4.909   4.998  17.792  0.00  0.00    +0.000 C 
ATOM     23  C   UNL     1       4.085   3.795  18.048  0.00  0.00    +0.000 A 
ATOM     24  N   UNL     1       4.376   2.500  17.737  0.00  0.00    +0.000 N 
ATOM     25  C   UNL     1       3.334   1.737  18.199  0.00  0.00    +0.000 A 
ATOM     26  N   UNL     1       2.408   2.471  18.779  0.00  0.00    +0.000 NA
ATOM     27  C   UNL     1       2.863   3.756  18.681  0.00  0.00    +0.000 A 
ATOM     28  C   UNL     1       2.154   4.965  19.178  0.00  0.00    +0.000 C 
ATOM     29  H   UNL     1       5.198   2.156  17.260  0.00  0.00    +0.000 HD
ENDBRANCH   3  20
TORSDOF 2
ENDMDL
MODEL 8
REMARK VINA RESULT:      -7.8      2.171      9.169
REMARK  Name = 
REMARK  2 active torsions:
REMARK  status: ('A' for Active; 'I' for Inactive)
REMARK    1  A    between atoms: N_3  and  C_4
REMARK    2  A    between atoms: N_13  and  C_14
REMARK                            x       y       z     vdW  Elec       q    Type
REMARK                         _______ _______ _______ _____ _____    ______ ____
ROOT
ATOM      1  O   UNL     1       8.746   7.837  19.395  0.00  0.00    +0.000 OA
ATOM      2  C   UNL     1       8.422   8.593  18.497  0.00  0.00    +0.000 C 
ATOM      3  N   UNL     1       7.619   8.263  17.429  0.00  0.00    +0.000 N 
ATOM      4  N   UNL     1       8.799   9.907  18.388  0.00  0.00    +0.000 N 
ATOM      5  H   UNL     1       7.165   9.046  16.991  0.00  0.00    +0.000 HD
ATOM      6  H   UNL     1       8.917  10.168  17.419  0.00  0.00    +0.000 HD
ENDROOT
BRANCH   4   7
ATOM      7  C   UNL     1       9.748  10.528  19.295  0.00  0.00    +0.000 C 
ATOM      8  C   UNL     1       9.309  11.771  20.077  0.00  0.00    +0.000 C 
ATOM      9  C   UNL     1      10.641  12.193  20.719  0.00  0.00    +0.000 C 
ATOM     10  C   UNL     1      11.726  11.850  19.682  0.00  0.00    +0.000 C 
ATOM     11  C   UNL     1      11.018  11.019  18.589  0.00  0.00    +0.000 C 
ATOM     12  C   UNL     1      10.718  11.798  17.281  0.00  0.00    +0.000 C 
ATOM     13  C   UNL     1      10.470  13.275  17.450  0.00  0.00    +0.000 A 
ATOM     14  C   UNL     1      11.223  14.163  16.660  0.00  0.00    +0.000 A 
ATOM     15  C   UNL     1      11.176  15.535  16.885  0.00  0.00    +0.000 A 
ATOM     16  C   UNL     1      10.366  16.037  17.895  0.00  0.00    +0.000 A 
ATOM     17  C   UNL     1       9.562  15.171  18.640  0.00  0.00    +0.000 A 
ATOM     18  C   UNL     1       9.586  13.783  18.417  0.00  0.00    +0.000 A 
ATOM     19  C   UNL     1       8.666  12.891  19.231  0.00  0.00    +0.000 C 
ENDBRANCH   4   7
BRANCH   3  20
ATOM     20  C   UNL     1       6.985   6.961  17.230  0.00  0.00    +0.000 C 
ATOM     21  C   UNL     1       7.354   6.320  15.864  0.00  0.00    +0.000 C 
ATOM     22  C   UNL     1       6.912   4.843  15.783  0.00  0.00    +0.000 C 
ATOM     23  C   UNL     1       5.557   4.703  16.364  0.00  0.00    +0.000 A 
ATOM     24  N   UNL     1       4.716   3.635  16.274  0.00  0.00    +0.000 N 
ATOM     25  C   UNL     1       3.594   3.952  16.996  0.00  0.00    +0.000 A 
ATOM     26  N   UNL     1       3.679   5.151  17.534  0.00  0.00    +0.000 NA
ATOM     27  C   UNL     1       4.896   5.630  17.137  0.00  0.00    +0.000 A 
ATOM     28  C   UNL     1       5.451   6.967  17.476  0.00  0.00    +0.000 C 
ATOM     29  H   UNL     1       4.875   2.770  15.774  0.00  0.00    +0.000 HD
ENDBRANCH   3  20
TORSDOF 2
ENDMDL
MODEL 9
REMARK VINA RESULT:      -7.7      6.393      9.686
REMARK  Name = 
REMARK  2 active torsions:
REMARK  status: ('A' for Active; 'I' for Inactive)
REMARK    1  A    between atoms: N_3  and  C_4
REMARK    2  A    between atoms: N_13  and  C_14
REMARK                            x       y       z     vdW  Elec       q    Type
REMARK                         _______ _______ _______ _____ _____    ______ ____
ROOT
ATOM      1  O   UNL     1       1.360   8.101  21.169  0.00  0.00    +0.000 OA
ATOM      2  C   UNL     1       1.353   8.500  20.017  0.00  0.00    +0.000 C 
ATOM      3  N   UNL     1       2.115   7.988  18.993  0.00  0.00    +0.000 N 
ATOM      4  N   UNL     1       0.585   9.530  19.538  0.00  0.00    +0.000 N 
ATOM      5  H   UNL     1       1.751   8.167  18.072  0.00  0.00    +0.000 HD
ATOM      6  H   UNL     1       1.077  10.039  18.816  0.00  0.00    +0.000 HD
ENDROOT
BRANCH   4   7
ATOM      7  C   UNL     1      -0.240  10.359  20.397  0.00  0.00    +0.000 C 
ATOM      8  C   UNL     1      -1.271  11.290  19.747  0.00  0.00    +0.000 C 
ATOM      9  C   UNL     1      -1.745  12.093  20.971  0.00  0.00    +0.000 C 
ATOM     10  C   UNL     1      -0.503  12.252  21.867  0.00  0.00    +0.000 C 
ATOM     11  C   UNL     1       0.578  11.329  21.259  0.00  0.00    +0.000 C 
ATOM     12  C   UNL     1       1.678  12.070  20.454  0.00  0.00    +0.000 C 
ATOM     13  C   UNL     1       1.239  13.342  19.776  0.00  0.00    +0.000 A 
ATOM     14  C   UNL     1       1.990  14.508  20.013  0.00  0.00    +0.000 A 
ATOM     15  C   UNL     1       1.545  15.748  19.567  0.00  0.00    +0.000 A 
ATOM     16  C   UNL     1       0.349  15.837  18.866  0.00  0.00    +0.000 A 
ATOM     17  C   UNL     1      -0.370  14.678  18.565  0.00  0.00    +0.000 A 
ATOM     18  C   UNL     1       0.071  13.414  18.996  0.00  0.00    +0.000 A 
ATOM     19  C   UNL     1      -0.731  12.184  18.611  0.00  0.00    +0.000 C 
ENDBRANCH   4   7
BRANCH   3  20
ATOM     20  C   UNL     1       3.021   6.847  19.113  0.00  0.00    +0.000 C 
ATOM     21  C   UNL     1       3.900   6.647  17.849  0.00  0.00    +0.000 C 
ATOM     22  C   UNL     1       5.033   5.626  18.091  0.00  0.00    +0.000 C 
ATOM     23  C   UNL     1       4.503   4.475  18.856  0.00  0.00    +0.000 A 
ATOM     24  N   UNL     1       5.098   3.267  19.067  0.00  0.00    +0.000 N 
ATOM     25  C   UNL     1       4.247   2.540  19.858  0.00  0.00    +0.000 A 
ATOM     26  N   UNL     1       3.156   3.215  20.157  0.00  0.00    +0.000 NA
ATOM     27  C   UNL     1       3.304   4.419  19.528  0.00  0.00    +0.000 A 
ATOM     28  C   UNL     1       2.317   5.532  19.548  0.00  0.00    +0.000 C 
ATOM     29  H   UNL     1       5.993   2.955  18.714  0.00  0.00    +0.000 HD
ENDBRANCH   3  20
TORSDOF 2
ENDMDL
