MODEL 1
REMARK VINA RESULT:      -7.3      0.000      0.000
REMARK  Name = 
REMARK  2 active torsions:
REMARK  status: ('A' for Active; 'I' for Inactive)
REMARK    1  A    between atoms: C_1  and  C_2
REMARK    2  A    between atoms: C_20  and  C_21
REMARK                            x       y       z     vdW  Elec       q    Type
REMARK                         _______ _______ _______ _____ _____    ______ ____
ROOT
ATOM      1  C   UNL     1      -6.926  11.448  18.298  0.00  0.00    +0.000 C 
ATOM      2  C   UNL     1      -6.254  12.002  19.516  0.00  0.00    +0.000 A 
ATOM      3  C   UNL     1      -6.739  11.800  20.810  0.00  0.00    +0.000 A 
ATOM      4  C   UNL     1      -6.087  12.372  21.919  0.00  0.00    +0.000 A 
ATOM      5  C   UNL     1      -4.965  13.160  21.717  0.00  0.00    +0.000 A 
ATOM      6  N   UNL     1      -4.141  13.664  22.835  0.00  0.00    +0.000 N 
ATOM      7  C   UNL     1      -3.760  12.623  23.712  0.00  0.00    +0.000 C 
ATOM      8  O   UNL     1      -4.437  12.060  24.551  0.00  0.00    +0.000 OA
ATOM      9  C   UNL     1      -2.432  12.155  23.223  0.00  0.00    +0.000 A 
ATOM     10  O   UNL     1      -1.889  10.915  23.435  0.00  0.00    +0.000 OA
ATOM     11  C   UNL     1      -0.903  10.551  22.541  0.00  0.00    +0.000 A 
ATOM     12  C   UNL     1      -0.240   9.345  22.765  0.00  0.00    +0.000 A 
ATOM     13  C   UNL     1       0.686   8.886  21.831  0.00  0.00    +0.000 A 
ATOM     14  C   UNL     1       0.931   9.605  20.655  0.00  0.00    +0.000 A 
ATOM     15  C   UNL     1       0.302  10.828  20.445  0.00  0.00    +0.000 A 
ATOM     16  C   UNL     1      -0.575  11.313  21.409  0.00  0.00    +0.000 A 
ATOM     17  C   UNL     1      -1.140  12.660  21.254  0.00  0.00    +0.000 A 
ATOM     18  O   UNL     1      -0.877  13.395  20.313  0.00  0.00    +0.000 OA
ATOM     19  C   UNL     1      -2.072  13.039  22.303  0.00  0.00    +0.000 A 
ATOM     20  C   UNL     1      -2.884  14.267  22.322  0.00  0.00    +0.000 C 
ATOM     21  N   UNL     1      -4.491  13.351  20.455  0.00  0.00    +0.000 NA
ATOM     22  C   UNL     1      -5.111  12.765  19.403  0.00  0.00    +0.000 A 
ENDROOT
BRANCH  20  23
ATOM     23  C   UNL     1      -2.074  15.307  23.120  0.00  0.00    +0.000 A 
ATOM     24  C   UNL     1      -1.369  16.253  22.331  0.00  0.00    +0.000 A 
ATOM     25  C   UNL     1      -0.410  17.107  22.865  0.00  0.00    +0.000 A 
ATOM     26  C   UNL     1      -0.131  17.052  24.223  0.00  0.00    +0.000 A 
ATOM     27  C   UNL     1      -0.822  16.146  25.032  0.00  0.00    +0.000 A 
ATOM     28  C   UNL     1      -1.787  15.274  24.492  0.00  0.00    +0.000 A 
ENDBRANCH  20  23
TORSDOF 1
ENDMDL
MODEL 2
REMARK VINA RESULT:      -7.3      3.480      4.629
REMARK  Name = 
REMARK  2 active torsions:
REMARK  status: ('A' for Active; 'I' for Inactive)
REMARK    1  A    between atoms: C_1  and  C_2
REMARK    2  A    between atoms: C_20  and  C_21
REMARK                            x       y       z     vdW  Elec       q    Type
REMARK                         _______ _______ _______ _____ _____    ______ ____
ROOT
ATOM      1  C   UNL     1      -4.553  10.857  16.377  0.00  0.00    +0.000 C 
ATOM      2  C   UNL     1      -3.547  11.372  17.358  0.00  0.00    +0.000 A 
ATOM      3  C   UNL     1      -3.857  11.652  18.690  0.00  0.00    +0.000 A 
ATOM      4  C   UNL     1      -2.879  12.167  19.563  0.00  0.00    +0.000 A 
ATOM      5  C   UNL     1      -1.603  12.416  19.085  0.00  0.00    +0.000 A 
ATOM      6  N   UNL     1      -0.488  12.807  19.972  0.00  0.00    +0.000 N 
ATOM      7  C   UNL     1      -0.352  11.917  21.061  0.00  0.00    +0.000 C 
ATOM      8  O   UNL     1      -1.038  11.845  22.064  0.00  0.00    +0.000 OA
ATOM      9  C   UNL     1       0.637  10.894  20.621  0.00  0.00    +0.000 A 
ATOM     10  O   UNL     1       0.748   9.620  21.111  0.00  0.00    +0.000 OA
ATOM     11  C   UNL     1       1.393   8.729  20.276  0.00  0.00    +0.000 A 
ATOM     12  C   UNL     1       1.628   7.443  20.761  0.00  0.00    +0.000 A 
ATOM     13  C   UNL     1       2.177   6.480  19.917  0.00  0.00    +0.000 A 
ATOM     14  C   UNL     1       2.463   6.782  18.580  0.00  0.00    +0.000 A 
ATOM     15  C   UNL     1       2.266   8.073  18.102  0.00  0.00    +0.000 A 
ATOM     16  C   UNL     1       1.776   9.048  18.964  0.00  0.00    +0.000 A 
ATOM     17  C   UNL     1       1.691  10.439  18.503  0.00  0.00    +0.000 A 
ATOM     18  O   UNL     1       2.036  10.800  17.386  0.00  0.00    +0.000 OA
ATOM     19  C   UNL     1       1.127  11.356  19.479  0.00  0.00    +0.000 A 
ATOM     20  C   UNL     1       0.800  12.772  19.233  0.00  0.00    +0.000 C 
ATOM     21  N   UNL     1      -1.301  12.137  17.786  0.00  0.00    +0.000 NA
ATOM     22  C   UNL     1      -2.244  11.610  16.970  0.00  0.00    +0.000 A 
ENDROOT
BRANCH  20  23
ATOM     23  C   UNL     1       2.035  13.582  19.673  0.00  0.00    +0.000 A 
ATOM     24  C   UNL     1       2.842  14.068  18.612  0.00  0.00    +0.000 A 
ATOM     25  C   UNL     1       4.107  14.610  18.822  0.00  0.00    +0.000 A 
ATOM     26  C   UNL     1       4.604  14.696  20.113  0.00  0.00    +0.000 A 
ATOM     27  C   UNL     1       3.826  14.244  21.183  0.00  0.00    +0.000 A 
ATOM     28  C   UNL     1       2.549  13.687  20.973  0.00  0.00    +0.000 A 
ENDBRANCH  20  23
TORSDOF 1
ENDMDL
MODEL 3
REMARK VINA RESULT:      -7.2      2.785      5.898
REMARK  Name = 
REMARK  2 active torsions:
REMARK  status: ('A' for Active; 'I' for Inactive)
REMARK    1  A    between atoms: C_1  and  C_2
REMARK    2  A    between atoms: C_20  and  C_21
REMARK                            x       y       z     vdW  Elec       q    Type
REMARK                         _______ _______ _______ _____ _____    ______ ____
ROOT
ATOM      1  C   UNL     1       2.843   7.964  17.851  0.00  0.00    +0.000 C 
ATOM      2  C   UNL     1       1.831   8.668  18.699  0.00  0.00    +0.000 A 
ATOM      3  C   UNL     1       1.619   8.359  20.044  0.00  0.00    +0.000 A 
ATOM      4  C   UNL     1       0.630   9.029  20.788  0.00  0.00    +0.000 A 
ATOM      5  C   UNL     1      -0.154   9.990  20.169  0.00  0.00    +0.000 A 
ATOM      6  N   UNL     1      -1.102  10.841  20.918  0.00  0.00    +0.000 N 
ATOM      7  C   UNL     1      -0.479  11.467  22.022  0.00  0.00    +0.000 C 
ATOM      8  O   UNL     1      -0.176  10.976  23.093  0.00  0.00    +0.000 OA
ATOM      9  C   UNL     1      -0.015  12.791  21.521  0.00  0.00    +0.000 A 
ATOM     10  O   UNL     1       1.007  13.537  22.047  0.00  0.00    +0.000 OA
ATOM     11  C   UNL     1       1.553  14.467  21.186  0.00  0.00    +0.000 A 
ATOM     12  C   UNL     1       2.526  15.326  21.694  0.00  0.00    +0.000 A 
ATOM     13  C   UNL     1       3.180  16.207  20.837  0.00  0.00    +0.000 A 
ATOM     14  C   UNL     1       2.895  16.214  19.466  0.00  0.00    +0.000 A 
ATOM     15  C   UNL     1       1.898  15.387  18.960  0.00  0.00    +0.000 A 
ATOM     16  C   UNL     1       1.203  14.553  19.829  0.00  0.00    +0.000 A 
ATOM     17  C   UNL     1       0.064  13.776  19.325  0.00  0.00    +0.000 A 
ATOM     18  O   UNL     1      -0.321  13.823  18.164  0.00  0.00    +0.000 OA
ATOM     19  C   UNL     1      -0.555  12.914  20.317  0.00  0.00    +0.000 A 
ATOM     20  C   UNL     1      -1.619  11.930  20.050  0.00  0.00    +0.000 C 
ATOM     21  N   UNL     1       0.058  10.294  18.858  0.00  0.00    +0.000 NA
ATOM     22  C   UNL     1       1.037   9.663  18.168  0.00  0.00    +0.000 A 
ENDROOT
BRANCH  20  23
ATOM     23  C   UNL     1      -2.952  12.652  20.326  0.00  0.00    +0.000 A 
ATOM     24  C   UNL     1      -4.048  12.206  19.543  0.00  0.00    +0.000 A 
ATOM     25  C   UNL     1      -5.257  12.893  19.487  0.00  0.00    +0.000 A 
ATOM     26  C   UNL     1      -5.415  14.053  20.232  0.00  0.00    +0.000 A 
ATOM     27  C   UNL     1      -4.361  14.507  21.030  0.00  0.00    +0.000 A 
ATOM     28  C   UNL     1      -3.134  13.818  21.081  0.00  0.00    +0.000 A 
ENDBRANCH  20  23
TORSDOF 1
ENDMDL
MODEL 4
REMARK VINA RESULT:      -7.2      2.370      5.688
REMARK  Name = 
REMARK  2 active torsions:
REMARK  status: ('A' for Active; 'I' for Inactive)
REMARK    1  A    between atoms: C_1  and  C_2
REMARK    2  A    between atoms: C_20  and  C_21
REMARK                            x       y       z     vdW  Elec       q    Type
REMARK                         _______ _______ _______ _____ _____    ______ ____
ROOT
ATOM      1  C   UNL     1      -0.757  18.389  17.844  0.00  0.00    +0.000 C 
ATOM      2  C   UNL     1      -0.858  17.310  18.876  0.00  0.00    +0.000 A 
ATOM      3  C   UNL     1      -1.365  17.529  20.158  0.00  0.00    +0.000 A 
ATOM      4  C   UNL     1      -1.406  16.486  21.102  0.00  0.00    +0.000 A 
ATOM      5  C   UNL     1      -0.917  15.236  20.758  0.00  0.00    +0.000 A 
ATOM      6  N   UNL     1      -1.066  14.058  21.637  0.00  0.00    +0.000 N 
ATOM      7  C   UNL     1      -2.409  13.876  22.041  0.00  0.00    +0.000 C 
ATOM      8  O   UNL     1      -3.033  14.499  22.879  0.00  0.00    +0.000 OA
ATOM      9  C   UNL     1      -3.004  12.943  21.043  0.00  0.00    +0.000 A 
ATOM     10  O   UNL     1      -4.335  12.834  20.738  0.00  0.00    +0.000 OA
ATOM     11  C   UNL     1      -4.606  12.266  19.509  0.00  0.00    +0.000 A 
ATOM     12  C   UNL     1      -5.942  12.033  19.185  0.00  0.00    +0.000 A 
ATOM     13  C   UNL     1      -6.269  11.563  17.916  0.00  0.00    +0.000 A 
ATOM     14  C   UNL     1      -5.274  11.355  16.953  0.00  0.00    +0.000 A 
ATOM     15  C   UNL     1      -3.937  11.548  17.282  0.00  0.00    +0.000 A 
ATOM     16  C   UNL     1      -3.609  11.958  18.570  0.00  0.00    +0.000 A 
ATOM     17  C   UNL     1      -2.196  12.037  18.963  0.00  0.00    +0.000 A 
ATOM     18  O   UNL     1      -1.273  11.753  18.211  0.00  0.00    +0.000 OA
ATOM     19  C   UNL     1      -1.980  12.514  20.318  0.00  0.00    +0.000 A 
ATOM     20  C   UNL     1      -0.670  12.820  20.918  0.00  0.00    +0.000 C 
ATOM     21  N   UNL     1      -0.427  15.023  19.505  0.00  0.00    +0.000 NA
ATOM     22  C   UNL     1      -0.427  16.029  18.599  0.00  0.00    +0.000 A 
ENDROOT
BRANCH  20  23
ATOM     23  C   UNL     1      -0.222  11.539  21.649  0.00  0.00    +0.000 A 
ATOM     24  C   UNL     1       0.667  10.710  20.916  0.00  0.00    +0.000 A 
ATOM     25  C   UNL     1       0.985   9.416  21.317  0.00  0.00    +0.000 A 
ATOM     26  C   UNL     1       0.430   8.910  22.483  0.00  0.00    +0.000 A 
ATOM     27  C   UNL     1      -0.433   9.709  23.239  0.00  0.00    +0.000 A 
ATOM     28  C   UNL     1      -0.763  11.015  22.830  0.00  0.00    +0.000 A 
ENDBRANCH  20  23
TORSDOF 1
ENDMDL
MODEL 5
REMARK VINA RESULT:      -7.1      1.267      1.394
REMARK  Name = 
REMARK  2 active torsions:
REMARK  status: ('A' for Active; 'I' for Inactive)
REMARK    1  A    between atoms: C_1  and  C_2
REMARK    2  A    between atoms: C_20  and  C_21
REMARK                            x       y       z     vdW  Elec       q    Type
REMARK                         _______ _______ _______ _____ _____    ______ ____
ROOT
ATOM      1  C   UNL     1      -7.211  12.582  18.613  0.00  0.00    +0.000 C 
ATOM      2  C   UNL     1      -6.624  12.876  19.958  0.00  0.00    +0.000 A 
ATOM      3  C   UNL     1      -7.125  12.331  21.142  0.00  0.00    +0.000 A 
ATOM      4  C   UNL     1      -6.555  12.666  22.385  0.00  0.00    +0.000 A 
ATOM      5  C   UNL     1      -5.501  13.564  22.431  0.00  0.00    +0.000 A 
ATOM      6  N   UNL     1      -4.755  13.846  23.675  0.00  0.00    +0.000 N 
ATOM      7  C   UNL     1      -4.309  12.656  24.295  0.00  0.00    +0.000 C 
ATOM      8  O   UNL     1      -4.958  11.857  24.943  0.00  0.00    +0.000 OA
ATOM      9  C   UNL     1      -2.933  12.424  23.772  0.00  0.00    +0.000 A 
ATOM     10  O   UNL     1      -2.290  11.217  23.708  0.00  0.00    +0.000 OA
ATOM     11  C   UNL     1      -1.251  11.157  22.800  0.00  0.00    +0.000 A 
ATOM     12  C   UNL     1      -0.493   9.988  22.762  0.00  0.00    +0.000 A 
ATOM     13  C   UNL     1       0.494   9.841  21.791  0.00  0.00    +0.000 A 
ATOM     14  C   UNL     1       0.708  10.840  20.833  0.00  0.00    +0.000 A 
ATOM     15  C   UNL     1      -0.018  12.025  20.891  0.00  0.00    +0.000 A 
ATOM     16  C   UNL     1      -0.960  12.193  21.900  0.00  0.00    +0.000 A 
ATOM     17  C   UNL     1      -1.636  13.489  22.045  0.00  0.00    +0.000 A 
ATOM     18  O   UNL     1      -1.412  14.449  21.319  0.00  0.00    +0.000 OA
ATOM     19  C   UNL     1      -2.625  13.530  23.108  0.00  0.00    +0.000 A 
ATOM     20  C   UNL     1      -3.541  14.651  23.381  0.00  0.00    +0.000 C 
ATOM     21  N   UNL     1      -5.011  14.091  21.274  0.00  0.00    +0.000 NA
ATOM     22  C   UNL     1      -5.548  13.730  20.085  0.00  0.00    +0.000 A 
ENDROOT
BRANCH  20  23
ATOM     23  C   UNL     1      -2.846  15.526  24.442  0.00  0.00    +0.000 A 
ATOM     24  C   UNL     1      -3.388  16.829  24.592  0.00  0.00    +0.000 A 
ATOM     25  C   UNL     1      -2.748  17.826  25.323  0.00  0.00    +0.000 A 
ATOM     26  C   UNL     1      -1.541  17.544  25.946  0.00  0.00    +0.000 A 
ATOM     27  C   UNL     1      -0.992  16.264  25.835  0.00  0.00    +0.000 A 
ATOM     28  C   UNL     1      -1.632  15.256  25.088  0.00  0.00    +0.000 A 
ENDBRANCH  20  23
TORSDOF 1
ENDMDL
MODEL 6
REMARK VINA RESULT:      -7.1      3.221      4.445
REMARK  Name = 
REMARK  2 active torsions:
REMARK  status: ('A' for Active; 'I' for Inactive)
REMARK    1  A    between atoms: C_1  and  C_2
REMARK    2  A    between atoms: C_20  and  C_21
REMARK                            x       y       z     vdW  Elec       q    Type
REMARK                         _______ _______ _______ _____ _____    ______ ____
ROOT
ATOM      1  C   UNL     1      -4.392  10.826  16.096  0.00  0.00    +0.000 C 
ATOM      2  C   UNL     1      -3.471  11.303  17.175  0.00  0.00    +0.000 A 
ATOM      3  C   UNL     1      -3.881  11.493  18.496  0.00  0.00    +0.000 A 
ATOM      4  C   UNL     1      -2.982  11.975  19.466  0.00  0.00    +0.000 A 
ATOM      5  C   UNL     1      -1.682  12.283  19.096  0.00  0.00    +0.000 A 
ATOM      6  N   UNL     1      -0.644  12.645  20.082  0.00  0.00    +0.000 N 
ATOM      7  C   UNL     1      -0.560  11.693  21.123  0.00  0.00    +0.000 C 
ATOM      8  O   UNL     1      -1.311  11.542  22.068  0.00  0.00    +0.000 OA
ATOM      9  C   UNL     1       0.486  10.722  20.694  0.00  0.00    +0.000 A 
ATOM     10  O   UNL     1       0.599   9.423  21.113  0.00  0.00    +0.000 OA
ATOM     11  C   UNL     1       1.324   8.601  20.274  0.00  0.00    +0.000 A 
ATOM     12  C   UNL     1       1.561   7.294  20.696  0.00  0.00    +0.000 A 
ATOM     13  C   UNL     1       2.195   6.399  19.838  0.00  0.00    +0.000 A 
ATOM     14  C   UNL     1       2.564   6.789  18.545  0.00  0.00    +0.000 A 
ATOM     15  C   UNL     1       2.366   8.102  18.132  0.00  0.00    +0.000 A 
ATOM     16  C   UNL     1       1.790   9.010  19.014  0.00  0.00    +0.000 A 
ATOM     17  C   UNL     1       1.698  10.425  18.633  0.00  0.00    +0.000 A 
ATOM     18  O   UNL     1       2.110  10.862  17.567  0.00  0.00    +0.000 OA
ATOM     19  C   UNL     1       1.042  11.266  19.619  0.00  0.00    +0.000 A 
ATOM     20  C   UNL     1       0.693  12.686  19.436  0.00  0.00    +0.000 C 
ATOM     21  N   UNL     1      -1.283  12.092  17.808  0.00  0.00    +0.000 NA
ATOM     22  C   UNL     1      -2.152  11.595  16.896  0.00  0.00    +0.000 A 
ENDROOT
BRANCH  20  23
ATOM     23  C   UNL     1       1.872  13.496  20.011  0.00  0.00    +0.000 A 
ATOM     24  C   UNL     1       1.586  14.202  21.209  0.00  0.00    +0.000 A 
ATOM     25  C   UNL     1       2.446  15.162  21.735  0.00  0.00    +0.000 A 
ATOM     26  C   UNL     1       3.637  15.438  21.082  0.00  0.00    +0.000 A 
ATOM     27  C   UNL     1       3.958  14.745  19.911  0.00  0.00    +0.000 A 
ATOM     28  C   UNL     1       3.086  13.780  19.372  0.00  0.00    +0.000 A 
ENDBRANCH  20  23
TORSDOF 1
ENDMDL
MODEL 7
REMARK VINA RESULT:      -7.0      3.230      5.588
REMARK  Name = 
REMARK  2 active torsions:
REMARK  status: ('A' for Active; 'I' for Inactive)
REMARK    1  A    between atoms: C_1  and  C_2
REMARK    2  A    between atoms: C_20  and  C_21
REMARK                            x       y       z     vdW  Elec       q    Type
REMARK                         _______ _______ _______ _____ _____    ______ ____
ROOT
ATOM      1  C   UNL     1      -2.283  10.122  17.369  0.00  0.00    +0.000 C 
ATOM      2  C   UNL     1      -1.603  10.873  18.472  0.00  0.00    +0.000 A 
ATOM      3  C   UNL     1      -0.349  10.520  18.973  0.00  0.00    +0.000 A 
ATOM      4  C   UNL     1       0.230  11.241  20.034  0.00  0.00    +0.000 A 
ATOM      5  C   UNL     1      -0.465  12.298  20.599  0.00  0.00    +0.000 A 
ATOM      6  N   UNL     1       0.139  13.194  21.606  0.00  0.00    +0.000 N 
ATOM      7  C   UNL     1       1.382  13.706  21.169  0.00  0.00    +0.000 C 
ATOM      8  O   UNL     1       2.457  13.138  21.126  0.00  0.00    +0.000 OA
ATOM      9  C   UNL     1       1.069  15.006  20.510  0.00  0.00    +0.000 A 
ATOM     10  O   UNL     1       1.832  15.629  19.558  0.00  0.00    +0.000 OA
ATOM     11  C   UNL     1       1.156  16.546  18.779  0.00  0.00    +0.000 A 
ATOM     12  C   UNL     1       1.901  17.287  17.862  0.00  0.00    +0.000 A 
ATOM     13  C   UNL     1       1.247  18.146  16.981  0.00  0.00    +0.000 A 
ATOM     14  C   UNL     1      -0.150  18.245  16.985  0.00  0.00    +0.000 A 
ATOM     15  C   UNL     1      -0.894  17.538  17.924  0.00  0.00    +0.000 A 
ATOM     16  C   UNL     1      -0.233  16.730  18.842  0.00  0.00    +0.000 A 
ATOM     17  C   UNL     1      -1.000  16.085  19.916  0.00  0.00    +0.000 A 
ATOM     18  O   UNL     1      -2.208  16.223  20.055  0.00  0.00    +0.000 OA
ATOM     19  C   UNL     1      -0.207  15.235  20.787  0.00  0.00    +0.000 A 
ATOM     20  C   UNL     1      -0.740  14.366  21.851  0.00  0.00    +0.000 C 
ATOM     21  N   UNL     1      -1.687  12.644  20.105  0.00  0.00    +0.000 NA
ATOM     22  C   UNL     1      -2.213  11.962  19.062  0.00  0.00    +0.000 A 
ENDROOT
BRANCH  20  23
ATOM     23  C   UNL     1      -0.683  15.193  23.151  0.00  0.00    +0.000 A 
ATOM     24  C   UNL     1      -1.352  14.613  24.259  0.00  0.00    +0.000 A 
ATOM     25  C   UNL     1      -1.604  15.317  25.433  0.00  0.00    +0.000 A 
ATOM     26  C   UNL     1      -1.177  16.632  25.542  0.00  0.00    +0.000 A 
ATOM     27  C   UNL     1      -0.497  17.226  24.476  0.00  0.00    +0.000 A 
ATOM     28  C   UNL     1      -0.249  16.519  23.283  0.00  0.00    +0.000 A 
ENDBRANCH  20  23
TORSDOF 1
ENDMDL
MODEL 8
REMARK VINA RESULT:      -7.0      3.123      4.923
REMARK  Name = 
REMARK  2 active torsions:
REMARK  status: ('A' for Active; 'I' for Inactive)
REMARK    1  A    between atoms: C_1  and  C_2
REMARK    2  A    between atoms: C_20  and  C_21
REMARK                            x       y       z     vdW  Elec       q    Type
REMARK                         _______ _______ _______ _____ _____    ______ ____
ROOT
ATOM      1  C   UNL     1      -2.615  10.457  15.727  0.00  0.00    +0.000 C 
ATOM      2  C   UNL     1      -2.179  10.746  17.130  0.00  0.00    +0.000 A 
ATOM      3  C   UNL     1      -1.329   9.905  17.851  0.00  0.00    +0.000 A 
ATOM      4  C   UNL     1      -0.976  10.208  19.179  0.00  0.00    +0.000 A 
ATOM      5  C   UNL     1      -1.498  11.342  19.781  0.00  0.00    +0.000 A 
ATOM      6  N   UNL     1      -1.055  11.805  21.112  0.00  0.00    +0.000 N 
ATOM      7  C   UNL     1       0.352  11.912  21.185  0.00  0.00    +0.000 C 
ATOM      8  O   UNL     1       1.169  11.018  21.298  0.00  0.00    +0.000 OA
ATOM      9  C   UNL     1       0.666  13.323  20.823  0.00  0.00    +0.000 A 
ATOM     10  O   UNL     1       1.853  13.778  20.315  0.00  0.00    +0.000 OA
ATOM     11  C   UNL     1       1.776  14.981  19.642  0.00  0.00    +0.000 A 
ATOM     12  C   UNL     1       2.968  15.547  19.191  0.00  0.00    +0.000 A 
ATOM     13  C   UNL     1       2.929  16.703  18.416  0.00  0.00    +0.000 A 
ATOM     14  C   UNL     1       1.706  17.282  18.057  0.00  0.00    +0.000 A 
ATOM     15  C   UNL     1       0.516  16.745  18.537  0.00  0.00    +0.000 A 
ATOM     16  C   UNL     1       0.562  15.627  19.362  0.00  0.00    +0.000 A 
ATOM     17  C   UNL     1      -0.678  15.134  19.976  0.00  0.00    +0.000 A 
ATOM     18  O   UNL     1      -1.768  15.662  19.805  0.00  0.00    +0.000 OA
ATOM     19  C   UNL     1      -0.508  13.939  20.784  0.00  0.00    +0.000 A 
ATOM     20  C   UNL     1      -1.598  13.159  21.397  0.00  0.00    +0.000 C 
ATOM     21  N   UNL     1      -2.323  12.163  19.074  0.00  0.00    +0.000 NA
ATOM     22  C   UNL     1      -2.624  11.875  17.786  0.00  0.00    +0.000 A 
ENDROOT
BRANCH  20  23
ATOM     23  C   UNL     1      -1.766  13.705  22.828  0.00  0.00    +0.000 A 
ATOM     24  C   UNL     1      -2.952  13.294  23.491  0.00  0.00    +0.000 A 
ATOM     25  C   UNL     1      -3.380  13.870  24.683  0.00  0.00    +0.000 A 
ATOM     26  C   UNL     1      -2.621  14.876  25.264  0.00  0.00    +0.000 A 
ATOM     27  C   UNL     1      -1.437  15.288  24.647  0.00  0.00    +0.000 A 
ATOM     28  C   UNL     1      -1.006  14.713  23.436  0.00  0.00    +0.000 A 
ENDBRANCH  20  23
TORSDOF 1
ENDMDL
MODEL 9
REMARK VINA RESULT:      -7.0      5.162      8.045
REMARK  Name = 
REMARK  2 active torsions:
REMARK  status: ('A' for Active; 'I' for Inactive)
REMARK    1  A    between atoms: C_1  and  C_2
REMARK    2  A    between atoms: C_20  and  C_21
REMARK                            x       y       z     vdW  Elec       q    Type
REMARK                         _______ _______ _______ _____ _____    ______ ____
ROOT
ATOM      1  C   UNL     1       6.206  14.264  24.099  0.00  0.00    +0.000 C 
ATOM      2  C   UNL     1       5.616  14.686  22.789  0.00  0.00    +0.000 A 
ATOM      3  C   UNL     1       6.380  14.875  21.636  0.00  0.00    +0.000 A 
ATOM      4  C   UNL     1       5.779  15.305  20.439  0.00  0.00    +0.000 A 
ATOM      5  C   UNL     1       4.417  15.563  20.414  0.00  0.00    +0.000 A 
ATOM      6  N   UNL     1       3.692  15.866  19.163  0.00  0.00    +0.000 N 
ATOM      7  C   UNL     1       3.945  14.897  18.166  0.00  0.00    +0.000 C 
ATOM      8  O   UNL     1       4.940  14.766  17.479  0.00  0.00    +0.000 OA
ATOM      9  C   UNL     1       2.856  13.888  18.304  0.00  0.00    +0.000 A 
ATOM     10  O   UNL     1       2.917  12.580  17.903  0.00  0.00    +0.000 OA
ATOM     11  C   UNL     1       2.012  11.739  18.521  0.00  0.00    +0.000 A 
ATOM     12  C   UNL     1       1.955  10.417  18.081  0.00  0.00    +0.000 A 
ATOM     13  C   UNL     1       1.136   9.507  18.746  0.00  0.00    +0.000 A 
ATOM     14  C   UNL     1       0.398   9.899  19.869  0.00  0.00    +0.000 A 
ATOM     15  C   UNL     1       0.421  11.226  20.288  0.00  0.00    +0.000 A 
ATOM     16  C   UNL     1       1.191  12.145  19.584  0.00  0.00    +0.000 A 
ATOM     17  C   UNL     1       1.117  13.568  19.939  0.00  0.00    +0.000 A 
ATOM     18  O   UNL     1       0.401  14.001  20.832  0.00  0.00    +0.000 OA
ATOM     19  C   UNL     1       1.997  14.422  19.160  0.00  0.00    +0.000 A 
ATOM     20  C   UNL     1       2.225  15.858  19.399  0.00  0.00    +0.000 C 
ATOM     21  N   UNL     1       3.673  15.372  21.539  0.00  0.00    +0.000 NA
ATOM     22  C   UNL     1       4.262  14.926  22.673  0.00  0.00    +0.000 A 
ENDROOT
BRANCH  20  23
ATOM     23  C   UNL     1       1.232  16.609  18.491  0.00  0.00    +0.000 A 
ATOM     24  C   UNL     1       1.827  17.486  17.547  0.00  0.00    +0.000 A 
ATOM     25  C   UNL     1       1.088  18.410  16.815  0.00  0.00    +0.000 A 
ATOM     26  C   UNL     1      -0.285  18.479  16.995  0.00  0.00    +0.000 A 
ATOM     27  C   UNL     1      -0.905  17.615  17.902  0.00  0.00    +0.000 A 
ATOM     28  C   UNL     1      -0.159  16.684  18.651  0.00  0.00    +0.000 A 
ENDBRANCH  20  23
TORSDOF 1
ENDMDL
