MODEL 1
REMARK VINA RESULT:      -9.6      0.000      0.000
REMARK  Name = 
REMARK  6 active torsions:
REMARK  status: ('A' for Active; 'I' for Inactive)
REMARK    1  A    between atoms: C_1  and  N_2
REMARK    2  A    between atoms: N_7  and  C_8
REMARK    3  A    between atoms: C_8  and  C_9
REMARK    4  A    between atoms: C_13  and  N_14
REMARK    5  A    between atoms: C_19  and  O_20
REMARK    6  A    between atoms: C_22  and  C_23
REMARK                            x       y       z     vdW  Elec       q    Type
REMARK                         _______ _______ _______ _____ _____    ______ ____
ROOT
ATOM      1  C   UNL     1       1.361   9.276  19.162  0.00  0.00    +0.000 A 
ATOM      2  C   UNL     1       0.958   8.663  20.367  0.00  0.00    +0.000 A 
ATOM      3  C   UNL     1       1.532   7.479  20.823  0.00  0.00    +0.000 A 
ATOM      4  C   UNL     1       2.456   6.817  20.029  0.00  0.00    +0.000 A 
ATOM      5  C   UNL     1       2.671   7.262  18.714  0.00  0.00    +0.000 A 
ATOM      6  C   UNL     1       2.214   8.523  18.333  0.00  0.00    +0.000 A 
ENDROOT
BRANCH   5   7
ATOM      7  N   UNL     1       2.770   6.283  17.658  0.00  0.00    +0.000 N 
ATOM      8  C   UNL     1       1.739   5.238  17.883  0.00  0.00    +0.000 C 
ATOM      9  C   UNL     1       2.516   4.143  18.543  0.00  0.00    +0.000 A 
ATOM     10  C   UNL     1       3.855   4.289  18.164  0.00  0.00    +0.000 A 
ATOM     11  C   UNL     1       4.879   3.521  18.683  0.00  0.00    +0.000 A 
ATOM     12  C   UNL     1       4.524   2.606  19.663  0.00  0.00    +0.000 A 
ATOM     13  C   UNL     1       3.196   2.473  20.101  0.00  0.00    +0.000 A 
ATOM     14  C   UNL     1       2.157   3.247  19.545  0.00  0.00    +0.000 A 
ATOM     15  C   UNL     1       4.006   5.614  17.537  0.00  0.00    +0.000 C 
ATOM     16  O   UNL     1       5.068   6.057  17.135  0.00  0.00    +0.000 OA
BRANCH  14  17
ATOM     17  C   UNL     1       0.776   3.169  20.147  0.00  0.00    +0.000 C 
ATOM     18  F   UNL     1      -0.132   2.525  19.365  0.00  0.00    +0.000 F 
ATOM     19  F   UNL     1       0.768   2.508  21.336  0.00  0.00    +0.000 F 
ATOM     20  F   UNL     1       0.249   4.399  20.395  0.00  0.00    +0.000 F 
ENDBRANCH  14  17
BRANCH  12  21
ATOM     21  O   UNL     1       5.469   1.857  20.300  0.00  0.00    +0.000 OA
ATOM     22  H   UNL     1       5.103   0.976  20.483  0.00  0.00    +0.000 HD
ENDBRANCH  12  21
ENDBRANCH   5   7
BRANCH   1  23
ATOM     23  C   UNL     1       0.879  10.734  18.762  0.00  0.00    +0.000 C 
ATOM     24  C   UNL     1       0.723  11.798  19.886  0.00  0.00    +0.000 C 
ATOM     25  O   UNL     1       1.738  12.654  19.312  0.00  0.00    +0.000 OA
ATOM     26  C   UNL     1       1.990  11.702  18.258  0.00  0.00    +0.000 C 
BRANCH  23  33
ATOM     27  C   UNL     1      -2.539  10.340  15.903  0.00  0.00    +0.000 C 
ATOM     28  N   UNL     1      -2.540  10.909  17.223  0.00  0.00    +0.000 N 
ATOM     29  C   UNL     1      -3.626  11.457  17.836  0.00  0.00    +0.000 A 
ATOM     30  N   UNL     1      -3.287  11.893  19.025  0.00  0.00    +0.000 NA
ATOM     31  N   UNL     1      -1.946  11.634  19.190  0.00  0.00    +0.000 NA
ATOM     32  C   UNL     1      -1.491  11.046  18.099  0.00  0.00    +0.000 A 
ATOM     33  N   UNL     1      -0.226  10.664  17.810  0.00  0.00    +0.000 N 
ATOM     34  H   UNL     1      -0.063  10.011  17.052  0.00  0.00    +0.000 HD
ENDBRANCH  23  33
ENDBRANCH   1  23
TORSDOF 5
ENDMDL
MODEL 2
REMARK VINA RESULT:      -9.4      3.395      8.338
REMARK  Name = 
REMARK  6 active torsions:
REMARK  status: ('A' for Active; 'I' for Inactive)
REMARK    1  A    between atoms: C_1  and  N_2
REMARK    2  A    between atoms: N_7  and  C_8
REMARK    3  A    between atoms: C_8  and  C_9
REMARK    4  A    between atoms: C_13  and  N_14
REMARK    5  A    between atoms: C_19  and  O_20
REMARK    6  A    between atoms: C_22  and  C_23
REMARK                            x       y       z     vdW  Elec       q    Type
REMARK                         _______ _______ _______ _____ _____    ______ ____
ROOT
ATOM      1  C   UNL     1       2.534   6.058  18.889  0.00  0.00    +0.000 A 
ATOM      2  C   UNL     1       2.433   6.872  17.741  0.00  0.00    +0.000 A 
ATOM      3  C   UNL     1       2.224   8.247  17.824  0.00  0.00    +0.000 A 
ATOM      4  C   UNL     1       2.005   8.831  19.061  0.00  0.00    +0.000 A 
ATOM      5  C   UNL     1       1.832   8.008  20.186  0.00  0.00    +0.000 A 
ATOM      6  C   UNL     1       2.196   6.663  20.115  0.00  0.00    +0.000 A 
ENDROOT
BRANCH   5   7
ATOM      7  N   UNL     1       0.783   8.326  21.125  0.00  0.00    +0.000 N 
ATOM      8  C   UNL     1      -0.478   8.541  20.370  0.00  0.00    +0.000 C 
ATOM      9  C   UNL     1      -0.551  10.031  20.264  0.00  0.00    +0.000 A 
ATOM     10  C   UNL     1       0.189  10.566  21.325  0.00  0.00    +0.000 A 
ATOM     11  C   UNL     1       0.438  11.916  21.472  0.00  0.00    +0.000 A 
ATOM     12  C   UNL     1      -0.043  12.742  20.467  0.00  0.00    +0.000 A 
ATOM     13  C   UNL     1      -0.744  12.229  19.363  0.00  0.00    +0.000 A 
ATOM     14  C   UNL     1      -1.012  10.851  19.238  0.00  0.00    +0.000 A 
ATOM     15  C   UNL     1       0.980   9.474  21.920  0.00  0.00    +0.000 C 
ATOM     16  O   UNL     1       1.761   9.628  22.843  0.00  0.00    +0.000 OA
BRANCH  14  17
ATOM     17  C   UNL     1      -1.642  10.334  17.969  0.00  0.00    +0.000 C 
ATOM     18  F   UNL     1      -2.747   9.566  18.172  0.00  0.00    +0.000 F 
ATOM     19  F   UNL     1      -2.042  11.339  17.146  0.00  0.00    +0.000 F 
ATOM     20  F   UNL     1      -0.784   9.568  17.241  0.00  0.00    +0.000 F 
ENDBRANCH  14  17
BRANCH  12  21
ATOM     21  O   UNL     1       0.221  14.080  20.472  0.00  0.00    +0.000 OA
ATOM     22  H   UNL     1      -0.620  14.568  20.472  0.00  0.00    +0.000 HD
ENDBRANCH  12  21
ENDBRANCH   5   7
BRANCH   1  23
ATOM     23  C   UNL     1       3.002   4.545  18.804  0.00  0.00    +0.000 C 
ATOM     24  C   UNL     1       2.963   3.682  20.098  0.00  0.00    +0.000 C 
ATOM     25  O   UNL     1       1.997   2.762  19.537  0.00  0.00    +0.000 OA
ATOM     26  C   UNL     1       1.928   3.528  18.318  0.00  0.00    +0.000 C 
BRANCH  23  33
ATOM     27  C   UNL     1       6.713   4.371  16.312  0.00  0.00    +0.000 C 
ATOM     28  N   UNL     1       6.578   4.773  17.686  0.00  0.00    +0.000 N 
ATOM     29  C   UNL     1       7.605   5.167  18.489  0.00  0.00    +0.000 A 
ATOM     30  N   UNL     1       7.145   5.454  19.682  0.00  0.00    +0.000 NA
ATOM     31  N   UNL     1       5.788   5.233  19.663  0.00  0.00    +0.000 NA
ATOM     32  C   UNL     1       5.445   4.813  18.461  0.00  0.00    +0.000 A 
ATOM     33  N   UNL     1       4.225   4.431  18.015  0.00  0.00    +0.000 N 
ATOM     34  H   UNL     1       4.056   4.369  17.017  0.00  0.00    +0.000 HD
ENDBRANCH  23  33
ENDBRANCH   1  23
TORSDOF 5
ENDMDL
MODEL 3
REMARK VINA RESULT:      -9.3      1.774      2.872
REMARK  Name = 
REMARK  6 active torsions:
REMARK  status: ('A' for Active; 'I' for Inactive)
REMARK    1  A    between atoms: C_1  and  N_2
REMARK    2  A    between atoms: N_7  and  C_8
REMARK    3  A    between atoms: C_8  and  C_9
REMARK    4  A    between atoms: C_13  and  N_14
REMARK    5  A    between atoms: C_19  and  O_20
REMARK    6  A    between atoms: C_22  and  C_23
REMARK                            x       y       z     vdW  Elec       q    Type
REMARK                         _______ _______ _______ _____ _____    ______ ____
ROOT
ATOM      1  C   UNL     1       1.021   9.163  19.208  0.00  0.00    +0.000 A 
ATOM      2  C   UNL     1       0.894   8.557  20.475  0.00  0.00    +0.000 A 
ATOM      3  C   UNL     1       1.715   7.506  20.879  0.00  0.00    +0.000 A 
ATOM      4  C   UNL     1       2.618   6.961  19.980  0.00  0.00    +0.000 A 
ATOM      5  C   UNL     1       2.575   7.366  18.635  0.00  0.00    +0.000 A 
ATOM      6  C   UNL     1       1.866   8.516  18.287  0.00  0.00    +0.000 A 
ENDROOT
BRANCH   5   7
ATOM      7  N   UNL     1       2.691   6.362  17.604  0.00  0.00    +0.000 N 
ATOM      8  C   UNL     1       1.685   5.300  17.863  0.00  0.00    +0.000 C 
ATOM      9  C   UNL     1       2.490   4.241  18.547  0.00  0.00    +0.000 A 
ATOM     10  C   UNL     1       3.824   4.407  18.157  0.00  0.00    +0.000 A 
ATOM     11  C   UNL     1       4.867   3.676  18.690  0.00  0.00    +0.000 A 
ATOM     12  C   UNL     1       4.538   2.780  19.695  0.00  0.00    +0.000 A 
ATOM     13  C   UNL     1       3.216   2.628  20.144  0.00  0.00    +0.000 A 
ATOM     14  C   UNL     1       2.157   3.364  19.575  0.00  0.00    +0.000 A 
ATOM     15  C   UNL     1       3.941   5.718  17.494  0.00  0.00    +0.000 C 
ATOM     16  O   UNL     1       4.991   6.175  17.075  0.00  0.00    +0.000 OA
BRANCH  14  17
ATOM     17  C   UNL     1       0.781   3.270  20.186  0.00  0.00    +0.000 C 
ATOM     18  F   UNL     1       0.741   2.576  21.355  0.00  0.00    +0.000 F 
ATOM     19  F   UNL     1       0.258   4.493  20.468  0.00  0.00    +0.000 F 
ATOM     20  F   UNL     1      -0.111   2.659  19.358  0.00  0.00    +0.000 F 
ENDBRANCH  14  17
BRANCH  12  21
ATOM     21  O   UNL     1       5.503   2.070  20.346  0.00  0.00    +0.000 OA
ATOM     22  H   UNL     1       5.715   1.275  19.827  0.00  0.00    +0.000 HD
ENDBRANCH  12  21
ENDBRANCH   5   7
BRANCH   1  23
ATOM     23  C   UNL     1       0.252  10.502  18.839  0.00  0.00    +0.000 C 
ATOM     24  C   UNL     1      -0.957  10.420  17.865  0.00  0.00    +0.000 C 
ATOM     25  O   UNL     1      -1.885  10.900  18.866  0.00  0.00    +0.000 OA
ATOM     26  C   UNL     1      -0.837  10.961  19.854  0.00  0.00    +0.000 C 
BRANCH  23  33
ATOM     27  C   UNL     1       3.012  13.916  17.977  0.00  0.00    +0.000 C 
ATOM     28  N   UNL     1       2.554  13.438  19.253  0.00  0.00    +0.000 N 
ATOM     29  C   UNL     1       2.915  13.961  20.458  0.00  0.00    +0.000 A 
ATOM     30  N   UNL     1       2.332  13.289  21.421  0.00  0.00    +0.000 NA
ATOM     31  N   UNL     1       1.580  12.298  20.834  0.00  0.00    +0.000 NA
ATOM     32  C   UNL     1       1.720  12.381  19.525  0.00  0.00    +0.000 A 
ATOM     33  N   UNL     1       1.201  11.578  18.568  0.00  0.00    +0.000 N 
ATOM     34  H   UNL     1       1.184  11.896  17.605  0.00  0.00    +0.000 HD
ENDBRANCH  23  33
ENDBRANCH   1  23
TORSDOF 5
ENDMDL
MODEL 4
REMARK VINA RESULT:      -9.1      3.231      8.373
REMARK  Name = 
REMARK  6 active torsions:
REMARK  status: ('A' for Active; 'I' for Inactive)
REMARK    1  A    between atoms: C_1  and  N_2
REMARK    2  A    between atoms: N_7  and  C_8
REMARK    3  A    between atoms: C_8  and  C_9
REMARK    4  A    between atoms: C_13  and  N_14
REMARK    5  A    between atoms: C_19  and  O_20
REMARK    6  A    between atoms: C_22  and  C_23
REMARK                            x       y       z     vdW  Elec       q    Type
REMARK                         _______ _______ _______ _____ _____    ______ ____
ROOT
ATOM      1  C   UNL     1       2.338   6.703  18.860  0.00  0.00    +0.000 A 
ATOM      2  C   UNL     1       2.358   7.404  17.636  0.00  0.00    +0.000 A 
ATOM      3  C   UNL     1       2.198   8.786  17.571  0.00  0.00    +0.000 A 
ATOM      4  C   UNL     1       1.906   9.495  18.727  0.00  0.00    +0.000 A 
ATOM      5  C   UNL     1       1.615   8.790  19.907  0.00  0.00    +0.000 A 
ATOM      6  C   UNL     1       1.931   7.434  19.992  0.00  0.00    +0.000 A 
ENDROOT
BRANCH   5   7
ATOM      7  N   UNL     1       0.510   9.231  20.724  0.00  0.00    +0.000 N 
ATOM      8  C   UNL     1      -0.742   9.102  19.935  0.00  0.00    +0.000 C 
ATOM      9  C   UNL     1      -0.964  10.495  19.436  0.00  0.00    +0.000 A 
ATOM     10  C   UNL     1      -0.317  11.367  20.318  0.00  0.00    +0.000 A 
ATOM     11  C   UNL     1      -0.211  12.726  20.101  0.00  0.00    +0.000 A 
ATOM     12  C   UNL     1      -0.743  13.201  18.911  0.00  0.00    +0.000 A 
ATOM     13  C   UNL     1      -1.353  12.342  17.982  0.00  0.00    +0.000 A 
ATOM     14  C   UNL     1      -1.474  10.959  18.227  0.00  0.00    +0.000 A 
ATOM     15  C   UNL     1       0.563  10.563  21.185  0.00  0.00    +0.000 C 
ATOM     16  O   UNL     1       1.295  11.038  22.036  0.00  0.00    +0.000 OA
BRANCH  14  17
ATOM     17  C   UNL     1      -2.008  10.061  17.140  0.00  0.00    +0.000 C 
ATOM     18  F   UNL     1      -1.122   9.120  16.715  0.00  0.00    +0.000 F 
ATOM     19  F   UNL     1      -3.111   9.372  17.535  0.00  0.00    +0.000 F 
ATOM     20  F   UNL     1      -2.374  10.757  16.028  0.00  0.00    +0.000 F 
ENDBRANCH  14  17
BRANCH  12  21
ATOM     21  O   UNL     1      -0.618  14.513  18.560  0.00  0.00    +0.000 OA
ATOM     22  H   UNL     1      -0.574  14.578  17.591  0.00  0.00    +0.000 HD
ENDBRANCH  12  21
ENDBRANCH   5   7
BRANCH   1  23
ATOM     23  C   UNL     1       2.752   5.174  18.956  0.00  0.00    +0.000 C 
ATOM     24  C   UNL     1       2.800   4.504  20.359  0.00  0.00    +0.000 C 
ATOM     25  O   UNL     1       1.762   3.556  20.018  0.00  0.00    +0.000 OA
ATOM     26  C   UNL     1       1.610   4.145  18.711  0.00  0.00    +0.000 C 
BRANCH  23  33
ATOM     27  C   UNL     1       6.252   4.513  16.250  0.00  0.00    +0.000 C 
ATOM     28  N   UNL     1       6.255   4.870  17.642  0.00  0.00    +0.000 N 
ATOM     29  C   UNL     1       7.373   5.057  18.398  0.00  0.00    +0.000 A 
ATOM     30  N   UNL     1       7.028   5.361  19.625  0.00  0.00    +0.000 NA
ATOM     31  N   UNL     1       5.653   5.363  19.677  0.00  0.00    +0.000 NA
ATOM     32  C   UNL     1       5.185   5.059  18.482  0.00  0.00    +0.000 A 
ATOM     33  N   UNL     1       3.898   4.900  18.094  0.00  0.00    +0.000 N 
ATOM     34  H   UNL     1       3.670   4.910  17.106  0.00  0.00    +0.000 HD
ENDBRANCH  23  33
ENDBRANCH   1  23
TORSDOF 5
ENDMDL
MODEL 5
REMARK VINA RESULT:      -9.1      0.793      1.413
REMARK  Name = 
REMARK  6 active torsions:
REMARK  status: ('A' for Active; 'I' for Inactive)
REMARK    1  A    between atoms: C_1  and  N_2
REMARK    2  A    between atoms: N_7  and  C_8
REMARK    3  A    between atoms: C_8  and  C_9
REMARK    4  A    between atoms: C_13  and  N_14
REMARK    5  A    between atoms: C_19  and  O_20
REMARK    6  A    between atoms: C_22  and  C_23
REMARK                            x       y       z     vdW  Elec       q    Type
REMARK                         _______ _______ _______ _____ _____    ______ ____
ROOT
ATOM      1  C   UNL     1       1.020   9.707  19.848  0.00  0.00    +0.000 A 
ATOM      2  C   UNL     1       0.491   8.936  20.905  0.00  0.00    +0.000 A 
ATOM      3  C   UNL     1       0.974   7.665  21.209  0.00  0.00    +0.000 A 
ATOM      4  C   UNL     1       1.933   7.086  20.393  0.00  0.00    +0.000 A 
ATOM      5  C   UNL     1       2.277   7.717  19.186  0.00  0.00    +0.000 A 
ATOM      6  C   UNL     1       1.908   9.046  18.977  0.00  0.00    +0.000 A 
ENDROOT
BRANCH   5   7
ATOM      7  N   UNL     1       2.424   6.911  17.997  0.00  0.00    +0.000 N 
ATOM      8  C   UNL     1       1.502   5.752  18.096  0.00  0.00    +0.000 C 
ATOM      9  C   UNL     1       2.400   4.654  18.572  0.00  0.00    +0.000 A 
ATOM     10  C   UNL     1       3.704   4.978  18.184  0.00  0.00    +0.000 A 
ATOM     11  C   UNL     1       4.812   4.246  18.561  0.00  0.00    +0.000 A 
ATOM     12  C   UNL     1       4.580   3.172  19.407  0.00  0.00    +0.000 A 
ATOM     13  C   UNL     1       3.287   2.852  19.855  0.00  0.00    +0.000 A 
ATOM     14  C   UNL     1       2.162   3.595  19.443  0.00  0.00    +0.000 A 
ATOM     15  C   UNL     1       3.710   6.387  17.750  0.00  0.00    +0.000 C 
ATOM     16  O   UNL     1       4.711   6.982  17.390  0.00  0.00    +0.000 OA
BRANCH  14  17
ATOM     17  C   UNL     1       0.818   3.301  20.062  0.00  0.00    +0.000 C 
ATOM     18  F   UNL     1       0.882   2.543  21.189  0.00  0.00    +0.000 F 
ATOM     19  F   UNL     1       0.156   4.434  20.420  0.00  0.00    +0.000 F 
ATOM     20  F   UNL     1      -0.008   2.635  19.209  0.00  0.00    +0.000 F 
ENDBRANCH  14  17
BRANCH  12  21
ATOM     21  O   UNL     1       5.613   2.435  19.906  0.00  0.00    +0.000 OA
ATOM     22  H   UNL     1       5.914   1.811  19.223  0.00  0.00    +0.000 HD
ENDBRANCH  12  21
ENDBRANCH   5   7
BRANCH   1  23
ATOM     23  C   UNL     1       0.636  11.234  19.651  0.00  0.00    +0.000 C 
ATOM     24  C   UNL     1       1.320  12.294  20.559  0.00  0.00    +0.000 C 
ATOM     25  O   UNL     1       1.948  12.954  19.435  0.00  0.00    +0.000 OA
ATOM     26  C   UNL     1       1.399  11.985  18.520  0.00  0.00    +0.000 C 
BRANCH  23  33
ATOM     27  C   UNL     1      -3.758  11.852  19.085  0.00  0.00    +0.000 C 
ATOM     28  N   UNL     1      -2.854  11.080  18.278  0.00  0.00    +0.000 N 
ATOM     29  C   UNL     1      -3.208  10.368  17.171  0.00  0.00    +0.000 A 
ATOM     30  N   UNL     1      -2.152   9.770  16.676  0.00  0.00    +0.000 NA
ATOM     31  N   UNL     1      -1.083  10.089  17.483  0.00  0.00    +0.000 NA
ATOM     32  C   UNL     1      -1.507  10.873  18.455  0.00  0.00    +0.000 A 
ATOM     33  N   UNL     1      -0.808  11.381  19.496  0.00  0.00    +0.000 N 
ATOM     34  H   UNL     1      -1.192  12.158  20.023  0.00  0.00    +0.000 HD
ENDBRANCH  23  33
ENDBRANCH   1  23
TORSDOF 5
ENDMDL
MODEL 6
REMARK VINA RESULT:      -9.1      3.249      8.061
REMARK  Name = 
REMARK  6 active torsions:
REMARK  status: ('A' for Active; 'I' for Inactive)
REMARK    1  A    between atoms: C_1  and  N_2
REMARK    2  A    between atoms: N_7  and  C_8
REMARK    3  A    between atoms: C_8  and  C_9
REMARK    4  A    between atoms: C_13  and  N_14
REMARK    5  A    between atoms: C_19  and  O_20
REMARK    6  A    between atoms: C_22  and  C_23
REMARK                            x       y       z     vdW  Elec       q    Type
REMARK                         _______ _______ _______ _____ _____    ______ ____
ROOT
ATOM      1  C   UNL     1       3.058   4.359  19.327  0.00  0.00    +0.000 A 
ATOM      2  C   UNL     1       2.465   4.145  20.589  0.00  0.00    +0.000 A 
ATOM      3  C   UNL     1       1.559   5.047  21.144  0.00  0.00    +0.000 A 
ATOM      4  C   UNL     1       1.303   6.244  20.494  0.00  0.00    +0.000 A 
ATOM      5  C   UNL     1       2.081   6.599  19.380  0.00  0.00    +0.000 A 
ATOM      6  C   UNL     1       2.863   5.629  18.752  0.00  0.00    +0.000 A 
ENDROOT
BRANCH   5   7
ATOM      7  N   UNL     1       2.554   7.958  19.268  0.00  0.00    +0.000 N 
ATOM      8  C   UNL     1       2.177   8.693  20.501  0.00  0.00    +0.000 C 
ATOM      9  C   UNL     1       0.939   9.423  20.086  0.00  0.00    +0.000 A 
ATOM     10  C   UNL     1       0.987   9.579  18.697  0.00  0.00    +0.000 A 
ATOM     11  C   UNL     1      -0.052  10.105  17.955  0.00  0.00    +0.000 A 
ATOM     12  C   UNL     1      -1.202  10.435  18.657  0.00  0.00    +0.000 A 
ATOM     13  C   UNL     1      -1.299  10.242  20.046  0.00  0.00    +0.000 A 
ATOM     14  C   UNL     1      -0.221   9.725  20.793  0.00  0.00    +0.000 A 
ATOM     15  C   UNL     1       2.058   8.708  18.181  0.00  0.00    +0.000 C 
ATOM     16  O   UNL     1       2.324   8.587  16.997  0.00  0.00    +0.000 OA
BRANCH  14  17
ATOM     17  C   UNL     1      -0.423   9.405  22.253  0.00  0.00    +0.000 C 
ATOM     18  F   UNL     1       0.719   9.446  22.992  0.00  0.00    +0.000 F 
ATOM     19  F   UNL     1      -1.281  10.270  22.857  0.00  0.00    +0.000 F 
ATOM     20  F   UNL     1      -0.945   8.161  22.442  0.00  0.00    +0.000 F 
ENDBRANCH  14  17
BRANCH  12  21
ATOM     21  O   UNL     1      -2.315  10.883  18.011  0.00  0.00    +0.000 OA
ATOM     22  H   UNL     1      -3.055  10.914  18.640  0.00  0.00    +0.000 HD
ENDBRANCH  12  21
ENDBRANCH   5   7
BRANCH   1  23
ATOM     23  C   UNL     1       3.901   3.231  18.596  0.00  0.00    +0.000 C 
ATOM     24  C   UNL     1       4.249   1.936  19.384  0.00  0.00    +0.000 C 
ATOM     25  O   UNL     1       3.504   1.097  18.470  0.00  0.00    +0.000 OA
ATOM     26  C   UNL     1       3.087   2.245  17.706  0.00  0.00    +0.000 C 
BRANCH  23  33
ATOM     27  C   UNL     1       7.179   5.198  16.273  0.00  0.00    +0.000 C 
ATOM     28  N   UNL     1       6.995   5.157  17.698  0.00  0.00    +0.000 N 
ATOM     29  C   UNL     1       7.835   5.720  18.610  0.00  0.00    +0.000 A 
ATOM     30  N   UNL     1       7.387   5.490  19.820  0.00  0.00    +0.000 NA
ATOM     31  N   UNL     1       6.234   4.750  19.699  0.00  0.00    +0.000 NA
ATOM     32  C   UNL     1       6.000   4.541  18.417  0.00  0.00    +0.000 A 
ATOM     33  N   UNL     1       5.006   3.822  17.847  0.00  0.00    +0.000 N 
ATOM     34  H   UNL     1       4.802   3.946  16.861  0.00  0.00    +0.000 HD
ENDBRANCH  23  33
ENDBRANCH   1  23
TORSDOF 5
ENDMDL
MODEL 7
REMARK VINA RESULT:      -8.8      3.309      4.406
REMARK  Name = 
REMARK  6 active torsions:
REMARK  status: ('A' for Active; 'I' for Inactive)
REMARK    1  A    between atoms: C_1  and  N_2
REMARK    2  A    between atoms: N_7  and  C_8
REMARK    3  A    between atoms: C_8  and  C_9
REMARK    4  A    between atoms: C_13  and  N_14
REMARK    5  A    between atoms: C_19  and  O_20
REMARK    6  A    between atoms: C_22  and  C_23
REMARK                            x       y       z     vdW  Elec       q    Type
REMARK                         _______ _______ _______ _____ _____    ______ ____
ROOT
ATOM      1  C   UNL     1       1.760   8.419  19.590  0.00  0.00    +0.000 A 
ATOM      2  C   UNL     1       2.370   9.015  18.465  0.00  0.00    +0.000 A 
ATOM      3  C   UNL     1       2.920   8.259  17.433  0.00  0.00    +0.000 A 
ATOM      4  C   UNL     1       2.969   6.878  17.549  0.00  0.00    +0.000 A 
ATOM      5  C   UNL     1       2.617   6.281  18.771  0.00  0.00    +0.000 A 
ATOM      6  C   UNL     1       1.928   7.028  19.727  0.00  0.00    +0.000 A 
ENDROOT
BRANCH   5   7
ATOM      7  N   UNL     1       3.439   5.210  19.283  0.00  0.00    +0.000 N 
ATOM      8  C   UNL     1       4.835   5.701  19.402  0.00  0.00    +0.000 C 
ATOM      9  C   UNL     1       5.478   5.178  18.156  0.00  0.00    +0.000 A 
ATOM     10  C   UNL     1       4.749   4.057  17.745  0.00  0.00    +0.000 A 
ATOM     11  C   UNL     1       4.988   3.389  16.560  0.00  0.00    +0.000 A 
ATOM     12  C   UNL     1       5.975   3.921  15.744  0.00  0.00    +0.000 A 
ATOM     13  C   UNL     1       6.689   5.075  16.107  0.00  0.00    +0.000 A 
ATOM     14  C   UNL     1       6.450   5.733  17.331  0.00  0.00    +0.000 A 
ATOM     15  C   UNL     1       3.488   4.032  18.508  0.00  0.00    +0.000 C 
ATOM     16  O   UNL     1       2.615   3.197  18.349  0.00  0.00    +0.000 OA
BRANCH  14  17
ATOM     17  C   UNL     1       7.141   7.045  17.609  0.00  0.00    +0.000 C 
ATOM     18  F   UNL     1       6.292   8.101  17.734  0.00  0.00    +0.000 F 
ATOM     19  F   UNL     1       7.859   7.015  18.763  0.00  0.00    +0.000 F 
ATOM     20  F   UNL     1       8.019   7.386  16.626  0.00  0.00    +0.000 F 
ENDBRANCH  14  17
BRANCH  12  21
ATOM     21  O   UNL     1       6.233   3.388  14.516  0.00  0.00    +0.000 OA
ATOM     22  H   UNL     1       5.953   4.020  13.832  0.00  0.00    +0.000 HD
ENDBRANCH  12  21
ENDBRANCH   5   7
BRANCH   1  23
ATOM     23  C   UNL     1       0.931   9.269  20.642  0.00  0.00    +0.000 C 
ATOM     24  C   UNL     1      -0.245   8.580  21.392  0.00  0.00    +0.000 C 
ATOM     25  O   UNL     1       0.384   8.756  22.683  0.00  0.00    +0.000 OA
ATOM     26  C   UNL     1       1.541   9.361  22.072  0.00  0.00    +0.000 C 
BRANCH  23  33
ATOM     27  C   UNL     1       0.166  13.306  18.873  0.00  0.00    +0.000 C 
ATOM     28  N   UNL     1      -0.581  12.092  18.685  0.00  0.00    +0.000 N 
ATOM     29  C   UNL     1      -1.700  11.975  17.917  0.00  0.00    +0.000 A 
ATOM     30  N   UNL     1      -2.142  10.742  17.968  0.00  0.00    +0.000 NA
ATOM     31  N   UNL     1      -1.299  10.038  18.797  0.00  0.00    +0.000 NA
ATOM     32  C   UNL     1      -0.361  10.854  19.237  0.00  0.00    +0.000 A 
ATOM     33  N   UNL     1       0.640  10.597  20.111  0.00  0.00    +0.000 N 
ATOM     34  H   UNL     1       1.427  11.236  20.170  0.00  0.00    +0.000 HD
ENDBRANCH  23  33
ENDBRANCH   1  23
TORSDOF 5
ENDMDL
MODEL 8
REMARK VINA RESULT:      -8.8      3.237      8.538
REMARK  Name = 
REMARK  6 active torsions:
REMARK  status: ('A' for Active; 'I' for Inactive)
REMARK    1  A    between atoms: C_1  and  N_2
REMARK    2  A    between atoms: N_7  and  C_8
REMARK    3  A    between atoms: C_8  and  C_9
REMARK    4  A    between atoms: C_13  and  N_14
REMARK    5  A    between atoms: C_19  and  O_20
REMARK    6  A    between atoms: C_22  and  C_23
REMARK                            x       y       z     vdW  Elec       q    Type
REMARK                         _______ _______ _______ _____ _____    ______ ____
ROOT
ATOM      1  C   UNL     1       2.530   6.784  19.212  0.00  0.00    +0.000 A 
ATOM      2  C   UNL     1       2.442   7.304  17.903  0.00  0.00    +0.000 A 
ATOM      3  C   UNL     1       2.052   8.617  17.652  0.00  0.00    +0.000 A 
ATOM      4  C   UNL     1       1.635   9.418  18.704  0.00  0.00    +0.000 A 
ATOM      5  C   UNL     1       1.457   8.843  19.974  0.00  0.00    +0.000 A 
ATOM      6  C   UNL     1       1.996   7.584  20.239  0.00  0.00    +0.000 A 
ENDROOT
BRANCH   5   7
ATOM      7  N   UNL     1       0.285   9.200  20.738  0.00  0.00    +0.000 N 
ATOM      8  C   UNL     1      -0.907   9.079  19.862  0.00  0.00    +0.000 C 
ATOM      9  C   UNL     1      -1.144  10.492  19.429  0.00  0.00    +0.000 A 
ATOM     10  C   UNL     1      -0.587  11.329  20.402  0.00  0.00    +0.000 A 
ATOM     11  C   UNL     1      -0.516  12.702  20.271  0.00  0.00    +0.000 A 
ATOM     12  C   UNL     1      -0.985  13.230  19.077  0.00  0.00    +0.000 A 
ATOM     13  C   UNL     1      -1.503  12.410  18.061  0.00  0.00    +0.000 A 
ATOM     14  C   UNL     1      -1.591  11.011  18.218  0.00  0.00    +0.000 A 
ATOM     15  C   UNL     1       0.262  10.503  21.278  0.00  0.00    +0.000 C 
ATOM     16  O   UNL     1       0.920  10.949  22.202  0.00  0.00    +0.000 OA
BRANCH  14  17
ATOM     17  C   UNL     1      -2.021  10.163  17.048  0.00  0.00    +0.000 C 
ATOM     18  F   UNL     1      -2.296  10.874  15.921  0.00  0.00    +0.000 F 
ATOM     19  F   UNL     1      -1.069   9.261  16.687  0.00  0.00    +0.000 F 
ATOM     20  F   UNL     1      -3.143   9.441  17.317  0.00  0.00    +0.000 F 
ENDBRANCH  14  17
BRANCH  12  21
ATOM     21  O   UNL     1      -0.884  14.564  18.812  0.00  0.00    +0.000 OA
ATOM     22  H   UNL     1      -0.756  15.043  19.647  0.00  0.00    +0.000 HD
ENDBRANCH  12  21
ENDBRANCH   5   7
BRANCH   1  23
ATOM     23  C   UNL     1       3.195   5.374  19.510  0.00  0.00    +0.000 C 
ATOM     24  C   UNL     1       2.608   4.505  20.659  0.00  0.00    +0.000 C 
ATOM     25  O   UNL     1       2.237   3.438  19.754  0.00  0.00    +0.000 OA
ATOM     26  C   UNL     1       2.709   4.192  18.620  0.00  0.00    +0.000 C 
BRANCH  23  33
ATOM     27  C   UNL     1       7.666   5.531  19.533  0.00  0.00    +0.000 C 
ATOM     28  N   UNL     1       6.793   5.098  18.476  0.00  0.00    +0.000 N 
ATOM     29  C   UNL     1       7.204   4.663  17.252  0.00  0.00    +0.000 A 
ATOM     30  N   UNL     1       6.160   4.357  16.521  0.00  0.00    +0.000 NA
ATOM     31  N   UNL     1       5.039   4.607  17.279  0.00  0.00    +0.000 NA
ATOM     32  C   UNL     1       5.420   5.063  18.457  0.00  0.00    +0.000 A 
ATOM     33  N   UNL     1       4.651   5.481  19.489  0.00  0.00    +0.000 N 
ATOM     34  H   UNL     1       5.061   5.571  20.412  0.00  0.00    +0.000 HD
ENDBRANCH  23  33
ENDBRANCH   1  23
TORSDOF 5
ENDMDL
MODEL 9
REMARK VINA RESULT:      -8.7      1.353      1.901
REMARK  Name = 
REMARK  6 active torsions:
REMARK  status: ('A' for Active; 'I' for Inactive)
REMARK    1  A    between atoms: C_1  and  N_2
REMARK    2  A    between atoms: N_7  and  C_8
REMARK    3  A    between atoms: C_8  and  C_9
REMARK    4  A    between atoms: C_13  and  N_14
REMARK    5  A    between atoms: C_19  and  O_20
REMARK    6  A    between atoms: C_22  and  C_23
REMARK                            x       y       z     vdW  Elec       q    Type
REMARK                         _______ _______ _______ _____ _____    ______ ____
ROOT
ATOM      1  C   UNL     1       0.952   9.785  19.915  0.00  0.00    +0.000 A 
ATOM      2  C   UNL     1       0.498   9.030  21.018  0.00  0.00    +0.000 A 
ATOM      3  C   UNL     1       0.988   7.756  21.295  0.00  0.00    +0.000 A 
ATOM      4  C   UNL     1       1.873   7.158  20.412  0.00  0.00    +0.000 A 
ATOM      5  C   UNL     1       2.130   7.774  19.176  0.00  0.00    +0.000 A 
ATOM      6  C   UNL     1       1.761   9.106  18.984  0.00  0.00    +0.000 A 
ENDROOT
BRANCH   5   7
ATOM      7  N   UNL     1       2.173   6.956  17.988  0.00  0.00    +0.000 N 
ATOM      8  C   UNL     1       1.880   5.551  18.370  0.00  0.00    +0.000 C 
ATOM      9  C   UNL     1       3.244   4.941  18.460  0.00  0.00    +0.000 A 
ATOM     10  C   UNL     1       4.097   5.694  17.646  0.00  0.00    +0.000 A 
ATOM     11  C   UNL     1       5.460   5.488  17.580  0.00  0.00    +0.000 A 
ATOM     12  C   UNL     1       5.975   4.511  18.419  0.00  0.00    +0.000 A 
ATOM     13  C   UNL     1       5.150   3.774  19.286  0.00  0.00    +0.000 A 
ATOM     14  C   UNL     1       3.756   3.979  19.325  0.00  0.00    +0.000 A 
ATOM     15  C   UNL     1       3.396   6.938  17.284  0.00  0.00    +0.000 C 
ATOM     16  O   UNL     1       3.892   7.825  16.611  0.00  0.00    +0.000 OA
BRANCH  14  17
ATOM     17  C   UNL     1       2.935   3.266  20.370  0.00  0.00    +0.000 C 
ATOM     18  F   UNL     1       1.844   2.623  19.874  0.00  0.00    +0.000 F 
ATOM     19  F   UNL     1       3.651   2.316  21.029  0.00  0.00    +0.000 F 
ATOM     20  F   UNL     1       2.465   4.114  21.326  0.00  0.00    +0.000 F 
ENDBRANCH  14  17
BRANCH  12  21
ATOM     21  O   UNL     1       7.318   4.286  18.494  0.00  0.00    +0.000 OA
ATOM     22  H   UNL     1       7.786   5.130  18.385  0.00  0.00    +0.000 HD
ENDBRANCH  12  21
ENDBRANCH   5   7
BRANCH   1  23
ATOM     23  C   UNL     1       0.572  11.315  19.734  0.00  0.00    +0.000 C 
ATOM     24  C   UNL     1       1.243  12.362  20.666  0.00  0.00    +0.000 C 
ATOM     25  O   UNL     1       1.887  13.037  19.560  0.00  0.00    +0.000 OA
ATOM     26  C   UNL     1       1.351  12.081  18.624  0.00  0.00    +0.000 C 
BRANCH  23  33
ATOM     27  C   UNL     1      -3.814  11.942  19.111  0.00  0.00    +0.000 C 
ATOM     28  N   UNL     1      -2.903  11.159  18.322  0.00  0.00    +0.000 N 
ATOM     29  C   UNL     1      -3.247  10.437  17.219  0.00  0.00    +0.000 A 
ATOM     30  N   UNL     1      -2.187   9.830  16.743  0.00  0.00    +0.000 NA
ATOM     31  N   UNL     1      -1.127  10.154  17.558  0.00  0.00    +0.000 NA
ATOM     32  C   UNL     1      -1.559  10.950  18.517  0.00  0.00    +0.000 A 
ATOM     33  N   UNL     1      -0.870  11.466  19.561  0.00  0.00    +0.000 N 
ATOM     34  H   UNL     1      -1.257  12.249  20.076  0.00  0.00    +0.000 HD
ENDBRANCH  23  33
ENDBRANCH   1  23
TORSDOF 5
ENDMDL
