MODEL 1
REMARK VINA RESULT:      -8.0      0.000      0.000
REMARK  Name = 
REMARK  3 active torsions:
REMARK  status: ('A' for Active; 'I' for Inactive)
REMARK    1  A    between atoms: C_2  and  C_3
REMARK    2  A    between atoms: C_3  and  N_4
REMARK    3  A    between atoms: N_11  and  C_12
REMARK                            x       y       z     vdW  Elec       q    Type
REMARK                         _______ _______ _______ _____ _____    ______ ____
ROOT
ATOM      1  N   UNL     1       1.140   9.773  19.140  0.00  0.00    +0.000 N 
ATOM      2  C   UNL     1       1.831   9.628  17.944  0.00  0.00    +0.000 A 
ATOM      3  N   UNL     1       2.554   8.604  17.598  0.00  0.00    +0.000 NA
ATOM      4  C   UNL     1       2.569   7.606  18.523  0.00  0.00    +0.000 A 
ATOM      5  C   UNL     1       1.912   7.625  19.731  0.00  0.00    +0.000 A 
ATOM      6  C   UNL     1       2.172   6.399  20.332  0.00  0.00    +0.000 A 
ATOM      7  N   UNL     1       2.941   5.620  19.571  0.00  0.00    +0.000 NA
ATOM      8  N   UNL     1       3.198   6.362  18.442  0.00  0.00    +0.000 N 
ATOM      9  C   UNL     1       1.156   8.777  20.117  0.00  0.00    +0.000 A 
ATOM     10  O   UNL     1       0.616   8.885  21.215  0.00  0.00    +0.000 OA
ENDROOT
BRANCH   8  11
ATOM     11  C   UNL     1       4.010   5.807  17.404  0.00  0.00    +0.000 A 
ATOM     12  C   UNL     1       4.025   4.414  17.216  0.00  0.00    +0.000 A 
ATOM     13  C   UNL     1       4.796   3.839  16.203  0.00  0.00    +0.000 A 
ATOM     14  C   UNL     1       5.568   4.646  15.372  0.00  0.00    +0.000 A 
ATOM     15  C   UNL     1       5.569   6.027  15.555  0.00  0.00    +0.000 A 
ATOM     16  C   UNL     1       4.794   6.609  16.565  0.00  0.00    +0.000 A 
ENDBRANCH   8  11
BRANCH   1  17
ATOM     17  C   UNL     1       0.430  11.009  19.429  0.00  0.00    +0.000 C 
BRANCH  17  19
ATOM     18  O   UNL     1       1.005  11.776  21.654  0.00  0.00    +0.000 OA
ATOM     19  C   UNL     1       1.164  11.901  20.441  0.00  0.00    +0.000 C 
ATOM     20  N   UNL     1       1.966  12.905  19.893  0.00  0.00    +0.000 N 
ATOM     21  C   UNL     1       2.210  13.043  18.427  0.00  0.00    +0.000 C 
ATOM     22  C   UNL     1       3.198  14.168  18.042  0.00  0.00    +0.000 C 
ATOM     23  C   UNL     1       2.690  15.378  18.750  0.00  0.00    +0.000 A 
ATOM     24  S   UNL     1       2.331  16.860  18.026  0.00  0.00    +0.000 S 
ATOM     25  C   UNL     1       1.491  17.376  19.433  0.00  0.00    +0.000 A 
ATOM     26  C   UNL     1       1.561  16.449  20.456  0.00  0.00    +0.000 A 
ATOM     27  C   UNL     1       2.267  15.279  20.061  0.00  0.00    +0.000 A 
ATOM     28  C   UNL     1       2.447  13.978  20.789  0.00  0.00    +0.000 C 
ENDBRANCH  17  19
ENDBRANCH   1  17
TORSDOF 3
ENDMDL
MODEL 2
REMARK VINA RESULT:      -7.9      3.374      4.619
REMARK  Name = 
REMARK  3 active torsions:
REMARK  status: ('A' for Active; 'I' for Inactive)
REMARK    1  A    between atoms: C_2  and  C_3
REMARK    2  A    between atoms: C_3  and  N_4
REMARK    3  A    between atoms: N_11  and  C_12
REMARK                            x       y       z     vdW  Elec       q    Type
REMARK                         _______ _______ _______ _____ _____    ______ ____
ROOT
ATOM      1  N   UNL     1       1.322  10.001  19.710  0.00  0.00    +0.000 N 
ATOM      2  C   UNL     1       1.067   9.050  20.690  0.00  0.00    +0.000 A 
ATOM      3  N   UNL     1       1.362   7.786  20.623  0.00  0.00    +0.000 NA
ATOM      4  C   UNL     1       2.005   7.433  19.477  0.00  0.00    +0.000 A 
ATOM      5  C   UNL     1       2.329   8.284  18.446  0.00  0.00    +0.000 A 
ATOM      6  C   UNL     1       3.003   7.515  17.506  0.00  0.00    +0.000 A 
ATOM      7  N   UNL     1       3.123   6.244  17.890  0.00  0.00    +0.000 NA
ATOM      8  N   UNL     1       2.503   6.179  19.115  0.00  0.00    +0.000 N 
ATOM      9  C   UNL     1       1.958   9.665  18.515  0.00  0.00    +0.000 A 
ATOM     10  O   UNL     1       2.149  10.455  17.594  0.00  0.00    +0.000 OA
ENDROOT
BRANCH   8  11
ATOM     11  C   UNL     1       2.453   4.933  19.815  0.00  0.00    +0.000 A 
ATOM     12  C   UNL     1       3.558   4.066  19.751  0.00  0.00    +0.000 A 
ATOM     13  C   UNL     1       3.549   2.848  20.433  0.00  0.00    +0.000 A 
ATOM     14  C   UNL     1       2.434   2.475  21.178  0.00  0.00    +0.000 A 
ATOM     15  C   UNL     1       1.329   3.320  21.241  0.00  0.00    +0.000 A 
ATOM     16  C   UNL     1       1.335   4.545  20.564  0.00  0.00    +0.000 A 
ENDBRANCH   8  11
BRANCH   1  17
ATOM     17  C   UNL     1       0.868  11.372  19.886  0.00  0.00    +0.000 C 
BRANCH  17  19
ATOM     18  O   UNL     1      -0.997  11.571  18.353  0.00  0.00    +0.000 OA
ATOM     19  C   UNL     1      -0.611  11.565  19.521  0.00  0.00    +0.000 C 
ATOM     20  N   UNL     1      -1.474  11.804  20.593  0.00  0.00    +0.000 N 
ATOM     21  C   UNL     1      -1.035  11.754  22.018  0.00  0.00    +0.000 C 
ATOM     22  C   UNL     1      -2.168  11.964  23.048  0.00  0.00    +0.000 C 
ATOM     23  C   UNL     1      -2.857  13.209  22.607  0.00  0.00    +0.000 A 
ATOM     24  S   UNL     1      -3.137  14.568  23.568  0.00  0.00    +0.000 S 
ATOM     25  C   UNL     1      -3.529  15.503  22.181  0.00  0.00    +0.000 A 
ATOM     26  C   UNL     1      -3.516  14.753  21.021  0.00  0.00    +0.000 A 
ATOM     27  C   UNL     1      -3.128  13.406  21.267  0.00  0.00    +0.000 A 
ATOM     28  C   UNL     1      -2.835  12.301  20.294  0.00  0.00    +0.000 C 
ENDBRANCH  17  19
ENDBRANCH   1  17
TORSDOF 3
ENDMDL
MODEL 3
REMARK VINA RESULT:      -7.9      1.731      2.862
REMARK  Name = 
REMARK  3 active torsions:
REMARK  status: ('A' for Active; 'I' for Inactive)
REMARK    1  A    between atoms: C_2  and  C_3
REMARK    2  A    between atoms: C_3  and  N_4
REMARK    3  A    between atoms: N_11  and  C_12
REMARK                            x       y       z     vdW  Elec       q    Type
REMARK                         _______ _______ _______ _____ _____    ______ ____
ROOT
ATOM      1  N   UNL     1       1.240   9.740  19.337  0.00  0.00    +0.000 N 
ATOM      2  C   UNL     1       0.985   8.820  20.345  0.00  0.00    +0.000 A 
ATOM      3  N   UNL     1       1.413   7.594  20.388  0.00  0.00    +0.000 NA
ATOM      4  C   UNL     1       2.204   7.252  19.334  0.00  0.00    +0.000 A 
ATOM      5  C   UNL     1       2.543   8.078  18.288  0.00  0.00    +0.000 A 
ATOM      6  C   UNL     1       3.386   7.337  17.468  0.00  0.00    +0.000 A 
ATOM      7  N   UNL     1       3.596   6.109  17.942  0.00  0.00    +0.000 NA
ATOM      8  N   UNL     1       2.863   6.043  19.104  0.00  0.00    +0.000 N 
ATOM      9  C   UNL     1       2.027   9.412  18.232  0.00  0.00    +0.000 A 
ATOM     10  O   UNL     1       2.230  10.167  17.285  0.00  0.00    +0.000 OA
ENDROOT
BRANCH   8  11
ATOM     11  C   UNL     1       2.869   4.837  19.873  0.00  0.00    +0.000 A 
ATOM     12  C   UNL     1       3.788   3.823  19.550  0.00  0.00    +0.000 A 
ATOM     13  C   UNL     1       3.831   2.639  20.289  0.00  0.00    +0.000 A 
ATOM     14  C   UNL     1       2.954   2.449  21.352  0.00  0.00    +0.000 A 
ATOM     15  C   UNL     1       2.033   3.442  21.677  0.00  0.00    +0.000 A 
ATOM     16  C   UNL     1       1.989   4.633  20.943  0.00  0.00    +0.000 A 
ENDBRANCH   8  11
BRANCH   1  17
ATOM     17  C   UNL     1       0.632  11.061  19.379  0.00  0.00    +0.000 C 
BRANCH  17  19
ATOM     18  O   UNL     1       1.117  11.802  21.633  0.00  0.00    +0.000 OA
ATOM     19  C   UNL     1       1.271  11.983  20.426  0.00  0.00    +0.000 C 
ATOM     20  N   UNL     1       1.976  13.077  19.920  0.00  0.00    +0.000 N 
ATOM     21  C   UNL     1       2.215  13.288  18.462  0.00  0.00    +0.000 C 
ATOM     22  C   UNL     1       3.093  14.515  18.125  0.00  0.00    +0.000 C 
ATOM     23  C   UNL     1       2.468  15.646  18.868  0.00  0.00    +0.000 A 
ATOM     24  S   UNL     1       1.973  17.110  18.191  0.00  0.00    +0.000 S 
ATOM     25  C   UNL     1       1.079  17.496  19.606  0.00  0.00    +0.000 A 
ATOM     26  C   UNL     1       1.231  16.546  20.598  0.00  0.00    +0.000 A 
ATOM     27  C   UNL     1       2.048  15.463  20.171  0.00  0.00    +0.000 A 
ATOM     28  C   UNL     1       2.348  14.160  20.857  0.00  0.00    +0.000 C 
ENDBRANCH  17  19
ENDBRANCH   1  17
TORSDOF 3
ENDMDL
MODEL 4
REMARK VINA RESULT:      -7.9      0.774      1.119
REMARK  Name = 
REMARK  3 active torsions:
REMARK  status: ('A' for Active; 'I' for Inactive)
REMARK    1  A    between atoms: C_2  and  C_3
REMARK    2  A    between atoms: C_3  and  N_4
REMARK    3  A    between atoms: N_11  and  C_12
REMARK                            x       y       z     vdW  Elec       q    Type
REMARK                         _______ _______ _______ _____ _____    ______ ____
ROOT
ATOM      1  N   UNL     1       1.339   9.230  19.124  0.00  0.00    +0.000 N 
ATOM      2  C   UNL     1       2.158   9.201  18.003  0.00  0.00    +0.000 A 
ATOM      3  N   UNL     1       2.992   8.255  17.689  0.00  0.00    +0.000 NA
ATOM      4  C   UNL     1       2.992   7.212  18.564  0.00  0.00    +0.000 A 
ATOM      5  C   UNL     1       2.216   7.117  19.695  0.00  0.00    +0.000 A 
ATOM      6  C   UNL     1       2.510   5.883  20.263  0.00  0.00    +0.000 A 
ATOM      7  N   UNL     1       3.412   5.206  19.553  0.00  0.00    +0.000 NA
ATOM      8  N   UNL     1       3.723   6.024  18.493  0.00  0.00    +0.000 N 
ATOM      9  C   UNL     1       1.334   8.187  20.051  0.00  0.00    +0.000 A 
ATOM     10  O   UNL     1       0.677   8.194  21.089  0.00  0.00    +0.000 OA
ENDROOT
BRANCH   8  11
ATOM     11  C   UNL     1       4.679   5.589  17.523  0.00  0.00    +0.000 A 
ATOM     12  C   UNL     1       5.904   6.271  17.414  0.00  0.00    +0.000 A 
ATOM     13  C   UNL     1       6.867   5.864  16.487  0.00  0.00    +0.000 A 
ATOM     14  C   UNL     1       6.615   4.779  15.652  0.00  0.00    +0.000 A 
ATOM     15  C   UNL     1       5.401   4.101  15.744  0.00  0.00    +0.000 A 
ATOM     16  C   UNL     1       4.436   4.501  16.675  0.00  0.00    +0.000 A 
ENDBRANCH   8  11
BRANCH   1  17
ATOM     17  C   UNL     1       0.506  10.392  19.393  0.00  0.00    +0.000 C 
BRANCH  17  19
ATOM     18  O   UNL     1       0.964  11.123  21.657  0.00  0.00    +0.000 OA
ATOM     19  C   UNL     1       1.106  11.328  20.452  0.00  0.00    +0.000 C 
ATOM     20  N   UNL     1       1.758  12.461  19.960  0.00  0.00    +0.000 N 
ATOM     21  C   UNL     1       1.983  12.703  18.505  0.00  0.00    +0.000 C 
ATOM     22  C   UNL     1       2.802  13.974  18.184  0.00  0.00    +0.000 C 
ATOM     23  C   UNL     1       2.127  15.064  18.945  0.00  0.00    +0.000 A 
ATOM     24  S   UNL     1       1.564  16.514  18.290  0.00  0.00    +0.000 S 
ATOM     25  C   UNL     1       0.657  16.837  19.712  0.00  0.00    +0.000 A 
ATOM     26  C   UNL     1       0.855  15.881  20.690  0.00  0.00    +0.000 A 
ATOM     27  C   UNL     1       1.721  14.843  20.245  0.00  0.00    +0.000 A 
ATOM     28  C   UNL     1       2.082  13.546  20.912  0.00  0.00    +0.000 C 
ENDBRANCH  17  19
ENDBRANCH   1  17
TORSDOF 3
ENDMDL
MODEL 5
REMARK VINA RESULT:      -7.9      6.037      7.208
REMARK  Name = 
REMARK  3 active torsions:
REMARK  status: ('A' for Active; 'I' for Inactive)
REMARK    1  A    between atoms: C_2  and  C_3
REMARK    2  A    between atoms: C_3  and  N_4
REMARK    3  A    between atoms: N_11  and  C_12
REMARK                            x       y       z     vdW  Elec       q    Type
REMARK                         _______ _______ _______ _____ _____    ______ ____
ROOT
ATOM      1  N   UNL     1       7.263   6.442  18.248  0.00  0.00    +0.000 N 
ATOM      2  C   UNL     1       6.492   6.280  19.391  0.00  0.00    +0.000 A 
ATOM      3  N   UNL     1       5.446   5.516  19.507  0.00  0.00    +0.000 NA
ATOM      4  C   UNL     1       5.151   4.816  18.378  0.00  0.00    +0.000 A 
ATOM      5  C   UNL     1       5.848   4.877  17.194  0.00  0.00    +0.000 A 
ATOM      6  C   UNL     1       5.227   3.980  16.333  0.00  0.00    +0.000 A 
ATOM      7  N   UNL     1       4.195   3.363  16.910  0.00  0.00    +0.000 NA
ATOM      8  N   UNL     1       4.136   3.877  18.184  0.00  0.00    +0.000 N 
ATOM      9  C   UNL     1       6.971   5.756  17.068  0.00  0.00    +0.000 A 
ATOM     10  O   UNL     1       7.582   5.912  16.014  0.00  0.00    +0.000 OA
ENDROOT
BRANCH   8  11
ATOM     11  C   UNL     1       3.122   3.419  19.082  0.00  0.00    +0.000 A 
ATOM     12  C   UNL     1       1.782   3.411  18.657  0.00  0.00    +0.000 A 
ATOM     13  C   UNL     1       0.768   2.956  19.503  0.00  0.00    +0.000 A 
ATOM     14  C   UNL     1       1.078   2.514  20.786  0.00  0.00    +0.000 A 
ATOM     15  C   UNL     1       2.401   2.526  21.222  0.00  0.00    +0.000 A 
ATOM     16  C   UNL     1       3.421   2.975  20.376  0.00  0.00    +0.000 A 
ENDBRANCH   8  11
BRANCH   1  17
ATOM     17  C   UNL     1       8.365   7.391  18.236  0.00  0.00    +0.000 C 
BRANCH  17  19
ATOM     18  O   UNL     1       7.206   8.974  16.815  0.00  0.00    +0.000 OA
ATOM     19  C   UNL     1       7.942   8.797  17.784  0.00  0.00    +0.000 C 
ATOM     20  N   UNL     1       8.503   9.857  18.499  0.00  0.00    +0.000 N 
ATOM     21  C   UNL     1       9.359   9.663  19.706  0.00  0.00    +0.000 C 
ATOM     22  C   UNL     1       9.804  10.973  20.397  0.00  0.00    +0.000 C 
ATOM     23  C   UNL     1      10.376  11.804  19.300  0.00  0.00    +0.000 A 
ATOM     24  S   UNL     1      11.915  12.498  19.297  0.00  0.00    +0.000 S 
ATOM     25  C   UNL     1      11.796  12.823  17.615  0.00  0.00    +0.000 A 
ATOM     26  C   UNL     1      10.564  12.470  17.097  0.00  0.00    +0.000 A 
ATOM     27  C   UNL     1       9.728  11.878  18.084  0.00  0.00    +0.000 A 
ATOM     28  C   UNL     1       8.387  11.218  17.931  0.00  0.00    +0.000 C 
ENDBRANCH  17  19
ENDBRANCH   1  17
TORSDOF 3
ENDMDL
MODEL 6
REMARK VINA RESULT:      -7.8      1.172      1.213
REMARK  Name = 
REMARK  3 active torsions:
REMARK  status: ('A' for Active; 'I' for Inactive)
REMARK    1  A    between atoms: C_2  and  C_3
REMARK    2  A    between atoms: C_3  and  N_4
REMARK    3  A    between atoms: N_11  and  C_12
REMARK                            x       y       z     vdW  Elec       q    Type
REMARK                         _______ _______ _______ _____ _____    ______ ____
ROOT
ATOM      1  N   UNL     1       1.324   8.909  19.287  0.00  0.00    +0.000 N 
ATOM      2  C   UNL     1       2.139   8.973  18.165  0.00  0.00    +0.000 A 
ATOM      3  N   UNL     1       3.019   8.085  17.807  0.00  0.00    +0.000 NA
ATOM      4  C   UNL     1       3.075   7.005  18.633  0.00  0.00    +0.000 A 
ATOM      5  C   UNL     1       2.308   6.819  19.759  0.00  0.00    +0.000 A 
ATOM      6  C   UNL     1       2.666   5.577  20.270  0.00  0.00    +0.000 A 
ATOM      7  N   UNL     1       3.599   4.979  19.529  0.00  0.00    +0.000 NA
ATOM      8  N   UNL     1       3.865   5.860  18.507  0.00  0.00    +0.000 N 
ATOM      9  C   UNL     1       1.375   7.826  20.165  0.00  0.00    +0.000 A 
ATOM     10  O   UNL     1       0.722   7.752  21.203  0.00  0.00    +0.000 OA
ENDROOT
BRANCH   8  11
ATOM     11  C   UNL     1       4.838   5.518  17.517  0.00  0.00    +0.000 A 
ATOM     12  C   UNL     1       4.542   4.508  16.585  0.00  0.00    +0.000 A 
ATOM     13  C   UNL     1       5.463   4.158  15.596  0.00  0.00    +0.000 A 
ATOM     14  C   UNL     1       6.694   4.805  15.530  0.00  0.00    +0.000 A 
ATOM     15  C   UNL     1       7.003   5.801  16.453  0.00  0.00    +0.000 A 
ATOM     16  C   UNL     1       6.081   6.160  17.443  0.00  0.00    +0.000 A 
ENDBRANCH   8  11
BRANCH   1  17
ATOM     17  C   UNL     1       0.435  10.014  19.610  0.00  0.00    +0.000 C 
BRANCH  17  19
ATOM     18  O   UNL     1       1.119  10.753  21.813  0.00  0.00    +0.000 OA
ATOM     19  C   UNL     1       1.047  11.005  20.611  0.00  0.00    +0.000 C 
ATOM     20  N   UNL     1       1.448  12.233  20.080  0.00  0.00    +0.000 N 
ATOM     21  C   UNL     1       1.413  12.539  18.620  0.00  0.00    +0.000 C 
ATOM     22  C   UNL     1       1.983  13.925  18.240  0.00  0.00    +0.000 C 
ATOM     23  C   UNL     1       1.282  14.884  19.139  0.00  0.00    +0.000 A 
ATOM     24  S   UNL     1       0.423  16.249  18.639  0.00  0.00    +0.000 S 
ATOM     25  C   UNL     1      -0.295  16.401  20.192  0.00  0.00    +0.000 A 
ATOM     26  C   UNL     1       0.184  15.463  21.087  0.00  0.00    +0.000 A 
ATOM     27  C   UNL     1       1.112  14.575  20.474  0.00  0.00    +0.000 A 
ATOM     28  C   UNL     1       1.752  13.332  21.022  0.00  0.00    +0.000 C 
ENDBRANCH  17  19
ENDBRANCH   1  17
TORSDOF 3
ENDMDL
MODEL 7
REMARK VINA RESULT:      -7.7      3.153      3.920
REMARK  Name = 
REMARK  3 active torsions:
REMARK  status: ('A' for Active; 'I' for Inactive)
REMARK    1  A    between atoms: C_2  and  C_3
REMARK    2  A    between atoms: C_3  and  N_4
REMARK    3  A    between atoms: N_11  and  C_12
REMARK                            x       y       z     vdW  Elec       q    Type
REMARK                         _______ _______ _______ _____ _____    ______ ____
ROOT
ATOM      1  N   UNL     1       1.038  10.281  19.453  0.00  0.00    +0.000 N 
ATOM      2  C   UNL     1       1.732  10.046  18.273  0.00  0.00    +0.000 A 
ATOM      3  N   UNL     1       2.357   8.949  17.959  0.00  0.00    +0.000 NA
ATOM      4  C   UNL     1       2.256   7.972  18.901  0.00  0.00    +0.000 A 
ATOM      5  C   UNL     1       1.583   8.079  20.096  0.00  0.00    +0.000 A 
ATOM      6  C   UNL     1       1.710   6.845  20.722  0.00  0.00    +0.000 A 
ATOM      7  N   UNL     1       2.412   5.980  19.990  0.00  0.00    +0.000 NA
ATOM      8  N   UNL     1       2.760   6.671  18.854  0.00  0.00    +0.000 N 
ATOM      9  C   UNL     1       0.938   9.308  20.447  0.00  0.00    +0.000 A 
ATOM     10  O   UNL     1       0.391   9.488  21.532  0.00  0.00    +0.000 OA
ENDROOT
BRANCH   8  11
ATOM     11  C   UNL     1       3.532   6.019  17.842  0.00  0.00    +0.000 A 
ATOM     12  C   UNL     1       4.435   6.777  17.074  0.00  0.00    +0.000 A 
ATOM     13  C   UNL     1       5.215   6.171  16.087  0.00  0.00    +0.000 A 
ATOM     14  C   UNL     1       5.097   4.805  15.847  0.00  0.00    +0.000 A 
ATOM     15  C   UNL     1       4.200   4.045  16.595  0.00  0.00    +0.000 A 
ATOM     16  C   UNL     1       3.420   4.646  17.589  0.00  0.00    +0.000 A 
ENDBRANCH   8  11
BRANCH   1  17
ATOM     17  C   UNL     1       0.448  11.586  19.706  0.00  0.00    +0.000 C 
BRANCH  17  19
ATOM     18  O   UNL     1      -1.437  11.538  18.187  0.00  0.00    +0.000 OA
ATOM     19  C   UNL     1      -1.043  11.652  19.346  0.00  0.00    +0.000 C 
ATOM     20  N   UNL     1      -1.911  11.921  20.406  0.00  0.00    +0.000 N 
ATOM     21  C   UNL     1      -1.459  12.016  21.825  0.00  0.00    +0.000 C 
ATOM     22  C   UNL     1      -2.596  12.234  22.850  0.00  0.00    +0.000 C 
ATOM     23  C   UNL     1      -3.369  13.391  22.318  0.00  0.00    +0.000 A 
ATOM     24  S   UNL     1      -3.731  14.803  23.170  0.00  0.00    +0.000 S 
ATOM     25  C   UNL     1      -4.194  15.594  21.718  0.00  0.00    +0.000 A 
ATOM     26  C   UNL     1      -4.140  14.754  20.621  0.00  0.00    +0.000 A 
ATOM     27  C   UNL     1      -3.662  13.461  20.971  0.00  0.00    +0.000 A 
ATOM     28  C   UNL     1      -3.304  12.301  20.086  0.00  0.00    +0.000 C 
ENDBRANCH  17  19
ENDBRANCH   1  17
TORSDOF 3
ENDMDL
MODEL 8
REMARK VINA RESULT:      -7.6      1.901      2.952
REMARK  Name = 
REMARK  3 active torsions:
REMARK  status: ('A' for Active; 'I' for Inactive)
REMARK    1  A    between atoms: C_2  and  C_3
REMARK    2  A    between atoms: C_3  and  N_4
REMARK    3  A    between atoms: N_11  and  C_12
REMARK                            x       y       z     vdW  Elec       q    Type
REMARK                         _______ _______ _______ _____ _____    ______ ____
ROOT
ATOM      1  N   UNL     1       2.271   7.585  19.268  0.00  0.00    +0.000 N 
ATOM      2  C   UNL     1       3.018   7.954  18.156  0.00  0.00    +0.000 A 
ATOM      3  N   UNL     1       3.793   7.175  17.462  0.00  0.00    +0.000 NA
ATOM      4  C   UNL     1       3.807   5.886  17.898  0.00  0.00    +0.000 A 
ATOM      5  C   UNL     1       3.099   5.397  18.971  0.00  0.00    +0.000 A 
ATOM      6  C   UNL     1       3.379   4.037  19.033  0.00  0.00    +0.000 A 
ATOM      7  N   UNL     1       4.209   3.651  18.063  0.00  0.00    +0.000 NA
ATOM      8  N   UNL     1       4.485   4.795  17.351  0.00  0.00    +0.000 N 
ATOM      9  C   UNL     1       2.284   6.277  19.753  0.00  0.00    +0.000 A 
ATOM     10  O   UNL     1       1.693   5.915  20.767  0.00  0.00    +0.000 OA
ENDROOT
BRANCH   8  11
ATOM     11  C   UNL     1       5.362   4.728  16.223  0.00  0.00    +0.000 A 
ATOM     12  C   UNL     1       4.897   4.153  15.027  0.00  0.00    +0.000 A 
ATOM     13  C   UNL     1       5.721   4.084  13.902  0.00  0.00    +0.000 A 
ATOM     14  C   UNL     1       7.021   4.579  13.959  0.00  0.00    +0.000 A 
ATOM     15  C   UNL     1       7.496   5.143  15.141  0.00  0.00    +0.000 A 
ATOM     16  C   UNL     1       6.672   5.220  16.270  0.00  0.00    +0.000 A 
ENDBRANCH   8  11
BRANCH   1  17
ATOM     17  C   UNL     1       1.503   8.581  19.997  0.00  0.00    +0.000 C 
BRANCH  17  19
ATOM     18  O   UNL     1       0.705   9.414  17.868  0.00  0.00    +0.000 OA
ATOM     19  C   UNL     1       0.818   9.603  19.078  0.00  0.00    +0.000 C 
ATOM     20  N   UNL     1       0.400  10.785  19.692  0.00  0.00    +0.000 N 
ATOM     21  C   UNL     1       0.486  11.013  21.164  0.00  0.00    +0.000 C 
ATOM     22  C   UNL     1      -0.113  12.356  21.643  0.00  0.00    +0.000 C 
ATOM     23  C   UNL     1       0.519  13.386  20.771  0.00  0.00    +0.000 A 
ATOM     24  S   UNL     1       1.353  14.750  21.312  0.00  0.00    +0.000 S 
ATOM     25  C   UNL     1       2.001  15.012  19.743  0.00  0.00    +0.000 A 
ATOM     26  C   UNL     1       1.516  14.107  18.817  0.00  0.00    +0.000 A 
ATOM     27  C   UNL     1       0.643  13.156  19.416  0.00  0.00    +0.000 A 
ATOM     28  C   UNL     1       0.022  11.923  18.826  0.00  0.00    +0.000 C 
ENDBRANCH  17  19
ENDBRANCH   1  17
TORSDOF 3
ENDMDL
MODEL 9
REMARK VINA RESULT:      -7.6      1.817      2.601
REMARK  Name = 
REMARK  3 active torsions:
REMARK  status: ('A' for Active; 'I' for Inactive)
REMARK    1  A    between atoms: C_2  and  C_3
REMARK    2  A    between atoms: C_3  and  N_4
REMARK    3  A    between atoms: N_11  and  C_12
REMARK                            x       y       z     vdW  Elec       q    Type
REMARK                         _______ _______ _______ _____ _____    ______ ____
ROOT
ATOM      1  N   UNL     1       1.908   7.879  19.450  0.00  0.00    +0.000 N 
ATOM      2  C   UNL     1       2.638   8.138  18.298  0.00  0.00    +0.000 A 
ATOM      3  N   UNL     1       3.464   7.320  17.715  0.00  0.00    +0.000 NA
ATOM      4  C   UNL     1       3.553   6.106  18.324  0.00  0.00    +0.000 A 
ATOM      5  C   UNL     1       2.868   5.726  19.455  0.00  0.00    +0.000 A 
ATOM      6  C   UNL     1       3.230   4.407  19.700  0.00  0.00    +0.000 A 
ATOM      7  N   UNL     1       4.088   3.943  18.791  0.00  0.00    +0.000 NA
ATOM      8  N   UNL     1       4.300   4.994  17.929  0.00  0.00    +0.000 N 
ATOM      9  C   UNL     1       1.996   6.653  20.109  0.00  0.00    +0.000 A 
ATOM     10  O   UNL     1       1.421   6.398  21.165  0.00  0.00    +0.000 OA
ENDROOT
BRANCH   8  11
ATOM     11  C   UNL     1       5.186   4.827  16.820  0.00  0.00    +0.000 A 
ATOM     12  C   UNL     1       6.571   4.972  17.021  0.00  0.00    +0.000 A 
ATOM     13  C   UNL     1       7.466   4.802  15.963  0.00  0.00    +0.000 A 
ATOM     14  C   UNL     1       6.992   4.497  14.691  0.00  0.00    +0.000 A 
ATOM     15  C   UNL     1       5.622   4.360  14.477  0.00  0.00    +0.000 A 
ATOM     16  C   UNL     1       4.720   4.523  15.535  0.00  0.00    +0.000 A 
ENDBRANCH   8  11
BRANCH   1  17
ATOM     17  C   UNL     1       1.076   8.917  20.038  0.00  0.00    +0.000 C 
BRANCH  17  19
ATOM     18  O   UNL     1       0.339   9.707  17.870  0.00  0.00    +0.000 OA
ATOM     19  C   UNL     1       0.651   9.991  19.026  0.00  0.00    +0.000 C 
ATOM     20  N   UNL     1       0.710  11.310  19.481  0.00  0.00    +0.000 N 
ATOM     21  C   UNL     1       1.040  11.671  20.890  0.00  0.00    +0.000 C 
ATOM     22  C   UNL     1       0.965  13.184  21.201  0.00  0.00    +0.000 C 
ATOM     23  C   UNL     1       1.785  13.831  20.139  0.00  0.00    +0.000 A 
ATOM     24  S   UNL     1       3.071  14.892  20.402  0.00  0.00    +0.000 S 
ATOM     25  C   UNL     1       3.576  14.731  18.768  0.00  0.00    +0.000 A 
ATOM     26  C   UNL     1       2.720  13.937  18.029  0.00  0.00    +0.000 A 
ATOM     27  C   UNL     1       1.666  13.412  18.828  0.00  0.00    +0.000 A 
ATOM     28  C   UNL     1       0.616  12.396  18.481  0.00  0.00    +0.000 C 
ENDBRANCH  17  19
ENDBRANCH   1  17
TORSDOF 3
ENDMDL
