MODEL 1
REMARK VINA RESULT:      -9.9      0.000      0.000
REMARK  Name = 
REMARK  3 active torsions:
REMARK  status: ('A' for Active; 'I' for Inactive)
REMARK    1  A    between atoms: C_9  and  C_10
REMARK    2  A    between atoms: N_12  and  C_13
REMARK    3  A    between atoms: C_17  and  C_18
REMARK                            x       y       z     vdW  Elec       q    Type
REMARK                         _______ _______ _______ _____ _____    ______ ____
ROOT
ATOM      1  C   UNL     1       1.900   8.878  18.442  0.00  0.00    +0.000 C 
ATOM      2  O   UNL     1       2.038   9.294  17.297  0.00  0.00    +0.000 OA
ATOM      3  N   UNL     1       1.247   9.548  19.474  0.00  0.00    +0.000 N 
ATOM      4  H   UNL     1       1.362   9.195  20.414  0.00  0.00    +0.000 HD
ENDROOT
BRANCH   1  13
ATOM      5  O   UNL     1       1.939   2.884  22.281  0.00  0.00    +0.000 OA
ATOM      6  C   UNL     1       2.140   3.405  21.184  0.00  0.00    +0.000 C 
ATOM      7  C   UNL     1       1.973   2.630  19.900  0.00  0.00    +0.000 C 
ATOM      8  C   UNL     1       3.279   2.183  19.289  0.00  0.00    +0.000 C 
ATOM      9  S   UNL     1       4.562   3.455  19.098  0.00  0.00    +0.000 S 
ATOM     10  C   UNL     1       3.602   4.960  18.946  0.00  0.00    +0.000 A 
ATOM     11  C   UNL     1       3.876   5.745  17.822  0.00  0.00    +0.000 A 
ATOM     12  C   UNL     1       3.333   7.022  17.705  0.00  0.00    +0.000 A 
ATOM     13  C   UNL     1       2.538   7.564  18.728  0.00  0.00    +0.000 A 
ATOM     14  C   UNL     1       2.275   6.804  19.871  0.00  0.00    +0.000 A 
ATOM     15  C   UNL     1       2.772   5.482  19.962  0.00  0.00    +0.000 A 
ATOM     16  N   UNL     1       2.408   4.746  21.104  0.00  0.00    +0.000 N 
ATOM     17  H   UNL     1       2.207   5.241  21.964  0.00  0.00    +0.000 HD
ENDBRANCH   1  13
BRANCH   3  18
ATOM     18  C   UNL     1       0.616  10.822  19.331  0.00  0.00    +0.000 A 
ATOM     19  C   UNL     1       1.332  12.005  19.132  0.00  0.00    +0.000 A 
ATOM     20  C   UNL     1       0.688  13.245  19.081  0.00  0.00    +0.000 A 
ATOM     21  C   UNL     1      -0.697  13.321  19.182  0.00  0.00    +0.000 A 
ATOM     22  C   UNL     1      -1.458  12.154  19.300  0.00  0.00    +0.000 A 
ATOM     23  C   UNL     1      -0.786  10.907  19.393  0.00  0.00    +0.000 A 
BRANCH  22  24
ATOM     24  C   UNL     1      -2.925  12.251  19.304  0.00  0.00    +0.000 A 
ATOM     25  N   UNL     1      -3.713  12.640  20.296  0.00  0.00    +0.000 NA
ATOM     26  C   UNL     1      -5.007  12.525  19.830  0.00  0.00    +0.000 A 
ATOM     27  C   UNL     1      -6.239  12.772  20.456  0.00  0.00    +0.000 A 
ATOM     28  C   UNL     1      -7.423  12.516  19.739  0.00  0.00    +0.000 A 
ATOM     29  C   UNL     1      -7.380  12.047  18.424  0.00  0.00    +0.000 A 
ATOM     30  C   UNL     1      -6.162  11.837  17.773  0.00  0.00    +0.000 A 
ATOM     31  C   UNL     1      -5.008  12.086  18.514  0.00  0.00    +0.000 A 
ATOM     32  N   UNL     1      -3.686  11.987  18.189  0.00  0.00    +0.000 N 
ATOM     33  H   UNL     1      -3.321  11.762  17.279  0.00  0.00    +0.000 HD
ENDBRANCH  22  24
ENDBRANCH   3  18
TORSDOF 3
ENDMDL
MODEL 2
REMARK VINA RESULT:      -9.8      0.330      1.077
REMARK  Name = 
REMARK  3 active torsions:
REMARK  status: ('A' for Active; 'I' for Inactive)
REMARK    1  A    between atoms: C_9  and  C_10
REMARK    2  A    between atoms: N_12  and  C_13
REMARK    3  A    between atoms: C_17  and  C_18
REMARK                            x       y       z     vdW  Elec       q    Type
REMARK                         _______ _______ _______ _____ _____    ______ ____
ROOT
ATOM      1  C   UNL     1       1.950   8.713  18.378  0.00  0.00    +0.000 C 
ATOM      2  O   UNL     1       2.201   9.141  17.257  0.00  0.00    +0.000 OA
ATOM      3  N   UNL     1       1.191   9.370  19.345  0.00  0.00    +0.000 N 
ATOM      4  H   UNL     1       1.213   9.010  20.288  0.00  0.00    +0.000 HD
ENDROOT
BRANCH   1  13
ATOM      5  O   UNL     1       1.668   2.708  22.190  0.00  0.00    +0.000 OA
ATOM      6  C   UNL     1       1.964   3.234  21.117  0.00  0.00    +0.000 C 
ATOM      7  C   UNL     1       1.913   2.461  19.821  0.00  0.00    +0.000 C 
ATOM      8  C   UNL     1       3.271   2.020  19.328  0.00  0.00    +0.000 C 
ATOM      9  S   UNL     1       4.561   3.297  19.255  0.00  0.00    +0.000 S 
ATOM     10  C   UNL     1       3.614   4.799  19.021  0.00  0.00    +0.000 A 
ATOM     11  C   UNL     1       3.984   5.588  17.928  0.00  0.00    +0.000 A 
ATOM     12  C   UNL     1       3.449   6.864  17.767  0.00  0.00    +0.000 A 
ATOM     13  C   UNL     1       2.565   7.401  18.717  0.00  0.00    +0.000 A 
ATOM     14  C   UNL     1       2.203   6.636  19.830  0.00  0.00    +0.000 A 
ATOM     15  C   UNL     1       2.695   5.316  19.961  0.00  0.00    +0.000 A 
ATOM     16  N   UNL     1       2.234   4.576  21.065  0.00  0.00    +0.000 N 
ATOM     17  H   UNL     1       1.955   5.067  21.904  0.00  0.00    +0.000 HD
ENDBRANCH   1  13
BRANCH   3  18
ATOM     18  C   UNL     1       0.569  10.642  19.149  0.00  0.00    +0.000 A 
ATOM     19  C   UNL     1       1.296  11.819  18.950  0.00  0.00    +0.000 A 
ATOM     20  C   UNL     1       0.658  13.059  18.846  0.00  0.00    +0.000 A 
ATOM     21  C   UNL     1      -0.730  13.139  18.895  0.00  0.00    +0.000 A 
ATOM     22  C   UNL     1      -1.498  11.977  19.012  0.00  0.00    +0.000 A 
ATOM     23  C   UNL     1      -0.833  10.732  19.158  0.00  0.00    +0.000 A 
BRANCH  22  24
ATOM     24  C   UNL     1      -2.964  12.077  18.960  0.00  0.00    +0.000 A 
ATOM     25  N   UNL     1      -3.792  11.478  18.117  0.00  0.00    +0.000 NA
ATOM     26  C   UNL     1      -5.060  11.914  18.444  0.00  0.00    +0.000 A 
ATOM     27  C   UNL     1      -6.310  11.629  17.872  0.00  0.00    +0.000 A 
ATOM     28  C   UNL     1      -7.451  12.269  18.393  0.00  0.00    +0.000 A 
ATOM     29  C   UNL     1      -7.351  13.152  19.470  0.00  0.00    +0.000 A 
ATOM     30  C   UNL     1      -6.121  13.413  20.077  0.00  0.00    +0.000 A 
ATOM     31  C   UNL     1      -5.008  12.775  19.530  0.00  0.00    +0.000 A 
ATOM     32  N   UNL     1      -3.687  12.807  19.875  0.00  0.00    +0.000 N 
ATOM     33  H   UNL     1      -3.301  13.281  20.673  0.00  0.00    +0.000 HD
ENDBRANCH  22  24
ENDBRANCH   3  18
TORSDOF 3
ENDMDL
MODEL 3
REMARK VINA RESULT:      -9.6      7.771     10.626
REMARK  Name = 
REMARK  3 active torsions:
REMARK  status: ('A' for Active; 'I' for Inactive)
REMARK    1  A    between atoms: C_9  and  C_10
REMARK    2  A    between atoms: N_12  and  C_13
REMARK    3  A    between atoms: C_17  and  C_18
REMARK                            x       y       z     vdW  Elec       q    Type
REMARK                         _______ _______ _______ _____ _____    ______ ____
ROOT
ATOM      1  C   UNL     1       8.182   8.322  18.140  0.00  0.00    +0.000 C 
ATOM      2  O   UNL     1       8.611   7.523  18.966  0.00  0.00    +0.000 OA
ATOM      3  N   UNL     1       7.335   8.013  17.079  0.00  0.00    +0.000 N 
ATOM      4  H   UNL     1       7.205   8.710  16.359  0.00  0.00    +0.000 HD
ENDROOT
BRANCH   1  13
ATOM      5  O   UNL     1       6.988  15.272  17.172  0.00  0.00    +0.000 OA
ATOM      6  C   UNL     1       7.482  14.402  17.891  0.00  0.00    +0.000 C 
ATOM      7  C   UNL     1       7.607  14.590  19.383  0.00  0.00    +0.000 C 
ATOM      8  C   UNL     1       9.004  14.948  19.831  0.00  0.00    +0.000 C 
ATOM      9  S   UNL     1      10.349  13.897  19.209  0.00  0.00    +0.000 S 
ATOM     10  C   UNL     1       9.527  12.330  18.933  0.00  0.00    +0.000 A 
ATOM     11  C   UNL     1      10.109  11.220  19.552  0.00  0.00    +0.000 A 
ATOM     12  C   UNL     1       9.670   9.934  19.249  0.00  0.00    +0.000 A 
ATOM     13  C   UNL     1       8.669   9.721  18.288  0.00  0.00    +0.000 A 
ATOM     14  C   UNL     1       8.093  10.817  17.639  0.00  0.00    +0.000 A 
ATOM     15  C   UNL     1       8.492  12.128  17.993  0.00  0.00    +0.000 A 
ATOM     16  N   UNL     1       7.821  13.187  17.357  0.00  0.00    +0.000 N 
ATOM     17  H   UNL     1       7.432  13.039  16.434  0.00  0.00    +0.000 HD
ENDBRANCH   1  13
BRANCH   3  18
ATOM     18  C   UNL     1       6.819   6.705  16.818  0.00  0.00    +0.000 A 
ATOM     19  C   UNL     1       7.306   5.889  15.794  0.00  0.00    +0.000 A 
ATOM     20  C   UNL     1       6.722   4.650  15.513  0.00  0.00    +0.000 A 
ATOM     21  C   UNL     1       5.663   4.182  16.284  0.00  0.00    +0.000 A 
ATOM     22  C   UNL     1       5.199   4.932  17.369  0.00  0.00    +0.000 A 
ATOM     23  C   UNL     1       5.775   6.206  17.614  0.00  0.00    +0.000 A 
BRANCH  22  24
ATOM     24  C   UNL     1       4.147   4.373  18.230  0.00  0.00    +0.000 A 
ATOM     25  N   UNL     1       2.838   4.378  18.026  0.00  0.00    +0.000 NA
ATOM     26  C   UNL     1       2.272   3.770  19.128  0.00  0.00    +0.000 A 
ATOM     27  C   UNL     1       0.929   3.528  19.460  0.00  0.00    +0.000 A 
ATOM     28  C   UNL     1       0.640   2.921  20.697  0.00  0.00    +0.000 A 
ATOM     29  C   UNL     1       1.663   2.546  21.571  0.00  0.00    +0.000 A 
ATOM     30  C   UNL     1       3.005   2.742  21.236  0.00  0.00    +0.000 A 
ATOM     31  C   UNL     1       3.259   3.357  20.011  0.00  0.00    +0.000 A 
ATOM     32  N   UNL     1       4.428   3.688  19.390  0.00  0.00    +0.000 N 
ATOM     33  H   UNL     1       5.352   3.465  19.721  0.00  0.00    +0.000 HD
ENDBRANCH  22  24
ENDBRANCH   3  18
TORSDOF 3
ENDMDL
MODEL 4
REMARK VINA RESULT:      -9.3      8.044     10.545
REMARK  Name = 
REMARK  3 active torsions:
REMARK  status: ('A' for Active; 'I' for Inactive)
REMARK    1  A    between atoms: C_9  and  C_10
REMARK    2  A    between atoms: N_12  and  C_13
REMARK    3  A    between atoms: C_17  and  C_18
REMARK                            x       y       z     vdW  Elec       q    Type
REMARK                         _______ _______ _______ _____ _____    ______ ____
ROOT
ATOM      1  C   UNL     1       8.235   8.444  18.150  0.00  0.00    +0.000 C 
ATOM      2  O   UNL     1       8.654   7.641  18.976  0.00  0.00    +0.000 OA
ATOM      3  N   UNL     1       7.391   8.143  17.083  0.00  0.00    +0.000 N 
ATOM      4  H   UNL     1       7.268   8.843  16.365  0.00  0.00    +0.000 HD
ENDROOT
BRANCH   1  13
ATOM      5  O   UNL     1       7.069  15.407  17.241  0.00  0.00    +0.000 OA
ATOM      6  C   UNL     1       7.564  14.530  17.949  0.00  0.00    +0.000 C 
ATOM      7  C   UNL     1       7.703  14.707  19.441  0.00  0.00    +0.000 C 
ATOM      8  C   UNL     1       9.105  15.054  19.880  0.00  0.00    +0.000 C 
ATOM      9  S   UNL     1      10.439  14.001  19.240  0.00  0.00    +0.000 S 
ATOM     10  C   UNL     1       9.607  12.439  18.959  0.00  0.00    +0.000 A 
ATOM     11  C   UNL     1      10.189  11.322  19.566  0.00  0.00    +0.000 A 
ATOM     12  C   UNL     1       9.740  10.040  19.257  0.00  0.00    +0.000 A 
ATOM     13  C   UNL     1       8.730   9.839  18.303  0.00  0.00    +0.000 A 
ATOM     14  C   UNL     1       8.154  10.944  17.667  0.00  0.00    +0.000 A 
ATOM     15  C   UNL     1       8.563  12.249  18.027  0.00  0.00    +0.000 A 
ATOM     16  N   UNL     1       7.892  13.317  17.404  0.00  0.00    +0.000 N 
ATOM     17  H   UNL     1       7.495  13.177  16.483  0.00  0.00    +0.000 HD
ENDBRANCH   1  13
BRANCH   3  18
ATOM     18  C   UNL     1       6.867   6.840  16.817  0.00  0.00    +0.000 A 
ATOM     19  C   UNL     1       7.375   6.009  15.815  0.00  0.00    +0.000 A 
ATOM     20  C   UNL     1       6.785   4.775  15.525  0.00  0.00    +0.000 A 
ATOM     21  C   UNL     1       5.697   4.327  16.267  0.00  0.00    +0.000 A 
ATOM     22  C   UNL     1       5.209   5.090  17.331  0.00  0.00    +0.000 A 
ATOM     23  C   UNL     1       5.793   6.359  17.585  0.00  0.00    +0.000 A 
BRANCH  22  24
ATOM     24  C   UNL     1       4.125   4.550  18.165  0.00  0.00    +0.000 A 
ATOM     25  N   UNL     1       3.983   4.645  19.479  0.00  0.00    +0.000 NA
ATOM     26  C   UNL     1       2.834   3.950  19.795  0.00  0.00    +0.000 A 
ATOM     27  C   UNL     1       2.218   3.697  21.031  0.00  0.00    +0.000 A 
ATOM     28  C   UNL     1       1.058   2.901  21.057  0.00  0.00    +0.000 A 
ATOM     29  C   UNL     1       0.512   2.387  19.878  0.00  0.00    +0.000 A 
ATOM     30  C   UNL     1       1.089   2.665  18.636  0.00  0.00    +0.000 A 
ATOM     31  C   UNL     1       2.244   3.445  18.645  0.00  0.00    +0.000 A 
ATOM     32  N   UNL     1       3.040   3.894  17.631  0.00  0.00    +0.000 N 
ATOM     33  H   UNL     1       2.863   3.772  16.649  0.00  0.00    +0.000 HD
ENDBRANCH  22  24
ENDBRANCH   3  18
TORSDOF 3
ENDMDL
MODEL 5
REMARK VINA RESULT:      -9.3      0.741      1.453
REMARK  Name = 
REMARK  3 active torsions:
REMARK  status: ('A' for Active; 'I' for Inactive)
REMARK    1  A    between atoms: C_9  and  C_10
REMARK    2  A    between atoms: N_12  and  C_13
REMARK    3  A    between atoms: C_17  and  C_18
REMARK                            x       y       z     vdW  Elec       q    Type
REMARK                         _______ _______ _______ _____ _____    ______ ____
ROOT
ATOM      1  C   UNL     1       1.845   8.942  18.445  0.00  0.00    +0.000 C 
ATOM      2  O   UNL     1       2.049   9.407  17.329  0.00  0.00    +0.000 OA
ATOM      3  N   UNL     1       1.116   9.560  19.458  0.00  0.00    +0.000 N 
ATOM      4  H   UNL     1       1.177   9.171  20.389  0.00  0.00    +0.000 HD
ENDROOT
BRANCH   1  13
ATOM      5  O   UNL     1       1.969   2.963  22.305  0.00  0.00    +0.000 OA
ATOM      6  C   UNL     1       2.143   3.480  21.202  0.00  0.00    +0.000 C 
ATOM      7  C   UNL     1       1.940   2.700  19.926  0.00  0.00    +0.000 C 
ATOM      8  C   UNL     1       3.229   2.247  19.283  0.00  0.00    +0.000 C 
ATOM      9  S   UNL     1       4.509   3.515  19.054  0.00  0.00    +0.000 S 
ATOM     10  C   UNL     1       3.550   5.022  18.920  0.00  0.00    +0.000 A 
ATOM     11  C   UNL     1       3.797   5.802  17.786  0.00  0.00    +0.000 A 
ATOM     12  C   UNL     1       3.254   7.080  17.678  0.00  0.00    +0.000 A 
ATOM     13  C   UNL     1       2.487   7.628  18.719  0.00  0.00    +0.000 A 
ATOM     14  C   UNL     1       2.252   6.873  19.873  0.00  0.00    +0.000 A 
ATOM     15  C   UNL     1       2.748   5.551  19.955  0.00  0.00    +0.000 A 
ATOM     16  N   UNL     1       2.412   4.820  21.109  0.00  0.00    +0.000 N 
ATOM     17  H   UNL     1       2.234   5.318  21.972  0.00  0.00    +0.000 HD
ENDBRANCH   1  13
BRANCH   3  18
ATOM     18  C   UNL     1       0.472  10.829  19.325  0.00  0.00    +0.000 A 
ATOM     19  C   UNL     1       1.110  11.950  18.788  0.00  0.00    +0.000 A 
ATOM     20  C   UNL     1       0.479  13.197  18.750  0.00  0.00    +0.000 A 
ATOM     21  C   UNL     1      -0.826  13.337  19.210  0.00  0.00    +0.000 A 
ATOM     22  C   UNL     1      -1.529  12.224  19.680  0.00  0.00    +0.000 A 
ATOM     23  C   UNL     1      -0.859  10.974  19.751  0.00  0.00    +0.000 A 
BRANCH  22  24
ATOM     24  C   UNL     1      -2.939  12.376  20.066  0.00  0.00    +0.000 A 
ATOM     25  N   UNL     1      -4.014  12.202  19.310  0.00  0.00    +0.000 NA
ATOM     26  C   UNL     1      -5.100  12.497  20.109  0.00  0.00    +0.000 A 
ATOM     27  C   UNL     1      -6.476  12.510  19.828  0.00  0.00    +0.000 A 
ATOM     28  C   UNL     1      -7.367  12.906  20.843  0.00  0.00    +0.000 A 
ATOM     29  C   UNL     1      -6.901  13.259  22.112  0.00  0.00    +0.000 A 
ATOM     30  C   UNL     1      -5.540  13.211  22.419  0.00  0.00    +0.000 A 
ATOM     31  C   UNL     1      -4.681  12.829  21.389  0.00  0.00    +0.000 A 
ATOM     32  N   UNL     1      -3.325  12.679  21.351  0.00  0.00    +0.000 N 
ATOM     33  H   UNL     1      -2.703  12.769  22.137  0.00  0.00    +0.000 HD
ENDBRANCH  22  24
ENDBRANCH   3  18
TORSDOF 3
ENDMDL
MODEL 6
REMARK VINA RESULT:      -9.0      1.898      2.317
REMARK  Name = 
REMARK  3 active torsions:
REMARK  status: ('A' for Active; 'I' for Inactive)
REMARK    1  A    between atoms: C_9  and  C_10
REMARK    2  A    between atoms: N_12  and  C_13
REMARK    3  A    between atoms: C_17  and  C_18
REMARK                            x       y       z     vdW  Elec       q    Type
REMARK                         _______ _______ _______ _____ _____    ______ ____
ROOT
ATOM      1  C   UNL     1       1.380   9.056  19.540  0.00  0.00    +0.000 C 
ATOM      2  O   UNL     1       1.198   9.604  18.458  0.00  0.00    +0.000 OA
ATOM      3  N   UNL     1       1.129   9.621  20.788  0.00  0.00    +0.000 N 
ATOM      4  H   UNL     1       1.495   9.150  21.603  0.00  0.00    +0.000 HD
ENDROOT
BRANCH   1  13
ATOM      5  O   UNL     1       1.625   2.449  22.179  0.00  0.00    +0.000 OA
ATOM      6  C   UNL     1       1.685   3.160  21.176  0.00  0.00    +0.000 C 
ATOM      7  C   UNL     1       1.265   2.646  19.820  0.00  0.00    +0.000 C 
ATOM      8  C   UNL     1       2.426   2.275  18.929  0.00  0.00    +0.000 C 
ATOM      9  S   UNL     1       3.744   3.513  18.758  0.00  0.00    +0.000 S 
ATOM     10  C   UNL     1       2.876   5.054  19.040  0.00  0.00    +0.000 A 
ATOM     11  C   UNL     1       3.021   6.025  18.045  0.00  0.00    +0.000 A 
ATOM     12  C   UNL     1       2.552   7.320  18.252  0.00  0.00    +0.000 A 
ATOM     13  C   UNL     1       1.967   7.689  19.474  0.00  0.00    +0.000 A 
ATOM     14  C   UNL     1       1.837   6.737  20.491  0.00  0.00    +0.000 A 
ATOM     15  C   UNL     1       2.253   5.405  20.258  0.00  0.00    +0.000 A 
ATOM     16  N   UNL     1       2.026   4.481  21.294  0.00  0.00    +0.000 N 
ATOM     17  H   UNL     1       1.996   4.813  22.250  0.00  0.00    +0.000 HD
ENDBRANCH   1  13
BRANCH   3  18
ATOM     18  C   UNL     1       0.589  10.930  20.981  0.00  0.00    +0.000 A 
ATOM     19  C   UNL     1       1.307  12.095  20.699  0.00  0.00    +0.000 A 
ATOM     20  C   UNL     1       0.780  13.360  20.980  0.00  0.00    +0.000 A 
ATOM     21  C   UNL     1      -0.500  13.484  21.510  0.00  0.00    +0.000 A 
ATOM     22  C   UNL     1      -1.283  12.348  21.731  0.00  0.00    +0.000 A 
ATOM     23  C   UNL     1      -0.717  11.070  21.480  0.00  0.00    +0.000 A 
BRANCH  22  24
ATOM     24  C   UNL     1      -2.668  12.509  22.196  0.00  0.00    +0.000 A 
ATOM     25  N   UNL     1      -3.112  12.526  23.444  0.00  0.00    +0.000 NA
ATOM     26  C   UNL     1      -4.483  12.664  23.366  0.00  0.00    +0.000 A 
ATOM     27  C   UNL     1      -5.464  12.713  24.369  0.00  0.00    +0.000 A 
ATOM     28  C   UNL     1      -6.815  12.813  23.985  0.00  0.00    +0.000 A 
ATOM     29  C   UNL     1      -7.177  12.883  22.638  0.00  0.00    +0.000 A 
ATOM     30  C   UNL     1      -6.210  12.878  21.630  0.00  0.00    +0.000 A 
ATOM     31  C   UNL     1      -4.882  12.765  22.041  0.00  0.00    +0.000 A 
ATOM     32  N   UNL     1      -3.716  12.732  21.332  0.00  0.00    +0.000 N 
ATOM     33  H   UNL     1      -3.630  12.857  20.338  0.00  0.00    +0.000 HD
ENDBRANCH  22  24
ENDBRANCH   3  18
TORSDOF 3
ENDMDL
MODEL 7
REMARK VINA RESULT:      -9.0      3.177      4.398
REMARK  Name = 
REMARK  3 active torsions:
REMARK  status: ('A' for Active; 'I' for Inactive)
REMARK    1  A    between atoms: C_9  and  C_10
REMARK    2  A    between atoms: N_12  and  C_13
REMARK    3  A    between atoms: C_17  and  C_18
REMARK                            x       y       z     vdW  Elec       q    Type
REMARK                         _______ _______ _______ _____ _____    ______ ____
ROOT
ATOM      1  C   UNL     1       1.230   9.014  19.865  0.00  0.00    +0.000 C 
ATOM      2  O   UNL     1       1.112   9.663  18.831  0.00  0.00    +0.000 OA
ATOM      3  N   UNL     1       0.863   9.445  21.138  0.00  0.00    +0.000 N 
ATOM      4  H   UNL     1       1.181   8.905  21.930  0.00  0.00    +0.000 HD
ENDROOT
BRANCH   1  13
ATOM      5  O   UNL     1       1.751   2.277  22.101  0.00  0.00    +0.000 OA
ATOM      6  C   UNL     1       1.776   3.048  21.142  0.00  0.00    +0.000 C 
ATOM      7  C   UNL     1       1.367   2.600  19.760  0.00  0.00    +0.000 C 
ATOM      8  C   UNL     1       2.535   2.329  18.843  0.00  0.00    +0.000 C 
ATOM      9  S   UNL     1       3.803   3.626  18.739  0.00  0.00    +0.000 S 
ATOM     10  C   UNL     1       2.877   5.111  19.118  0.00  0.00    +0.000 A 
ATOM     11  C   UNL     1       2.976   6.146  18.183  0.00  0.00    +0.000 A 
ATOM     12  C   UNL     1       2.459   7.407  18.470  0.00  0.00    +0.000 A 
ATOM     13  C   UNL     1       1.869   7.678  19.715  0.00  0.00    +0.000 A 
ATOM     14  C   UNL     1       1.784   6.663  20.673  0.00  0.00    +0.000 A 
ATOM     15  C   UNL     1       2.249   5.365  20.358  0.00  0.00    +0.000 A 
ATOM     16  N   UNL     1       2.066   4.372  21.338  0.00  0.00    +0.000 N 
ATOM     17  H   UNL     1       2.031   4.644  22.312  0.00  0.00    +0.000 HD
ENDBRANCH   1  13
BRANCH   3  18
ATOM     18  C   UNL     1       0.263  10.713  21.414  0.00  0.00    +0.000 A 
ATOM     19  C   UNL     1      -0.582  10.929  22.506  0.00  0.00    +0.000 A 
ATOM     20  C   UNL     1      -1.220  12.159  22.699  0.00  0.00    +0.000 A 
ATOM     21  C   UNL     1      -0.987  13.215  21.824  0.00  0.00    +0.000 A 
ATOM     22  C   UNL     1      -0.085  13.065  20.766  0.00  0.00    +0.000 A 
ATOM     23  C   UNL     1       0.520  11.798  20.559  0.00  0.00    +0.000 A 
BRANCH  22  24
ATOM     24  C   UNL     1       0.222  14.223  19.915  0.00  0.00    +0.000 A 
ATOM     25  N   UNL     1       1.412  14.652  19.520  0.00  0.00    +0.000 NA
ATOM     26  C   UNL     1       1.186  15.789  18.771  0.00  0.00    +0.000 A 
ATOM     27  C   UNL     1       2.077  16.665  18.131  0.00  0.00    +0.000 A 
ATOM     28  C   UNL     1       1.555  17.792  17.469  0.00  0.00    +0.000 A 
ATOM     29  C   UNL     1       0.179  18.028  17.427  0.00  0.00    +0.000 A 
ATOM     30  C   UNL     1      -0.723  17.143  18.022  0.00  0.00    +0.000 A 
ATOM     31  C   UNL     1      -0.175  16.044  18.681  0.00  0.00    +0.000 A 
ATOM     32  N   UNL     1      -0.759  15.008  19.352  0.00  0.00    +0.000 N 
ATOM     33  H   UNL     1      -1.747  14.837  19.422  0.00  0.00    +0.000 HD
ENDBRANCH  22  24
ENDBRANCH   3  18
TORSDOF 3
ENDMDL
MODEL 8
REMARK VINA RESULT:      -8.9      1.649      2.109
REMARK  Name = 
REMARK  3 active torsions:
REMARK  status: ('A' for Active; 'I' for Inactive)
REMARK    1  A    between atoms: C_9  and  C_10
REMARK    2  A    between atoms: N_12  and  C_13
REMARK    3  A    between atoms: C_17  and  C_18
REMARK                            x       y       z     vdW  Elec       q    Type
REMARK                         _______ _______ _______ _____ _____    ______ ____
ROOT
ATOM      1  C   UNL     1       0.822   9.691  19.050  0.00  0.00    +0.000 C 
ATOM      2  O   UNL     1       0.165   9.809  18.021  0.00  0.00    +0.000 OA
ATOM      3  N   UNL     1       0.836  10.594  20.110  0.00  0.00    +0.000 N 
ATOM      4  H   UNL     1       1.554  10.488  20.812  0.00  0.00    +0.000 HD
ENDROOT
BRANCH   1  13
ATOM      5  O   UNL     1       2.301   3.423  22.082  0.00  0.00    +0.000 OA
ATOM      6  C   UNL     1       2.292   4.089  21.047  0.00  0.00    +0.000 C 
ATOM      7  C   UNL     1       2.128   3.442  19.694  0.00  0.00    +0.000 C 
ATOM      8  C   UNL     1       3.421   3.313  18.925  0.00  0.00    +0.000 C 
ATOM      9  S   UNL     1       4.436   4.813  18.790  0.00  0.00    +0.000 S 
ATOM     10  C   UNL     1       3.220   6.123  18.910  0.00  0.00    +0.000 A 
ATOM     11  C   UNL     1       3.235   7.063  17.875  0.00  0.00    +0.000 A 
ATOM     12  C   UNL     1       2.469   8.223  17.967  0.00  0.00    +0.000 A 
ATOM     13  C   UNL     1       1.705   8.494  19.113  0.00  0.00    +0.000 A 
ATOM     14  C   UNL     1       1.698   7.577  20.169  0.00  0.00    +0.000 A 
ATOM     15  C   UNL     1       2.423   6.368  20.049  0.00  0.00    +0.000 A 
ATOM     16  N   UNL     1       2.315   5.457  21.116  0.00  0.00    +0.000 N 
ATOM     17  H   UNL     1       2.122   5.809  22.045  0.00  0.00    +0.000 HD
ENDBRANCH   1  13
BRANCH   3  18
ATOM     18  C   UNL     1       0.052  11.788  20.158  0.00  0.00    +0.000 A 
ATOM     19  C   UNL     1       0.485  13.001  19.615  0.00  0.00    +0.000 A 
ATOM     20  C   UNL     1      -0.270  14.170  19.754  0.00  0.00    +0.000 A 
ATOM     21  C   UNL     1      -1.500  14.137  20.402  0.00  0.00    +0.000 A 
ATOM     22  C   UNL     1      -2.008  12.928  20.888  0.00  0.00    +0.000 A 
ATOM     23  C   UNL     1      -1.210  11.760  20.777  0.00  0.00    +0.000 A 
BRANCH  22  24
ATOM     24  C   UNL     1      -3.353  12.900  21.479  0.00  0.00    +0.000 A 
ATOM     25  N   UNL     1      -3.695  13.133  22.738  0.00  0.00    +0.000 NA
ATOM     26  C   UNL     1      -5.062  12.950  22.807  0.00  0.00    +0.000 A 
ATOM     27  C   UNL     1      -5.950  13.037  23.891  0.00  0.00    +0.000 A 
ATOM     28  C   UNL     1      -7.310  12.745  23.673  0.00  0.00    +0.000 A 
ATOM     29  C   UNL     1      -7.776  12.397  22.403  0.00  0.00    +0.000 A 
ATOM     30  C   UNL     1      -6.912  12.348  21.307  0.00  0.00    +0.000 A 
ATOM     31  C   UNL     1      -5.570  12.629  21.557  0.00  0.00    +0.000 A 
ATOM     32  N   UNL     1      -4.485  12.671  20.730  0.00  0.00    +0.000 N 
ATOM     33  H   UNL     1      -4.504  12.558  19.731  0.00  0.00    +0.000 HD
ENDBRANCH  22  24
ENDBRANCH   3  18
TORSDOF 3
ENDMDL
MODEL 9
REMARK VINA RESULT:      -8.9      1.705      2.140
REMARK  Name = 
REMARK  3 active torsions:
REMARK  status: ('A' for Active; 'I' for Inactive)
REMARK    1  A    between atoms: C_9  and  C_10
REMARK    2  A    between atoms: N_12  and  C_13
REMARK    3  A    between atoms: C_17  and  C_18
REMARK                            x       y       z     vdW  Elec       q    Type
REMARK                         _______ _______ _______ _____ _____    ______ ____
ROOT
ATOM      1  C   UNL     1       1.177   9.196  20.181  0.00  0.00    +0.000 C 
ATOM      2  O   UNL     1       1.217   9.539  21.358  0.00  0.00    +0.000 OA
ATOM      3  N   UNL     1       0.595   9.923  19.145  0.00  0.00    +0.000 N 
ATOM      4  H   UNL     1       0.454   9.455  18.260  0.00  0.00    +0.000 HD
ENDROOT
BRANCH   1  13
ATOM      5  O   UNL     1       1.828   2.336  21.966  0.00  0.00    +0.000 OA
ATOM      6  C   UNL     1       1.753   3.160  21.054  0.00  0.00    +0.000 C 
ATOM      7  C   UNL     1       1.171   2.797  19.710  0.00  0.00    +0.000 C 
ATOM      8  C   UNL     1       2.214   2.562  18.644  0.00  0.00    +0.000 C 
ATOM      9  S   UNL     1       3.486   3.846  18.459  0.00  0.00    +0.000 S 
ATOM     10  C   UNL     1       2.642   5.320  19.028  0.00  0.00    +0.000 A 
ATOM     11  C   UNL     1       2.649   6.404  18.145  0.00  0.00    +0.000 A 
ATOM     12  C   UNL     1       2.196   7.654  18.561  0.00  0.00    +0.000 A 
ATOM     13  C   UNL     1       1.766   7.862  19.881  0.00  0.00    +0.000 A 
ATOM     14  C   UNL     1       1.776   6.796  20.786  0.00  0.00    +0.000 A 
ATOM     15  C   UNL     1       2.175   5.511  20.346  0.00  0.00    +0.000 A 
ATOM     16  N   UNL     1       2.091   4.467  21.286  0.00  0.00    +0.000 N 
ATOM     17  H   UNL     1       2.178   4.684  22.270  0.00  0.00    +0.000 HD
ENDBRANCH   1  13
BRANCH   3  18
ATOM     18  C   UNL     1      -0.021  11.202  19.309  0.00  0.00    +0.000 A 
ATOM     19  C   UNL     1       0.473  12.364  18.712  0.00  0.00    +0.000 A 
ATOM     20  C   UNL     1      -0.104  13.613  18.962  0.00  0.00    +0.000 A 
ATOM     21  C   UNL     1      -1.221  13.717  19.783  0.00  0.00    +0.000 A 
ATOM     22  C   UNL     1      -1.797  12.569  20.336  0.00  0.00    +0.000 A 
ATOM     23  C   UNL     1      -1.173  11.315  20.107  0.00  0.00    +0.000 A 
BRANCH  22  24
ATOM     24  C   UNL     1      -3.035  12.692  21.118  0.00  0.00    +0.000 A 
ATOM     25  N   UNL     1      -3.159  12.882  22.424  0.00  0.00    +0.000 NA
ATOM     26  C   UNL     1      -4.514  12.892  22.687  0.00  0.00    +0.000 A 
ATOM     27  C   UNL     1      -5.219  13.028  23.893  0.00  0.00    +0.000 A 
ATOM     28  C   UNL     1      -6.624  12.951  23.865  0.00  0.00    +0.000 A 
ATOM     29  C   UNL     1      -7.310  12.764  22.663  0.00  0.00    +0.000 A 
ATOM     30  C   UNL     1      -6.625  12.670  21.449  0.00  0.00    +0.000 A 
ATOM     31  C   UNL     1      -5.234  12.737  21.511  0.00  0.00    +0.000 A 
ATOM     32  N   UNL     1      -4.282  12.681  20.535  0.00  0.00    +0.000 N 
ATOM     33  H   UNL     1      -4.458  12.643  19.546  0.00  0.00    +0.000 HD
ENDBRANCH  22  24
ENDBRANCH   3  18
TORSDOF 3
ENDMDL
