MODEL 1
REMARK VINA RESULT:      -9.1      0.000      0.000
REMARK  Name = 
REMARK  3 active torsions:
REMARK  status: ('A' for Active; 'I' for Inactive)
REMARK    1  A    between atoms: C_4  and  C_5
REMARK    2  A    between atoms: N_7  and  C_8
REMARK    3  A    between atoms: C_11  and  C_12
REMARK                            x       y       z     vdW  Elec       q    Type
REMARK                         _______ _______ _______ _____ _____    ______ ____
ROOT
ATOM      1  C   UNL     1       2.507   4.657  17.780  0.00  0.00    +0.000 C 
ATOM      2  O   UNL     1       1.321   4.415  17.992  0.00  0.00    +0.000 OA
ATOM      3  N   UNL     1       3.106   5.895  17.982  0.00  0.00    +0.000 N 
ATOM      4  H   UNL     1       4.012   6.053  17.563  0.00  0.00    +0.000 HD
ENDROOT
BRANCH   1   8
ATOM      5  O   UNL     1       4.090   2.261  20.486  0.00  0.00    +0.000 OA
ATOM      6  C   UNL     1       4.324   2.756  19.386  0.00  0.00    +0.000 C 
ATOM      7  C   UNL     1       3.540   2.395  18.141  0.00  0.00    +0.000 C 
ATOM      8  C   UNL     1       3.438   3.589  17.186  0.00  0.00    +0.000 C 
ATOM      9  C   UNL     1       4.822   4.137  16.923  0.00  0.00    +0.000 A 
ATOM     10  C   UNL     1       5.170   4.705  15.690  0.00  0.00    +0.000 A 
ATOM     11  C   UNL     1       6.414   5.313  15.530  0.00  0.00    +0.000 A 
ATOM     12  C   UNL     1       7.317   5.353  16.593  0.00  0.00    +0.000 A 
ATOM     13  C   UNL     1       6.984   4.776  17.820  0.00  0.00    +0.000 A 
ATOM     14  C   UNL     1       5.746   4.160  17.975  0.00  0.00    +0.000 A 
ATOM     15  N   UNL     1       5.414   3.567  19.196  0.00  0.00    +0.000 N 
ATOM     16  H   UNL     1       6.005   3.696  20.008  0.00  0.00    +0.000 HD
ENDBRANCH   1   8
BRANCH   3  17
ATOM     17  C   UNL     1       2.495   7.004  18.605  0.00  0.00    +0.000 A 
ATOM     18  C   UNL     1       2.191   7.026  19.969  0.00  0.00    +0.000 A 
ATOM     19  C   UNL     1       1.520   8.109  20.537  0.00  0.00    +0.000 A 
ATOM     20  C   UNL     1       1.146   9.205  19.754  0.00  0.00    +0.000 A 
ATOM     21  C   UNL     1       1.504   9.213  18.394  0.00  0.00    +0.000 A 
ATOM     22  C   UNL     1       2.186   8.127  17.827  0.00  0.00    +0.000 A 
BRANCH  20  23
ATOM     23  C   UNL     1       0.360  10.344  20.355  0.00  0.00    +0.000 C 
ATOM     24  F   UNL     1      -0.593  10.849  19.522  0.00  0.00    +0.000 F 
ATOM     25  F   UNL     1      -0.295   9.984  21.493  0.00  0.00    +0.000 F 
ATOM     26  F   UNL     1       1.153  11.397  20.696  0.00  0.00    +0.000 F 
ENDBRANCH  20  23
ENDBRANCH   3  17
TORSDOF 3
ENDMDL
MODEL 2
REMARK VINA RESULT:      -9.0      0.405      1.339
REMARK  Name = 
REMARK  3 active torsions:
REMARK  status: ('A' for Active; 'I' for Inactive)
REMARK    1  A    between atoms: C_4  and  C_5
REMARK    2  A    between atoms: N_7  and  C_8
REMARK    3  A    between atoms: C_11  and  C_12
REMARK                            x       y       z     vdW  Elec       q    Type
REMARK                         _______ _______ _______ _____ _____    ______ ____
ROOT
ATOM      1  C   UNL     1       2.506   4.536  17.613  0.00  0.00    +0.000 C 
ATOM      2  O   UNL     1       1.291   4.346  17.635  0.00  0.00    +0.000 OA
ATOM      3  N   UNL     1       3.120   5.735  17.953  0.00  0.00    +0.000 N 
ATOM      4  H   UNL     1       4.085   5.863  17.681  0.00  0.00    +0.000 HD
ENDROOT
BRANCH   1   8
ATOM      5  O   UNL     1       4.014   2.335  20.519  0.00  0.00    +0.000 OA
ATOM      6  C   UNL     1       4.282   2.762  19.399  0.00  0.00    +0.000 C 
ATOM      7  C   UNL     1       3.548   2.315  18.152  0.00  0.00    +0.000 C 
ATOM      8  C   UNL     1       3.469   3.445  17.121  0.00  0.00    +0.000 C 
ATOM      9  C   UNL     1       4.855   3.993  16.873  0.00  0.00    +0.000 A 
ATOM     10  C   UNL     1       5.242   4.486  15.620  0.00  0.00    +0.000 A 
ATOM     11  C   UNL     1       6.485   5.099  15.466  0.00  0.00    +0.000 A 
ATOM     12  C   UNL     1       7.348   5.217  16.556  0.00  0.00    +0.000 A 
ATOM     13  C   UNL     1       6.977   4.714  17.804  0.00  0.00    +0.000 A 
ATOM     14  C   UNL     1       5.740   4.093  17.954  0.00  0.00    +0.000 A 
ATOM     15  N   UNL     1       5.370   3.574  19.198  0.00  0.00    +0.000 N 
ATOM     16  H   UNL     1       5.930   3.760  20.019  0.00  0.00    +0.000 HD
ENDBRANCH   1   8
BRANCH   3  17
ATOM     17  C   UNL     1       2.470   6.852  18.523  0.00  0.00    +0.000 A 
ATOM     18  C   UNL     1       2.123   7.980  17.776  0.00  0.00    +0.000 A 
ATOM     19  C   UNL     1       1.549   9.096  18.386  0.00  0.00    +0.000 A 
ATOM     20  C   UNL     1       1.298   9.104  19.761  0.00  0.00    +0.000 A 
ATOM     21  C   UNL     1       1.591   7.947  20.505  0.00  0.00    +0.000 A 
ATOM     22  C   UNL     1       2.160   6.824  19.888  0.00  0.00    +0.000 A 
BRANCH  20  23
ATOM     23  C   UNL     1       0.741  10.336  20.431  0.00  0.00    +0.000 C 
ATOM     24  F   UNL     1       0.970  10.377  21.774  0.00  0.00    +0.000 F 
ATOM     25  F   UNL     1       1.266  11.487  19.928  0.00  0.00    +0.000 F 
ATOM     26  F   UNL     1      -0.608  10.443  20.281  0.00  0.00    +0.000 F 
ENDBRANCH  20  23
ENDBRANCH   3  17
TORSDOF 3
ENDMDL
MODEL 3
REMARK VINA RESULT:      -8.9      1.045      1.564
REMARK  Name = 
REMARK  3 active torsions:
REMARK  status: ('A' for Active; 'I' for Inactive)
REMARK    1  A    between atoms: C_4  and  C_5
REMARK    2  A    between atoms: N_7  and  C_8
REMARK    3  A    between atoms: C_11  and  C_12
REMARK                            x       y       z     vdW  Elec       q    Type
REMARK                         _______ _______ _______ _____ _____    ______ ____
ROOT
ATOM      1  C   UNL     1       2.979   5.510  17.751  0.00  0.00    +0.000 C 
ATOM      2  O   UNL     1       1.873   4.983  17.852  0.00  0.00    +0.000 OA
ATOM      3  N   UNL     1       3.258   6.826  18.097  0.00  0.00    +0.000 N 
ATOM      4  H   UNL     1       4.122   7.228  17.762  0.00  0.00    +0.000 HD
ENDROOT
BRANCH   1   8
ATOM      5  O   UNL     1       3.962   2.260  19.760  0.00  0.00    +0.000 OA
ATOM      6  C   UNL     1       4.451   3.136  19.051  0.00  0.00    +0.000 C 
ATOM      7  C   UNL     1       4.122   3.279  17.579  0.00  0.00    +0.000 C 
ATOM      8  C   UNL     1       4.166   4.747  17.143  0.00  0.00    +0.000 C 
ATOM      9  C   UNL     1       5.489   5.351  17.555  0.00  0.00    +0.000 A 
ATOM     10  C   UNL     1       6.117   6.345  16.793  0.00  0.00    +0.000 A 
ATOM     11  C   UNL     1       7.270   6.965  17.272  0.00  0.00    +0.000 A 
ATOM     12  C   UNL     1       7.804   6.595  18.507  0.00  0.00    +0.000 A 
ATOM     13  C   UNL     1       7.193   5.595  19.266  0.00  0.00    +0.000 A 
ATOM     14  C   UNL     1       6.048   4.968  18.781  0.00  0.00    +0.000 A 
ATOM     15  N   UNL     1       5.442   3.955  19.529  0.00  0.00    +0.000 N 
ATOM     16  H   UNL     1       5.745   3.764  20.475  0.00  0.00    +0.000 HD
ENDBRANCH   1   8
BRANCH   3  17
ATOM     17  C   UNL     1       2.370   7.700  18.761  0.00  0.00    +0.000 A 
ATOM     18  C   UNL     1       1.787   8.802  18.129  0.00  0.00    +0.000 A 
ATOM     19  C   UNL     1       0.973   9.687  18.835  0.00  0.00    +0.000 A 
ATOM     20  C   UNL     1       0.712   9.484  20.193  0.00  0.00    +0.000 A 
ATOM     21  C   UNL     1       1.247   8.343  20.818  0.00  0.00    +0.000 A 
ATOM     22  C   UNL     1       2.058   7.450  20.103  0.00  0.00    +0.000 A 
BRANCH  20  23
ATOM     23  C   UNL     1      -0.113  10.479  20.971  0.00  0.00    +0.000 C 
ATOM     24  F   UNL     1      -1.189  10.954  20.282  0.00  0.00    +0.000 F 
ATOM     25  F   UNL     1      -0.612   9.956  22.125  0.00  0.00    +0.000 F 
ATOM     26  F   UNL     1       0.606  11.576  21.338  0.00  0.00    +0.000 F 
ENDBRANCH  20  23
ENDBRANCH   3  17
TORSDOF 3
ENDMDL
MODEL 4
REMARK VINA RESULT:      -8.9      1.074      1.422
REMARK  Name = 
REMARK  3 active torsions:
REMARK  status: ('A' for Active; 'I' for Inactive)
REMARK    1  A    between atoms: C_4  and  C_5
REMARK    2  A    between atoms: N_7  and  C_8
REMARK    3  A    between atoms: C_11  and  C_12
REMARK                            x       y       z     vdW  Elec       q    Type
REMARK                         _______ _______ _______ _____ _____    ______ ____
ROOT
ATOM      1  C   UNL     1       2.997   5.576  17.718  0.00  0.00    +0.000 C 
ATOM      2  O   UNL     1       1.886   5.072  17.868  0.00  0.00    +0.000 OA
ATOM      3  N   UNL     1       3.298   6.908  17.974  0.00  0.00    +0.000 N 
ATOM      4  H   UNL     1       4.163   7.275  17.602  0.00  0.00    +0.000 HD
ENDROOT
BRANCH   1   8
ATOM      5  O   UNL     1       3.857   2.359  19.834  0.00  0.00    +0.000 OA
ATOM      6  C   UNL     1       4.381   3.197  19.104  0.00  0.00    +0.000 C 
ATOM      7  C   UNL     1       4.070   3.306  17.626  0.00  0.00    +0.000 C 
ATOM      8  C   UNL     1       4.165   4.758  17.145  0.00  0.00    +0.000 C 
ATOM      9  C   UNL     1       5.503   5.333  17.553  0.00  0.00    +0.000 A 
ATOM     10  C   UNL     1       6.169   6.282  16.768  0.00  0.00    +0.000 A 
ATOM     11  C   UNL     1       7.336   6.881  17.240  0.00  0.00    +0.000 A 
ATOM     12  C   UNL     1       7.847   6.531  18.491  0.00  0.00    +0.000 A 
ATOM     13  C   UNL     1       7.197   5.574  19.272  0.00  0.00    +0.000 A 
ATOM     14  C   UNL     1       6.038   4.970  18.795  0.00  0.00    +0.000 A 
ATOM     15  N   UNL     1       5.393   4.000  19.567  0.00  0.00    +0.000 N 
ATOM     16  H   UNL     1       5.681   3.827  20.522  0.00  0.00    +0.000 HD
ENDBRANCH   1   8
BRANCH   3  17
ATOM     17  C   UNL     1       2.432   7.836  18.591  0.00  0.00    +0.000 A 
ATOM     18  C   UNL     1       2.055   7.734  19.933  0.00  0.00    +0.000 A 
ATOM     19  C   UNL     1       1.139   8.625  20.491  0.00  0.00    +0.000 A 
ATOM     20  C   UNL     1       0.584   9.651  19.720  0.00  0.00    +0.000 A 
ATOM     21  C   UNL     1       1.007   9.793  18.386  0.00  0.00    +0.000 A 
ATOM     22  C   UNL     1       1.935   8.901  17.830  0.00  0.00    +0.000 A 
BRANCH  20  23
ATOM     23  C   UNL     1      -0.458  10.571  20.306  0.00  0.00    +0.000 C 
ATOM     24  F   UNL     1      -0.024  11.854  20.464  0.00  0.00    +0.000 F 
ATOM     25  F   UNL     1      -1.578  10.650  19.536  0.00  0.00    +0.000 F 
ATOM     26  F   UNL     1      -0.877  10.165  21.536  0.00  0.00    +0.000 F 
ENDBRANCH  20  23
ENDBRANCH   3  17
TORSDOF 3
ENDMDL
MODEL 5
REMARK VINA RESULT:      -8.4      1.293      1.689
REMARK  Name = 
REMARK  3 active torsions:
REMARK  status: ('A' for Active; 'I' for Inactive)
REMARK    1  A    between atoms: C_4  and  C_5
REMARK    2  A    between atoms: N_7  and  C_8
REMARK    3  A    between atoms: C_11  and  C_12
REMARK                            x       y       z     vdW  Elec       q    Type
REMARK                         _______ _______ _______ _____ _____    ______ ____
ROOT
ATOM      1  C   UNL     1       2.877   5.882  18.196  0.00  0.00    +0.000 C 
ATOM      2  O   UNL     1       2.074   5.214  18.845  0.00  0.00    +0.000 OA
ATOM      3  N   UNL     1       2.902   7.271  18.167  0.00  0.00    +0.000 N 
ATOM      4  H   UNL     1       3.436   7.717  17.434  0.00  0.00    +0.000 HD
ENDROOT
BRANCH   1   8
ATOM      5  O   UNL     1       3.886   2.249  19.356  0.00  0.00    +0.000 OA
ATOM      6  C   UNL     1       4.335   3.229  18.766  0.00  0.00    +0.000 C 
ATOM      7  C   UNL     1       3.814   3.685  17.419  0.00  0.00    +0.000 C 
ATOM      8  C   UNL     1       3.906   5.207  17.277  0.00  0.00    +0.000 C 
ATOM      9  C   UNL     1       5.316   5.655  17.593  0.00  0.00    +0.000 A 
ATOM     10  C   UNL     1       5.903   6.754  16.953  0.00  0.00    +0.000 A 
ATOM     11  C   UNL     1       7.155   7.211  17.363  0.00  0.00    +0.000 A 
ATOM     12  C   UNL     1       7.828   6.571  18.405  0.00  0.00    +0.000 A 
ATOM     13  C   UNL     1       7.256   5.465  19.037  0.00  0.00    +0.000 A 
ATOM     14  C   UNL     1       6.011   5.004  18.620  0.00  0.00    +0.000 A 
ATOM     15  N   UNL     1       5.441   3.887  19.238  0.00  0.00    +0.000 N 
ATOM     16  H   UNL     1       5.859   3.493  20.071  0.00  0.00    +0.000 HD
ENDBRANCH   1   8
BRANCH   3  17
ATOM     17  C   UNL     1       2.129   8.119  18.991  0.00  0.00    +0.000 A 
ATOM     18  C   UNL     1       1.907   7.851  20.344  0.00  0.00    +0.000 A 
ATOM     19  C   UNL     1       1.077   8.669  21.110  0.00  0.00    +0.000 A 
ATOM     20  C   UNL     1       0.457   9.786  20.541  0.00  0.00    +0.000 A 
ATOM     21  C   UNL     1       0.728  10.093  19.196  0.00  0.00    +0.000 A 
ATOM     22  C   UNL     1       1.569   9.273  18.430  0.00  0.00    +0.000 A 
BRANCH  20  23
ATOM     23  C   UNL     1      -0.493  10.631  21.353  0.00  0.00    +0.000 C 
ATOM     24  F   UNL     1      -1.060   9.964  22.398  0.00  0.00    +0.000 F 
ATOM     25  F   UNL     1       0.111  11.724  21.894  0.00  0.00    +0.000 F 
ATOM     26  F   UNL     1      -1.530  11.106  20.609  0.00  0.00    +0.000 F 
ENDBRANCH  20  23
ENDBRANCH   3  17
TORSDOF 3
ENDMDL
MODEL 6
REMARK VINA RESULT:      -8.3      1.872      2.283
REMARK  Name = 
REMARK  3 active torsions:
REMARK  status: ('A' for Active; 'I' for Inactive)
REMARK    1  A    between atoms: C_4  and  C_5
REMARK    2  A    between atoms: N_7  and  C_8
REMARK    3  A    between atoms: C_11  and  C_12
REMARK                            x       y       z     vdW  Elec       q    Type
REMARK                         _______ _______ _______ _____ _____    ______ ____
ROOT
ATOM      1  C   UNL     1       4.043   6.230  17.979  0.00  0.00    +0.000 C 
ATOM      2  O   UNL     1       4.608   7.174  17.429  0.00  0.00    +0.000 OA
ATOM      3  N   UNL     1       2.943   6.354  18.819  0.00  0.00    +0.000 N 
ATOM      4  H   UNL     1       2.701   5.562  19.398  0.00  0.00    +0.000 HD
ENDROOT
BRANCH   1   8
ATOM      5  O   UNL     1       7.310   5.533  20.078  0.00  0.00    +0.000 OA
ATOM      6  C   UNL     1       6.739   5.188  19.046  0.00  0.00    +0.000 C 
ATOM      7  C   UNL     1       5.428   4.428  19.048  0.00  0.00    +0.000 C 
ATOM      8  C   UNL     1       4.573   4.796  17.832  0.00  0.00    +0.000 C 
ATOM      9  C   UNL     1       5.396   4.631  16.574  0.00  0.00    +0.000 A 
ATOM     10  C   UNL     1       4.820   4.228  15.362  0.00  0.00    +0.000 A 
ATOM     11  C   UNL     1       5.588   4.211  14.199  0.00  0.00    +0.000 A 
ATOM     12  C   UNL     1       6.931   4.587  14.239  0.00  0.00    +0.000 A 
ATOM     13  C   UNL     1       7.516   4.975  15.446  0.00  0.00    +0.000 A 
ATOM     14  C   UNL     1       6.751   4.981  16.609  0.00  0.00    +0.000 A 
ATOM     15  N   UNL     1       7.336   5.353  17.822  0.00  0.00    +0.000 N 
ATOM     16  H   UNL     1       8.269   5.744  17.844  0.00  0.00    +0.000 HD
ENDBRANCH   1   8
BRANCH   3  17
ATOM     17  C   UNL     1       2.214   7.543  19.039  0.00  0.00    +0.000 A 
ATOM     18  C   UNL     1       1.753   7.918  20.304  0.00  0.00    +0.000 A 
ATOM     19  C   UNL     1       0.973   9.062  20.473  0.00  0.00    +0.000 A 
ATOM     20  C   UNL     1       0.643   9.866  19.378  0.00  0.00    +0.000 A 
ATOM     21  C   UNL     1       1.156   9.525  18.114  0.00  0.00    +0.000 A 
ATOM     22  C   UNL     1       1.947   8.380  17.948  0.00  0.00    +0.000 A 
BRANCH  20  23
ATOM     23  C   UNL     1      -0.258  11.064  19.552  0.00  0.00    +0.000 C 
ATOM     24  F   UNL     1      -1.011  11.020  20.687  0.00  0.00    +0.000 F 
ATOM     25  F   UNL     1       0.435  12.235  19.611  0.00  0.00    +0.000 F 
ATOM     26  F   UNL     1      -1.141  11.203  18.525  0.00  0.00    +0.000 F 
ENDBRANCH  20  23
ENDBRANCH   3  17
TORSDOF 3
ENDMDL
MODEL 7
REMARK VINA RESULT:      -8.2      1.854      2.421
REMARK  Name = 
REMARK  3 active torsions:
REMARK  status: ('A' for Active; 'I' for Inactive)
REMARK    1  A    between atoms: C_4  and  C_5
REMARK    2  A    between atoms: N_7  and  C_8
REMARK    3  A    between atoms: C_11  and  C_12
REMARK                            x       y       z     vdW  Elec       q    Type
REMARK                         _______ _______ _______ _____ _____    ______ ____
ROOT
ATOM      1  C   UNL     1       4.041   6.231  17.936  0.00  0.00    +0.000 C 
ATOM      2  O   UNL     1       4.628   7.174  17.411  0.00  0.00    +0.000 OA
ATOM      3  N   UNL     1       2.919   6.356  18.747  0.00  0.00    +0.000 N 
ATOM      4  H   UNL     1       2.656   5.561  19.312  0.00  0.00    +0.000 HD
ENDROOT
BRANCH   1   8
ATOM      5  O   UNL     1       7.295   5.516  20.049  0.00  0.00    +0.000 OA
ATOM      6  C   UNL     1       6.726   5.175  19.014  0.00  0.00    +0.000 C 
ATOM      7  C   UNL     1       5.412   4.422  19.011  0.00  0.00    +0.000 C 
ATOM      8  C   UNL     1       4.564   4.794  17.791  0.00  0.00    +0.000 C 
ATOM      9  C   UNL     1       5.391   4.624  16.537  0.00  0.00    +0.000 A 
ATOM     10  C   UNL     1       4.818   4.225  15.323  0.00  0.00    +0.000 A 
ATOM     11  C   UNL     1       5.590   4.203  14.162  0.00  0.00    +0.000 A 
ATOM     12  C   UNL     1       6.935   4.573  14.208  0.00  0.00    +0.000 A 
ATOM     13  C   UNL     1       7.518   4.957  15.417  0.00  0.00    +0.000 A 
ATOM     14  C   UNL     1       6.748   4.968  16.577  0.00  0.00    +0.000 A 
ATOM     15  N   UNL     1       7.330   5.336  17.793  0.00  0.00    +0.000 N 
ATOM     16  H   UNL     1       8.265   5.722  17.819  0.00  0.00    +0.000 HD
ENDBRANCH   1   8
BRANCH   3  17
ATOM     17  C   UNL     1       2.193   7.549  18.957  0.00  0.00    +0.000 A 
ATOM     18  C   UNL     1       1.897   8.440  17.922  0.00  0.00    +0.000 A 
ATOM     19  C   UNL     1       1.243   9.645  18.177  0.00  0.00    +0.000 A 
ATOM     20  C   UNL     1       0.858   9.983  19.478  0.00  0.00    +0.000 A 
ATOM     21  C   UNL     1       1.101   9.062  20.513  0.00  0.00    +0.000 A 
ATOM     22  C   UNL     1       1.751   7.848  20.252  0.00  0.00    +0.000 A 
BRANCH  20  23
ATOM     23  C   UNL     1       0.212  11.317  19.763  0.00  0.00    +0.000 C 
ATOM     24  F   UNL     1      -0.984  11.217  20.408  0.00  0.00    +0.000 F 
ATOM     25  F   UNL     1       0.989  12.118  20.544  0.00  0.00    +0.000 F 
ATOM     26  F   UNL     1      -0.035  12.027  18.628  0.00  0.00    +0.000 F 
ENDBRANCH  20  23
ENDBRANCH   3  17
TORSDOF 3
ENDMDL
MODEL 8
REMARK VINA RESULT:      -7.8      2.113      3.801
REMARK  Name = 
REMARK  3 active torsions:
REMARK  status: ('A' for Active; 'I' for Inactive)
REMARK    1  A    between atoms: C_4  and  C_5
REMARK    2  A    between atoms: N_7  and  C_8
REMARK    3  A    between atoms: C_11  and  C_12
REMARK                            x       y       z     vdW  Elec       q    Type
REMARK                         _______ _______ _______ _____ _____    ______ ____
ROOT
ATOM      1  C   UNL     1       3.630   6.289  18.924  0.00  0.00    +0.000 C 
ATOM      2  O   UNL     1       4.117   6.901  17.976  0.00  0.00    +0.000 OA
ATOM      3  N   UNL     1       2.629   6.787  19.751  0.00  0.00    +0.000 N 
ATOM      4  H   UNL     1       2.465   6.313  20.628  0.00  0.00    +0.000 HD
ENDROOT
BRANCH   1   8
ATOM      5  O   UNL     1       4.837   4.109  15.865  0.00  0.00    +0.000 OA
ATOM      6  C   UNL     1       4.351   4.003  16.989  0.00  0.00    +0.000 C 
ATOM      7  C   UNL     1       5.107   4.373  18.248  0.00  0.00    +0.000 C 
ATOM      8  C   UNL     1       4.158   4.904  19.327  0.00  0.00    +0.000 C 
ATOM      9  C   UNL     1       3.034   3.915  19.535  0.00  0.00    +0.000 A 
ATOM     10  C   UNL     1       2.437   3.727  20.788  0.00  0.00    +0.000 A 
ATOM     11  C   UNL     1       1.321   2.901  20.911  0.00  0.00    +0.000 A 
ATOM     12  C   UNL     1       0.800   2.255  19.788  0.00  0.00    +0.000 A 
ATOM     13  C   UNL     1       1.398   2.425  18.539  0.00  0.00    +0.000 A 
ATOM     14  C   UNL     1       2.519   3.242  18.420  0.00  0.00    +0.000 A 
ATOM     15  N   UNL     1       3.132   3.403  17.174  0.00  0.00    +0.000 N 
ATOM     16  H   UNL     1       2.694   3.042  16.336  0.00  0.00    +0.000 HD
ENDBRANCH   1   8
BRANCH   3  17
ATOM     17  C   UNL     1       1.915   7.985  19.536  0.00  0.00    +0.000 A 
ATOM     18  C   UNL     1       1.256   8.661  20.566  0.00  0.00    +0.000 A 
ATOM     19  C   UNL     1       0.498   9.802  20.306  0.00  0.00    +0.000 A 
ATOM     20  C   UNL     1       0.389  10.302  19.005  0.00  0.00    +0.000 A 
ATOM     21  C   UNL     1       1.100   9.660  17.975  0.00  0.00    +0.000 A 
ATOM     22  C   UNL     1       1.869   8.518  18.241  0.00  0.00    +0.000 A 
BRANCH  20  23
ATOM     23  C   UNL     1      -0.487  11.496  18.714  0.00  0.00    +0.000 C 
ATOM     24  F   UNL     1      -1.228  11.902  19.783  0.00  0.00    +0.000 F 
ATOM     25  F   UNL     1       0.228  12.586  18.321  0.00  0.00    +0.000 F 
ATOM     26  F   UNL     1      -1.379  11.254  17.714  0.00  0.00    +0.000 F 
ENDBRANCH  20  23
ENDBRANCH   3  17
TORSDOF 3
ENDMDL
MODEL 9
REMARK VINA RESULT:      -7.8      2.143      3.857
REMARK  Name = 
REMARK  3 active torsions:
REMARK  status: ('A' for Active; 'I' for Inactive)
REMARK    1  A    between atoms: C_4  and  C_5
REMARK    2  A    between atoms: N_7  and  C_8
REMARK    3  A    between atoms: C_11  and  C_12
REMARK                            x       y       z     vdW  Elec       q    Type
REMARK                         _______ _______ _______ _____ _____    ______ ____
ROOT
ATOM      1  C   UNL     1       3.704   6.258  18.933  0.00  0.00    +0.000 C 
ATOM      2  O   UNL     1       4.255   6.874  18.023  0.00  0.00    +0.000 OA
ATOM      3  N   UNL     1       2.654   6.754  19.696  0.00  0.00    +0.000 N 
ATOM      4  H   UNL     1       2.431   6.275  20.557  0.00  0.00    +0.000 HD
ENDROOT
BRANCH   1   8
ATOM      5  O   UNL     1       4.946   4.033  15.920  0.00  0.00    +0.000 OA
ATOM      6  C   UNL     1       4.432   3.944  17.033  0.00  0.00    +0.000 C 
ATOM      7  C   UNL     1       5.164   4.311  18.307  0.00  0.00    +0.000 C 
ATOM      8  C   UNL     1       4.199   4.867  19.359  0.00  0.00    +0.000 C 
ATOM      9  C   UNL     1       3.053   3.899  19.547  0.00  0.00    +0.000 A 
ATOM     10  C   UNL     1       2.424   3.731  20.787  0.00  0.00    +0.000 A 
ATOM     11  C   UNL     1       1.291   2.925  20.890  0.00  0.00    +0.000 A 
ATOM     12  C   UNL     1       0.786   2.279  19.760  0.00  0.00    +0.000 A 
ATOM     13  C   UNL     1       1.416   2.429  18.524  0.00  0.00    +0.000 A 
ATOM     14  C   UNL     1       2.554   3.226  18.425  0.00  0.00    +0.000 A 
ATOM     15  N   UNL     1       3.198   3.366  17.193  0.00  0.00    +0.000 N 
ATOM     16  H   UNL     1       2.774   3.006  16.348  0.00  0.00    +0.000 HD
ENDBRANCH   1   8
BRANCH   3  17
ATOM     17  C   UNL     1       1.961   7.958  19.444  0.00  0.00    +0.000 A 
ATOM     18  C   UNL     1       1.873   8.521  18.168  0.00  0.00    +0.000 A 
ATOM     19  C   UNL     1       1.243   9.749  17.968  0.00  0.00    +0.000 A 
ATOM     20  C   UNL     1       0.674  10.440  19.041  0.00  0.00    +0.000 A 
ATOM     21  C   UNL     1       0.706   9.847  20.316  0.00  0.00    +0.000 A 
ATOM     22  C   UNL     1       1.333   8.608  20.514  0.00  0.00    +0.000 A 
BRANCH  20  23
ATOM     23  C   UNL     1       0.053  11.800  18.834  0.00  0.00    +0.000 C 
ATOM     24  F   UNL     1       0.919  12.723  18.329  0.00  0.00    +0.000 F 
ATOM     25  F   UNL     1      -1.001  11.768  17.973  0.00  0.00    +0.000 F 
ATOM     26  F   UNL     1      -0.426  12.333  19.992  0.00  0.00    +0.000 F 
ENDBRANCH  20  23
ENDBRANCH   3  17
TORSDOF 3
ENDMDL
