MODEL 1
REMARK VINA RESULT:      -8.7      0.000      0.000
REMARK  Name = 
REMARK  3 active torsions:
REMARK  status: ('A' for Active; 'I' for Inactive)
REMARK    1  A    between atoms: C_2  and  C_3
REMARK    2  A    between atoms: C_5  and  C_6
REMARK    3  A    between atoms: C_19  and  C_20
REMARK                            x       y       z     vdW  Elec       q    Type
REMARK                         _______ _______ _______ _____ _____    ______ ____
ROOT
ATOM      1  O   UNL     1       4.502   6.176  20.041  0.00  0.00    +0.000 OA
ATOM      2  C   UNL     1       3.482   6.182  19.345  0.00  0.00    +0.000 C 
ATOM      3  N   UNL     1       3.234   5.117  18.474  0.00  0.00    +0.000 N 
ATOM      4  C   UNL     1       2.029   4.874  17.701  0.00  0.00    +0.000 C 
ATOM      5  C   UNL     1       1.826   3.374  17.738  0.00  0.00    +0.000 C 
ATOM      6  C   UNL     1       3.232   2.814  17.842  0.00  0.00    +0.000 C 
ATOM      7  C   UNL     1       4.030   3.896  18.595  0.00  0.00    +0.000 C 
ENDROOT
BRANCH   7   8
ATOM      8  C   UNL     1       5.397   4.026  18.004  0.00  0.00    +0.000 A 
ATOM      9  N   UNL     1       6.530   4.158  18.674  0.00  0.00    +0.000 NA
ATOM     10  N   UNL     1       7.532   4.464  17.785  0.00  0.00    +0.000 NA
ATOM     11  C   UNL     1       6.999   4.508  16.582  0.00  0.00    +0.000 A 
ATOM     12  C   UNL     1       7.542   4.813  15.300  0.00  0.00    +0.000 A 
ATOM     13  C   UNL     1       6.744   4.783  14.216  0.00  0.00    +0.000 A 
ATOM     14  C   UNL     1       5.335   4.434  14.324  0.00  0.00    +0.000 A 
ATOM     15  C   UNL     1       4.819   4.155  15.533  0.00  0.00    +0.000 A 
ATOM     16  N   UNL     1       5.648   4.200  16.656  0.00  0.00    +0.000 N 
ENDBRANCH   7   8
BRANCH   2  17
ATOM     17  C   UNL     1       2.445   7.234  19.503  0.00  0.00    +0.000 A 
ATOM     18  C   UNL     1       1.618   7.549  20.620  0.00  0.00    +0.000 A 
ATOM     19  C   UNL     1       0.992   8.745  20.327  0.00  0.00    +0.000 A 
ATOM     20  N   UNL     1       1.340   8.996  19.028  0.00  0.00    +0.000 N 
ATOM     21  N   UNL     1       2.212   8.116  18.510  0.00  0.00    +0.000 NA
ATOM     22  H   UNL     1       1.054   9.778  18.448  0.00  0.00    +0.000 HD
BRANCH  19  23
ATOM     23  C   UNL     1       0.172   9.629  21.148  0.00  0.00    +0.000 A 
ATOM     24  C   UNL     1      -0.376  10.796  20.588  0.00  0.00    +0.000 A 
ATOM     25  C   UNL     1      -1.144  11.669  21.366  0.00  0.00    +0.000 A 
ATOM     26  C   UNL     1      -1.364  11.374  22.704  0.00  0.00    +0.000 A 
ATOM     27  F   UNL     1      -2.084  12.217  23.456  0.00  0.00    +0.000 F 
ATOM     28  C   UNL     1      -0.846  10.218  23.275  0.00  0.00    +0.000 A 
ATOM     29  C   UNL     1      -0.082   9.343  22.497  0.00  0.00    +0.000 A 
ENDBRANCH  19  23
ENDBRANCH   2  17
TORSDOF 3
ENDMDL
MODEL 2
REMARK VINA RESULT:      -8.6      4.807      7.153
REMARK  Name = 
REMARK  3 active torsions:
REMARK  status: ('A' for Active; 'I' for Inactive)
REMARK    1  A    between atoms: C_2  and  C_3
REMARK    2  A    between atoms: C_5  and  C_6
REMARK    3  A    between atoms: C_19  and  C_20
REMARK                            x       y       z     vdW  Elec       q    Type
REMARK                         _______ _______ _______ _____ _____    ______ ____
ROOT
ATOM      1  O   UNL     1       4.771   6.176  18.356  0.00  0.00    +0.000 OA
ATOM      2  C   UNL     1       5.856   6.044  17.781  0.00  0.00    +0.000 C 
ATOM      3  N   UNL     1       5.999   5.066  16.791  0.00  0.00    +0.000 N 
ATOM      4  C   UNL     1       7.135   4.866  15.908  0.00  0.00    +0.000 C 
ATOM      5  C   UNL     1       6.537   4.479  14.572  0.00  0.00    +0.000 C 
ATOM      6  C   UNL     1       5.251   3.762  14.936  0.00  0.00    +0.000 C 
ATOM      7  C   UNL     1       4.805   4.406  16.263  0.00  0.00    +0.000 C 
ENDROOT
BRANCH   7   8
ATOM      8  C   UNL     1       4.258   3.361  17.181  0.00  0.00    +0.000 A 
ATOM      9  N   UNL     1       4.667   2.105  17.270  0.00  0.00    +0.000 NA
ATOM     10  N   UNL     1       3.784   1.413  18.063  0.00  0.00    +0.000 NA
ATOM     11  C   UNL     1       2.851   2.256  18.452  0.00  0.00    +0.000 A 
ATOM     12  C   UNL     1       1.675   2.091  19.241  0.00  0.00    +0.000 A 
ATOM     13  C   UNL     1       0.883   3.152  19.483  0.00  0.00    +0.000 A 
ATOM     14  C   UNL     1       1.208   4.473  18.962  0.00  0.00    +0.000 A 
ATOM     15  C   UNL     1       2.311   4.627  18.210  0.00  0.00    +0.000 A 
ATOM     16  N   UNL     1       3.122   3.521  17.952  0.00  0.00    +0.000 N 
ENDBRANCH   7   8
BRANCH   2  17
ATOM     17  C   UNL     1       6.981   6.984  18.025  0.00  0.00    +0.000 A 
ATOM     18  C   UNL     1       7.178   8.319  17.569  0.00  0.00    +0.000 A 
ATOM     19  C   UNL     1       8.265   8.819  18.258  0.00  0.00    +0.000 A 
ATOM     20  N   UNL     1       8.746   7.742  18.952  0.00  0.00    +0.000 N 
ATOM     21  N   UNL     1       7.997   6.634  18.839  0.00  0.00    +0.000 NA
ATOM     22  H   UNL     1       9.558   7.707  19.560  0.00  0.00    +0.000 HD
BRANCH  19  23
ATOM     23  C   UNL     1       8.822  10.165  18.332  0.00  0.00    +0.000 A 
ATOM     24  C   UNL     1       8.239  11.207  17.589  0.00  0.00    +0.000 A 
ATOM     25  C   UNL     1       8.775  12.498  17.627  0.00  0.00    +0.000 A 
ATOM     26  C   UNL     1       9.894  12.748  18.409  0.00  0.00    +0.000 A 
ATOM     27  F   UNL     1      10.420  13.980  18.434  0.00  0.00    +0.000 F 
ATOM     28  C   UNL     1      10.477  11.739  19.165  0.00  0.00    +0.000 A 
ATOM     29  C   UNL     1       9.939  10.449  19.130  0.00  0.00    +0.000 A 
ENDBRANCH  19  23
ENDBRANCH   2  17
TORSDOF 3
ENDMDL
MODEL 3
REMARK VINA RESULT:      -8.3      3.796      9.815
REMARK  Name = 
REMARK  3 active torsions:
REMARK  status: ('A' for Active; 'I' for Inactive)
REMARK    1  A    between atoms: C_2  and  C_3
REMARK    2  A    between atoms: C_5  and  C_6
REMARK    3  A    between atoms: C_19  and  C_20
REMARK                            x       y       z     vdW  Elec       q    Type
REMARK                         _______ _______ _______ _____ _____    ______ ____
ROOT
ATOM      1  O   UNL     1       0.364   9.210  21.022  0.00  0.00    +0.000 OA
ATOM      2  C   UNL     1       1.002   9.208  19.965  0.00  0.00    +0.000 C 
ATOM      3  N   UNL     1       1.102  10.385  19.216  0.00  0.00    +0.000 N 
ATOM      4  C   UNL     1       1.927  10.615  18.044  0.00  0.00    +0.000 C 
ATOM      5  C   UNL     1       2.434  12.035  18.185  0.00  0.00    +0.000 C 
ATOM      6  C   UNL     1       1.333  12.746  18.948  0.00  0.00    +0.000 C 
ATOM      7  C   UNL     1       0.691  11.652  19.821  0.00  0.00    +0.000 C 
ENDROOT
BRANCH   7   8
ATOM      8  C   UNL     1      -0.793  11.831  19.856  0.00  0.00    +0.000 A 
ATOM      9  N   UNL     1      -1.593  11.941  18.808  0.00  0.00    +0.000 NA
ATOM     10  N   UNL     1      -2.843  12.305  19.248  0.00  0.00    +0.000 NA
ATOM     11  C   UNL     1      -2.791  12.406  20.559  0.00  0.00    +0.000 A 
ATOM     12  C   UNL     1      -3.761  12.786  21.533  0.00  0.00    +0.000 A 
ATOM     13  C   UNL     1      -3.422  12.804  22.836  0.00  0.00    +0.000 A 
ATOM     14  C   UNL     1      -2.084  12.432  23.274  0.00  0.00    +0.000 A 
ATOM     15  C   UNL     1      -1.167  12.083  22.356  0.00  0.00    +0.000 A 
ATOM     16  N   UNL     1      -1.520  12.078  21.006  0.00  0.00    +0.000 N 
ENDBRANCH   7   8
BRANCH   2  17
ATOM     17  C   UNL     1       1.774   8.015  19.529  0.00  0.00    +0.000 A 
ATOM     18  C   UNL     1       2.222   7.634  18.232  0.00  0.00    +0.000 A 
ATOM     19  C   UNL     1       3.080   6.566  18.404  0.00  0.00    +0.000 A 
ATOM     20  N   UNL     1       2.982   6.269  19.737  0.00  0.00    +0.000 N 
ATOM     21  N   UNL     1       2.215   7.121  20.436  0.00  0.00    +0.000 NA
ATOM     22  H   UNL     1       3.449   5.525  20.244  0.00  0.00    +0.000 HD
BRANCH  19  23
ATOM     23  C   UNL     1       3.958   5.875  17.467  0.00  0.00    +0.000 A 
ATOM     24  C   UNL     1       3.964   4.470  17.418  0.00  0.00    +0.000 A 
ATOM     25  C   UNL     1       4.818   3.790  16.544  0.00  0.00    +0.000 A 
ATOM     26  C   UNL     1       5.666   4.515  15.718  0.00  0.00    +0.000 A 
ATOM     27  F   UNL     1       6.498   3.865  14.892  0.00  0.00    +0.000 F 
ATOM     28  C   UNL     1       5.666   5.904  15.737  0.00  0.00    +0.000 A 
ATOM     29  C   UNL     1       4.809   6.585  16.608  0.00  0.00    +0.000 A 
ENDBRANCH  19  23
ENDBRANCH   2  17
TORSDOF 3
ENDMDL
MODEL 4
REMARK VINA RESULT:      -8.2      4.077     10.154
REMARK  Name = 
REMARK  3 active torsions:
REMARK  status: ('A' for Active; 'I' for Inactive)
REMARK    1  A    between atoms: C_2  and  C_3
REMARK    2  A    between atoms: C_5  and  C_6
REMARK    3  A    between atoms: C_19  and  C_20
REMARK                            x       y       z     vdW  Elec       q    Type
REMARK                         _______ _______ _______ _____ _____    ______ ____
ROOT
ATOM      1  O   UNL     1       1.447  10.895  21.584  0.00  0.00    +0.000 OA
ATOM      2  C   UNL     1       0.807  10.240  20.755  0.00  0.00    +0.000 C 
ATOM      3  N   UNL     1      -0.338  10.793  20.173  0.00  0.00    +0.000 N 
ATOM      4  C   UNL     1      -1.121  10.246  19.079  0.00  0.00    +0.000 C 
ATOM      5  C   UNL     1      -1.531  11.440  18.245  0.00  0.00    +0.000 C 
ATOM      6  C   UNL     1      -1.630  12.574  19.247  0.00  0.00    +0.000 C 
ATOM      7  C   UNL     1      -0.606  12.221  20.342  0.00  0.00    +0.000 C 
ENDROOT
BRANCH   7   8
ATOM      8  C   UNL     1      -1.159  12.558  21.689  0.00  0.00    +0.000 A 
ATOM      9  N   UNL     1      -2.123  11.911  22.323  0.00  0.00    +0.000 NA
ATOM     10  N   UNL     1      -2.494  12.646  23.424  0.00  0.00    +0.000 NA
ATOM     11  C   UNL     1      -1.747  13.729  23.450  0.00  0.00    +0.000 A 
ATOM     12  C   UNL     1      -1.716  14.855  24.324  0.00  0.00    +0.000 A 
ATOM     13  C   UNL     1      -0.827  15.843  24.105  0.00  0.00    +0.000 A 
ATOM     14  C   UNL     1       0.114  15.780  22.996  0.00  0.00    +0.000 A 
ATOM     15  C   UNL     1       0.081  14.724  22.166  0.00  0.00    +0.000 A 
ATOM     16  N   UNL     1      -0.852  13.709  22.390  0.00  0.00    +0.000 N 
ENDBRANCH   7   8
BRANCH   2  17
ATOM     17  C   UNL     1       1.296   8.925  20.265  0.00  0.00    +0.000 A 
ATOM     18  C   UNL     1       1.826   8.557  18.995  0.00  0.00    +0.000 A 
ATOM     19  C   UNL     1       2.334   7.280  19.131  0.00  0.00    +0.000 A 
ATOM     20  N   UNL     1       1.952   6.899  20.389  0.00  0.00    +0.000 N 
ATOM     21  N   UNL     1       1.337   7.862  21.093  0.00  0.00    +0.000 NA
ATOM     22  H   UNL     1       2.121   6.009  20.846  0.00  0.00    +0.000 HD
BRANCH  19  23
ATOM     23  C   UNL     1       3.135   6.461  18.227  0.00  0.00    +0.000 A 
ATOM     24  C   UNL     1       2.927   5.072  18.170  0.00  0.00    +0.000 A 
ATOM     25  C   UNL     1       3.703   4.268  17.330  0.00  0.00    +0.000 A 
ATOM     26  C   UNL     1       4.687   4.853  16.545  0.00  0.00    +0.000 A 
ATOM     27  F   UNL     1       5.443   4.082  15.752  0.00  0.00    +0.000 F 
ATOM     28  C   UNL     1       4.899   6.225  16.572  0.00  0.00    +0.000 A 
ATOM     29  C   UNL     1       4.121   7.031  17.410  0.00  0.00    +0.000 A 
ENDBRANCH  19  23
ENDBRANCH   2  17
TORSDOF 3
ENDMDL
MODEL 5
REMARK VINA RESULT:      -8.2      5.617     11.723
REMARK  Name = 
REMARK  3 active torsions:
REMARK  status: ('A' for Active; 'I' for Inactive)
REMARK    1  A    between atoms: C_2  and  C_3
REMARK    2  A    between atoms: C_5  and  C_6
REMARK    3  A    between atoms: C_19  and  C_20
REMARK                            x       y       z     vdW  Elec       q    Type
REMARK                         _______ _______ _______ _____ _____    ______ ____
ROOT
ATOM      1  O   UNL     1      -2.937  13.181  20.939  0.00  0.00    +0.000 OA
ATOM      2  C   UNL     1      -2.863  12.393  19.990  0.00  0.00    +0.000 C 
ATOM      3  N   UNL     1      -4.008  12.108  19.239  0.00  0.00    +0.000 N 
ATOM      4  C   UNL     1      -4.086  11.340  18.009  0.00  0.00    +0.000 C 
ATOM      5  C   UNL     1      -5.117  12.051  17.159  0.00  0.00    +0.000 C 
ATOM      6  C   UNL     1      -6.068  12.664  18.169  0.00  0.00    +0.000 C 
ATOM      7  C   UNL     1      -5.199  12.940  19.410  0.00  0.00    +0.000 C 
ENDROOT
BRANCH   7   8
ATOM      8  C   UNL     1      -5.965  12.619  20.653  0.00  0.00    +0.000 A 
ATOM      9  N   UNL     1      -6.616  11.495  20.904  0.00  0.00    +0.000 NA
ATOM     10  N   UNL     1      -7.364  11.666  22.044  0.00  0.00    +0.000 NA
ATOM     11  C   UNL     1      -7.155  12.891  22.478  0.00  0.00    +0.000 A 
ATOM     12  C   UNL     1      -7.687  13.625  23.578  0.00  0.00    +0.000 A 
ATOM     13  C   UNL     1      -7.287  14.894  23.787  0.00  0.00    +0.000 A 
ATOM     14  C   UNL     1      -6.310  15.531  22.914  0.00  0.00    +0.000 A 
ATOM     15  C   UNL     1      -5.815  14.844  21.872  0.00  0.00    +0.000 A 
ATOM     16  N   UNL     1      -6.243  13.533  21.653  0.00  0.00    +0.000 N 
ENDBRANCH   7   8
BRANCH   2  17
ATOM     17  C   UNL     1      -1.559  11.837  19.545  0.00  0.00    +0.000 A 
ATOM     18  C   UNL     1      -0.869  10.664  19.966  0.00  0.00    +0.000 A 
ATOM     19  C   UNL     1       0.182  10.484  19.089  0.00  0.00    +0.000 A 
ATOM     20  N   UNL     1       0.165  11.609  18.309  0.00  0.00    +0.000 N 
ATOM     21  N   UNL     1      -0.867  12.432  18.553  0.00  0.00    +0.000 NA
ATOM     22  H   UNL     1       0.802  11.855  17.559  0.00  0.00    +0.000 HD
BRANCH  19  23
ATOM     23  C   UNL     1       1.118   9.378  18.922  0.00  0.00    +0.000 A 
ATOM     24  C   UNL     1       1.796   9.212  17.701  0.00  0.00    +0.000 A 
ATOM     25  C   UNL     1       2.677   8.143  17.513  0.00  0.00    +0.000 A 
ATOM     26  C   UNL     1       2.883   7.240  18.547  0.00  0.00    +0.000 A 
ATOM     27  F   UNL     1       3.713   6.204  18.363  0.00  0.00    +0.000 F 
ATOM     28  C   UNL     1       2.237   7.392  19.767  0.00  0.00    +0.000 A 
ATOM     29  C   UNL     1       1.358   8.464  19.957  0.00  0.00    +0.000 A 
ENDBRANCH  19  23
ENDBRANCH   2  17
TORSDOF 3
ENDMDL
MODEL 6
REMARK VINA RESULT:      -8.2      4.367      9.875
REMARK  Name = 
REMARK  3 active torsions:
REMARK  status: ('A' for Active; 'I' for Inactive)
REMARK    1  A    between atoms: C_2  and  C_3
REMARK    2  A    between atoms: C_5  and  C_6
REMARK    3  A    between atoms: C_19  and  C_20
REMARK                            x       y       z     vdW  Elec       q    Type
REMARK                         _______ _______ _______ _____ _____    ______ ____
ROOT
ATOM      1  O   UNL     1       1.493  11.612  19.068  0.00  0.00    +0.000 OA
ATOM      2  C   UNL     1       0.798  10.601  18.921  0.00  0.00    +0.000 C 
ATOM      3  N   UNL     1      -0.573  10.734  18.680  0.00  0.00    +0.000 N 
ATOM      4  C   UNL     1      -1.511   9.682  18.332  0.00  0.00    +0.000 C 
ATOM      5  C   UNL     1      -2.452  10.304  17.322  0.00  0.00    +0.000 C 
ATOM      6  C   UNL     1      -2.492  11.770  17.710  0.00  0.00    +0.000 C 
ATOM      7  C   UNL     1      -1.112  12.049  18.335  0.00  0.00    +0.000 C 
ENDROOT
BRANCH   7   8
ATOM      8  C   UNL     1      -1.259  12.951  19.517  0.00  0.00    +0.000 A 
ATOM      9  N   UNL     1      -1.972  12.707  20.605  0.00  0.00    +0.000 NA
ATOM     10  N   UNL     1      -2.029  13.855  21.358  0.00  0.00    +0.000 NA
ATOM     11  C   UNL     1      -1.345  14.783  20.723  0.00  0.00    +0.000 A 
ATOM     12  C   UNL     1      -1.099  16.159  21.006  0.00  0.00    +0.000 A 
ATOM     13  C   UNL     1      -0.348  16.888  20.160  0.00  0.00    +0.000 A 
ATOM     14  C   UNL     1       0.230  16.296  18.961  0.00  0.00    +0.000 A 
ATOM     15  C   UNL     1      -0.009  15.002  18.688  0.00  0.00    +0.000 A 
ATOM     16  N   UNL     1      -0.800  14.254  19.563  0.00  0.00    +0.000 N 
ENDBRANCH   7   8
BRANCH   2  17
ATOM     17  C   UNL     1       1.406   9.246  18.869  0.00  0.00    +0.000 A 
ATOM     18  C   UNL     1       1.980   8.537  17.774  0.00  0.00    +0.000 A 
ATOM     19  C   UNL     1       2.597   7.421  18.302  0.00  0.00    +0.000 A 
ATOM     20  N   UNL     1       2.238   7.432  19.622  0.00  0.00    +0.000 N 
ATOM     21  N   UNL     1       1.533   8.512  19.993  0.00  0.00    +0.000 NA
ATOM     22  H   UNL     1       2.481   6.754  20.338  0.00  0.00    +0.000 HD
BRANCH  19  23
ATOM     23  C   UNL     1       3.477   6.429  17.693  0.00  0.00    +0.000 A 
ATOM     24  C   UNL     1       4.623   6.845  16.993  0.00  0.00    +0.000 A 
ATOM     25  C   UNL     1       5.465   5.910  16.381  0.00  0.00    +0.000 A 
ATOM     26  C   UNL     1       5.161   4.559  16.471  0.00  0.00    +0.000 A 
ATOM     27  F   UNL     1       5.955   3.662  15.870  0.00  0.00    +0.000 F 
ATOM     28  C   UNL     1       4.043   4.123  17.171  0.00  0.00    +0.000 A 
ATOM     29  C   UNL     1       3.203   5.057  17.786  0.00  0.00    +0.000 A 
ENDBRANCH  19  23
ENDBRANCH   2  17
TORSDOF 3
ENDMDL
MODEL 7
REMARK VINA RESULT:      -8.1      4.615     10.338
REMARK  Name = 
REMARK  3 active torsions:
REMARK  status: ('A' for Active; 'I' for Inactive)
REMARK    1  A    between atoms: C_2  and  C_3
REMARK    2  A    between atoms: C_5  and  C_6
REMARK    3  A    between atoms: C_19  and  C_20
REMARK                            x       y       z     vdW  Elec       q    Type
REMARK                         _______ _______ _______ _____ _____    ______ ____
ROOT
ATOM      1  O   UNL     1      -1.517  10.979  23.428  0.00  0.00    +0.000 OA
ATOM      2  C   UNL     1      -0.954  10.891  22.332  0.00  0.00    +0.000 C 
ATOM      3  N   UNL     1      -1.146  11.892  21.375  0.00  0.00    +0.000 N 
ATOM      4  C   UNL     1      -0.456  12.041  20.106  0.00  0.00    +0.000 C 
ATOM      5  C   UNL     1      -0.251  13.531  19.935  0.00  0.00    +0.000 C 
ATOM      6  C   UNL     1      -1.432  14.151  20.657  0.00  0.00    +0.000 C 
ATOM      7  C   UNL     1      -1.780  13.149  21.774  0.00  0.00    +0.000 C 
ENDROOT
BRANCH   7   8
ATOM      8  C   UNL     1      -3.263  13.038  21.918  0.00  0.00    +0.000 A 
ATOM      9  N   UNL     1      -3.951  13.137  23.044  0.00  0.00    +0.000 NA
ATOM     10  N   UNL     1      -5.251  12.766  22.798  0.00  0.00    +0.000 NA
ATOM     11  C   UNL     1      -5.341  12.451  21.523  0.00  0.00    +0.000 A 
ATOM     12  C   UNL     1      -6.420  11.965  20.727  0.00  0.00    +0.000 A 
ATOM     13  C   UNL     1      -6.223  11.721  19.418  0.00  0.00    +0.000 A 
ATOM     14  C   UNL     1      -4.928  11.953  18.793  0.00  0.00    +0.000 A 
ATOM     15  C   UNL     1      -3.908  12.402  19.544  0.00  0.00    +0.000 A 
ATOM     16  N   UNL     1      -4.116  12.642  20.903  0.00  0.00    +0.000 N 
ENDBRANCH   7   8
BRANCH   2  17
ATOM     17  C   UNL     1       0.025   9.810  22.050  0.00  0.00    +0.000 A 
ATOM     18  C   UNL     1      -0.042   8.727  21.127  0.00  0.00    +0.000 A 
ATOM     19  C   UNL     1       1.212   8.148  21.100  0.00  0.00    +0.000 A 
ATOM     20  N   UNL     1       1.899   8.791  22.093  0.00  0.00    +0.000 N 
ATOM     21  N   UNL     1       1.220   9.793  22.674  0.00  0.00    +0.000 NA
ATOM     22  H   UNL     1       2.854   8.626  22.395  0.00  0.00    +0.000 HD
BRANCH  19  23
ATOM     23  C   UNL     1       1.781   7.123  20.232  0.00  0.00    +0.000 A 
ATOM     24  C   UNL     1       2.352   7.487  19.000  0.00  0.00    +0.000 A 
ATOM     25  C   UNL     1       2.880   6.515  18.143  0.00  0.00    +0.000 A 
ATOM     26  C   UNL     1       2.836   5.179  18.518  0.00  0.00    +0.000 A 
ATOM     27  F   UNL     1       3.324   4.245  17.691  0.00  0.00    +0.000 F 
ATOM     28  C   UNL     1       2.291   4.798  19.738  0.00  0.00    +0.000 A 
ATOM     29  C   UNL     1       1.767   5.770  20.597  0.00  0.00    +0.000 A 
ENDBRANCH  19  23
ENDBRANCH   2  17
TORSDOF 3
ENDMDL
MODEL 8
REMARK VINA RESULT:      -8.1      4.124      9.293
REMARK  Name = 
REMARK  3 active torsions:
REMARK  status: ('A' for Active; 'I' for Inactive)
REMARK    1  A    between atoms: C_2  and  C_3
REMARK    2  A    between atoms: C_5  and  C_6
REMARK    3  A    between atoms: C_19  and  C_20
REMARK                            x       y       z     vdW  Elec       q    Type
REMARK                         _______ _______ _______ _____ _____    ______ ____
ROOT
ATOM      1  O   UNL     1       0.008   9.657  21.049  0.00  0.00    +0.000 OA
ATOM      2  C   UNL     1       0.705   9.616  20.031  0.00  0.00    +0.000 C 
ATOM      3  N   UNL     1       0.881  10.774  19.267  0.00  0.00    +0.000 N 
ATOM      4  C   UNL     1       1.778  10.958  18.140  0.00  0.00    +0.000 C 
ATOM      5  C   UNL     1       2.316  12.366  18.284  0.00  0.00    +0.000 C 
ATOM      6  C   UNL     1       1.193  13.122  18.967  0.00  0.00    +0.000 C 
ATOM      7  C   UNL     1       0.471  12.064  19.822  0.00  0.00    +0.000 C 
ENDROOT
BRANCH   7   8
ATOM      8  C   UNL     1      -1.007  12.283  19.767  0.00  0.00    +0.000 A 
ATOM      9  N   UNL     1      -1.767  12.751  20.744  0.00  0.00    +0.000 NA
ATOM     10  N   UNL     1      -3.084  12.603  20.383  0.00  0.00    +0.000 NA
ATOM     11  C   UNL     1      -3.111  12.053  19.188  0.00  0.00    +0.000 A 
ATOM     12  C   UNL     1      -4.184  11.636  18.346  0.00  0.00    +0.000 A 
ATOM     13  C   UNL     1      -3.913  11.088  17.146  0.00  0.00    +0.000 A 
ATOM     14  C   UNL     1      -2.542  10.922  16.684  0.00  0.00    +0.000 A 
ATOM     15  C   UNL     1      -1.530  11.306  17.480  0.00  0.00    +0.000 A 
ATOM     16  N   UNL     1      -1.817  11.861  18.729  0.00  0.00    +0.000 N 
ENDBRANCH   7   8
BRANCH   2  17
ATOM     17  C   UNL     1       1.467   8.394  19.664  0.00  0.00    +0.000 A 
ATOM     18  C   UNL     1       1.910   7.935  18.390  0.00  0.00    +0.000 A 
ATOM     19  C   UNL     1       2.760   6.873  18.623  0.00  0.00    +0.000 A 
ATOM     20  N   UNL     1       2.662   6.654  19.971  0.00  0.00    +0.000 N 
ATOM     21  N   UNL     1       1.903   7.550  20.621  0.00  0.00    +0.000 NA
ATOM     22  H   UNL     1       3.125   5.936  20.519  0.00  0.00    +0.000 HD
BRANCH  19  23
ATOM     23  C   UNL     1       3.632   6.122  17.727  0.00  0.00    +0.000 A 
ATOM     24  C   UNL     1       4.590   6.799  16.951  0.00  0.00    +0.000 A 
ATOM     25  C   UNL     1       5.418   6.100  16.067  0.00  0.00    +0.000 A 
ATOM     26  C   UNL     1       5.288   4.722  15.959  0.00  0.00    +0.000 A 
ATOM     27  F   UNL     1       6.067   4.051  15.099  0.00  0.00    +0.000 F 
ATOM     28  C   UNL     1       4.360   4.029  16.726  0.00  0.00    +0.000 A 
ATOM     29  C   UNL     1       3.535   4.728  17.613  0.00  0.00    +0.000 A 
ENDBRANCH  19  23
ENDBRANCH   2  17
TORSDOF 3
ENDMDL
MODEL 9
REMARK VINA RESULT:      -8.1      3.961      9.734
REMARK  Name = 
REMARK  3 active torsions:
REMARK  status: ('A' for Active; 'I' for Inactive)
REMARK    1  A    between atoms: C_2  and  C_3
REMARK    2  A    between atoms: C_5  and  C_6
REMARK    3  A    between atoms: C_19  and  C_20
REMARK                            x       y       z     vdW  Elec       q    Type
REMARK                         _______ _______ _______ _____ _____    ______ ____
ROOT
ATOM      1  O   UNL     1       1.744  11.717  18.666  0.00  0.00    +0.000 OA
ATOM      2  C   UNL     1       0.984  10.748  18.759  0.00  0.00    +0.000 C 
ATOM      3  N   UNL     1      -0.399  10.949  18.734  0.00  0.00    +0.000 N 
ATOM      4  C   UNL     1      -1.436   9.935  18.674  0.00  0.00    +0.000 C 
ATOM      5  C   UNL     1      -2.504  10.508  17.767  0.00  0.00    +0.000 C 
ATOM      6  C   UNL     1      -2.402  12.006  17.978  0.00  0.00    +0.000 C 
ATOM      7  C   UNL     1      -0.923  12.254  18.328  0.00  0.00    +0.000 C 
ENDROOT
BRANCH   7   8
ATOM      8  C   UNL     1      -0.817  13.288  19.402  0.00  0.00    +0.000 A 
ATOM      9  N   UNL     1      -0.244  14.475  19.293  0.00  0.00    +0.000 NA
ATOM     10  N   UNL     1      -0.161  15.039  20.544  0.00  0.00    +0.000 NA
ATOM     11  C   UNL     1      -0.690  14.190  21.399  0.00  0.00    +0.000 A 
ATOM     12  C   UNL     1      -0.839  14.222  22.817  0.00  0.00    +0.000 A 
ATOM     13  C   UNL     1      -1.431  13.189  23.446  0.00  0.00    +0.000 A 
ATOM     14  C   UNL     1      -1.934  12.040  22.706  0.00  0.00    +0.000 A 
ATOM     15  C   UNL     1      -1.786  12.005  21.370  0.00  0.00    +0.000 A 
ATOM     16  N   UNL     1      -1.160  13.073  20.725  0.00  0.00    +0.000 N 
ENDBRANCH   7   8
BRANCH   2  17
ATOM     17  C   UNL     1       1.504   9.356  18.769  0.00  0.00    +0.000 A 
ATOM     18  C   UNL     1       2.025   8.562  17.707  0.00  0.00    +0.000 A 
ATOM     19  C   UNL     1       2.573   7.434  18.285  0.00  0.00    +0.000 A 
ATOM     20  N   UNL     1       2.224   7.529  19.604  0.00  0.00    +0.000 N 
ATOM     21  N   UNL     1       1.591   8.669  19.926  0.00  0.00    +0.000 NA
ATOM     22  H   UNL     1       2.426   6.871  20.350  0.00  0.00    +0.000 HD
BRANCH  19  23
ATOM     23  C   UNL     1       3.385   6.360  17.721  0.00  0.00    +0.000 A 
ATOM     24  C   UNL     1       4.554   6.669  17.004  0.00  0.00    +0.000 A 
ATOM     25  C   UNL     1       5.331   5.654  16.435  0.00  0.00    +0.000 A 
ATOM     26  C   UNL     1       4.939   4.331  16.584  0.00  0.00    +0.000 A 
ATOM     27  F   UNL     1       5.672   3.359  16.024  0.00  0.00    +0.000 F 
ATOM     28  C   UNL     1       3.797   4.001  17.302  0.00  0.00    +0.000 A 
ATOM     29  C   UNL     1       3.022   5.015  17.875  0.00  0.00    +0.000 A 
ENDBRANCH  19  23
ENDBRANCH   2  17
TORSDOF 3
ENDMDL
