MODEL 1
REMARK VINA RESULT:      -8.4      0.000      0.000
REMARK  Name = 
REMARK  2 active torsions:
REMARK  status: ('A' for Active; 'I' for Inactive)
REMARK    1  A    between atoms: C_7  and  C_8
REMARK    2  A    between atoms: N_10  and  C_11
REMARK                            x       y       z     vdW  Elec       q    Type
REMARK                         _______ _______ _______ _____ _____    ______ ____
ROOT
ATOM      1  O   UNL     1       6.665   4.010  14.155  0.00  0.00    +0.000 OA
ATOM      2  C   UNL     1       6.202   4.457  15.201  0.00  0.00    +0.000 C 
ATOM      3  C   UNL     1       6.960   5.425  16.078  0.00  0.00    +0.000 C 
ATOM      4  C   UNL     1       6.041   6.418  16.769  0.00  0.00    +0.000 C 
ATOM      5  C   UNL     1       4.823   5.749  17.347  0.00  0.00    +0.000 A 
ATOM      6  C   UNL     1       4.090   6.367  18.367  0.00  0.00    +0.000 A 
ATOM      7  C   UNL     1       2.898   5.793  18.850  0.00  0.00    +0.000 A 
ATOM      8  C   UNL     1       2.472   4.585  18.299  0.00  0.00    +0.000 A 
ATOM      9  F   UNL     1       1.353   3.985  18.737  0.00  0.00    +0.000 F 
ATOM     10  C   UNL     1       3.179   3.971  17.268  0.00  0.00    +0.000 A 
ATOM     11  C   UNL     1       4.344   4.563  16.786  0.00  0.00    +0.000 A 
ATOM     12  N   UNL     1       5.009   3.999  15.694  0.00  0.00    +0.000 N 
ATOM     13  H   UNL     1       4.580   3.248  15.166  0.00  0.00    +0.000 HD
ENDROOT
BRANCH   7  14
ATOM     14  C   UNL     1       2.135   6.534  19.895  0.00  0.00    +0.000 C 
ATOM     15  O   UNL     1       1.729   5.890  20.859  0.00  0.00    +0.000 OA
ATOM     16  N   UNL     1       1.911   7.883  19.678  0.00  0.00    +0.000 N 
ATOM     17  H   UNL     1       2.189   8.266  18.780  0.00  0.00    +0.000 HD
BRANCH  16  18
ATOM     18  C   UNL     1       1.207   8.759  20.533  0.00  0.00    +0.000 A 
ATOM     19  C   UNL     1       1.250   8.658  21.936  0.00  0.00    +0.000 A 
ATOM     20  C   UNL     1       0.489   9.504  22.747  0.00  0.00    +0.000 A 
ATOM     21  C   UNL     1      -0.312  10.447  22.135  0.00  0.00    +0.000 A 
ATOM     22  C   UNL     1      -0.348  10.570  20.754  0.00  0.00    +0.000 A 
ATOM     23  C   UNL     1       0.420   9.754  19.937  0.00  0.00    +0.000 A 
ATOM     24  C   UNL     1      -1.357  11.598  20.395  0.00  0.00    +0.000 C 
ATOM     25  O   UNL     1      -1.615  12.285  21.642  0.00  0.00    +0.000 OA
ATOM     26  C   UNL     1      -1.270  11.405  22.739  0.00  0.00    +0.000 C 
ENDBRANCH  16  18
ENDBRANCH   7  14
TORSDOF 2
ENDMDL
MODEL 2
REMARK VINA RESULT:      -8.2      2.820      3.785
REMARK  Name = 
REMARK  2 active torsions:
REMARK  status: ('A' for Active; 'I' for Inactive)
REMARK    1  A    between atoms: C_7  and  C_8
REMARK    2  A    between atoms: N_10  and  C_11
REMARK                            x       y       z     vdW  Elec       q    Type
REMARK                         _______ _______ _______ _____ _____    ______ ____
ROOT
ATOM      1  O   UNL     1       5.140   1.547  20.493  0.00  0.00    +0.000 OA
ATOM      2  C   UNL     1       4.400   2.484  20.205  0.00  0.00    +0.000 C 
ATOM      3  C   UNL     1       3.008   2.624  20.771  0.00  0.00    +0.000 C 
ATOM      4  C   UNL     1       2.613   4.077  20.979  0.00  0.00    +0.000 C 
ATOM      5  C   UNL     1       2.982   4.934  19.799  0.00  0.00    +0.000 A 
ATOM      6  C   UNL     1       2.347   6.164  19.588  0.00  0.00    +0.000 A 
ATOM      7  C   UNL     1       2.750   7.015  18.541  0.00  0.00    +0.000 A 
ATOM      8  C   UNL     1       3.787   6.598  17.708  0.00  0.00    +0.000 A 
ATOM      9  F   UNL     1       4.197   7.361  16.682  0.00  0.00    +0.000 F 
ATOM     10  C   UNL     1       4.444   5.387  17.921  0.00  0.00    +0.000 A 
ATOM     11  C   UNL     1       4.048   4.567  18.975  0.00  0.00    +0.000 A 
ATOM     12  N   UNL     1       4.759   3.395  19.247  0.00  0.00    +0.000 N 
ATOM     13  H   UNL     1       5.636   3.207  18.776  0.00  0.00    +0.000 HD
ENDROOT
BRANCH   7  14
ATOM     14  C   UNL     1       2.072   8.336  18.409  0.00  0.00    +0.000 C 
ATOM     15  O   UNL     1       2.246   8.957  17.364  0.00  0.00    +0.000 OA
ATOM     16  N   UNL     1       1.329   8.776  19.491  0.00  0.00    +0.000 N 
ATOM     17  H   UNL     1       1.370   8.227  20.344  0.00  0.00    +0.000 HD
BRANCH  16  18
ATOM     18  C   UNL     1       0.620   9.995  19.576  0.00  0.00    +0.000 A 
ATOM     19  C   UNL     1      -0.584  10.229  18.887  0.00  0.00    +0.000 A 
ATOM     20  C   UNL     1      -1.223  11.471  18.944  0.00  0.00    +0.000 A 
ATOM     21  C   UNL     1      -0.639  12.469  19.698  0.00  0.00    +0.000 A 
ATOM     22  C   UNL     1       0.537  12.246  20.397  0.00  0.00    +0.000 A 
ATOM     23  C   UNL     1       1.169  11.012  20.369  0.00  0.00    +0.000 A 
ATOM     24  C   UNL     1       0.961  13.519  21.033  0.00  0.00    +0.000 C 
ATOM     25  O   UNL     1      -0.214  14.359  20.950  0.00  0.00    +0.000 OA
ATOM     26  C   UNL     1      -1.051  13.884  19.868  0.00  0.00    +0.000 C 
ENDBRANCH  16  18
ENDBRANCH   7  14
TORSDOF 2
ENDMDL
MODEL 3
REMARK VINA RESULT:      -8.1      3.448      8.869
REMARK  Name = 
REMARK  2 active torsions:
REMARK  status: ('A' for Active; 'I' for Inactive)
REMARK    1  A    between atoms: C_7  and  C_8
REMARK    2  A    between atoms: N_10  and  C_11
REMARK                            x       y       z     vdW  Elec       q    Type
REMARK                         _______ _______ _______ _____ _____    ______ ____
ROOT
ATOM      1  O   UNL     1      -5.633  12.710  18.355  0.00  0.00    +0.000 OA
ATOM      2  C   UNL     1      -4.663  11.956  18.315  0.00  0.00    +0.000 C 
ATOM      3  C   UNL     1      -4.716  10.598  17.658  0.00  0.00    +0.000 C 
ATOM      4  C   UNL     1      -3.394  10.219  17.012  0.00  0.00    +0.000 C 
ATOM      5  C   UNL     1      -2.223  10.524  17.906  0.00  0.00    +0.000 A 
ATOM      6  C   UNL     1      -0.994   9.881  17.712  0.00  0.00    +0.000 A 
ATOM      7  C   UNL     1       0.132  10.226  18.483  0.00  0.00    +0.000 A 
ATOM      8  C   UNL     1      -0.007  11.214  19.457  0.00  0.00    +0.000 A 
ATOM      9  F   UNL     1       1.029  11.567  20.234  0.00  0.00    +0.000 F 
ATOM     10  C   UNL     1      -1.218  11.878  19.645  0.00  0.00    +0.000 A 
ATOM     11  C   UNL     1      -2.317  11.541  18.858  0.00  0.00    +0.000 A 
ATOM     12  N   UNL     1      -3.506  12.263  18.982  0.00  0.00    +0.000 N 
ATOM     13  H   UNL     1      -3.535  13.112  19.534  0.00  0.00    +0.000 HD
ENDROOT
BRANCH   7  14
ATOM     14  C   UNL     1       1.424   9.544  18.184  0.00  0.00    +0.000 C 
ATOM     15  O   UNL     1       2.272  10.188  17.571  0.00  0.00    +0.000 OA
ATOM     16  N   UNL     1       1.552   8.227  18.589  0.00  0.00    +0.000 N 
ATOM     17  H   UNL     1       0.730   7.771  18.973  0.00  0.00    +0.000 HD
BRANCH  16  18
ATOM     18  C   UNL     1       2.683   7.402  18.397  0.00  0.00    +0.000 A 
ATOM     19  C   UNL     1       3.639   7.637  17.393  0.00  0.00    +0.000 A 
ATOM     20  C   UNL     1       4.710   6.762  17.193  0.00  0.00    +0.000 A 
ATOM     21  C   UNL     1       4.806   5.652  18.008  0.00  0.00    +0.000 A 
ATOM     22  C   UNL     1       3.881   5.420  19.014  0.00  0.00    +0.000 A 
ATOM     23  C   UNL     1       2.827   6.292  19.241  0.00  0.00    +0.000 A 
ATOM     24  C   UNL     1       4.193   4.117  19.656  0.00  0.00    +0.000 C 
ATOM     25  O   UNL     1       5.534   3.818  19.201  0.00  0.00    +0.000 OA
ATOM     26  C   UNL     1       5.779   4.533  17.966  0.00  0.00    +0.000 C 
ENDBRANCH  16  18
ENDBRANCH   7  14
TORSDOF 2
ENDMDL
MODEL 4
REMARK VINA RESULT:      -8.1      1.455      1.573
REMARK  Name = 
REMARK  2 active torsions:
REMARK  status: ('A' for Active; 'I' for Inactive)
REMARK    1  A    between atoms: C_7  and  C_8
REMARK    2  A    between atoms: N_10  and  C_11
REMARK                            x       y       z     vdW  Elec       q    Type
REMARK                         _______ _______ _______ _____ _____    ______ ____
ROOT
ATOM      1  O   UNL     1       6.233   3.265  15.442  0.00  0.00    +0.000 OA
ATOM      2  C   UNL     1       5.767   4.217  16.062  0.00  0.00    +0.000 C 
ATOM      3  C   UNL     1       6.301   5.622  15.917  0.00  0.00    +0.000 C 
ATOM      4  C   UNL     1       5.210   6.671  16.056  0.00  0.00    +0.000 C 
ATOM      5  C   UNL     1       4.296   6.381  17.215  0.00  0.00    +0.000 A 
ATOM      6  C   UNL     1       3.521   7.401  17.781  0.00  0.00    +0.000 A 
ATOM      7  C   UNL     1       2.595   7.122  18.804  0.00  0.00    +0.000 A 
ATOM      8  C   UNL     1       2.477   5.808  19.254  0.00  0.00    +0.000 A 
ATOM      9  F   UNL     1       1.625   5.490  20.241  0.00  0.00    +0.000 F 
ATOM     10  C   UNL     1       3.225   4.779  18.684  0.00  0.00    +0.000 A 
ATOM     11  C   UNL     1       4.121   5.068  17.656  0.00  0.00    +0.000 A 
ATOM     12  N   UNL     1       4.808   4.030  17.022  0.00  0.00    +0.000 N 
ATOM     13  H   UNL     1       4.560   3.065  17.206  0.00  0.00    +0.000 HD
ENDROOT
BRANCH   7  14
ATOM     14  C   UNL     1       1.759   8.244  19.321  0.00  0.00    +0.000 C 
ATOM     15  O   UNL     1       1.328   9.050  18.500  0.00  0.00    +0.000 OA
ATOM     16  N   UNL     1       1.566   8.310  20.690  0.00  0.00    +0.000 N 
ATOM     17  H   UNL     1       2.083   7.656  21.269  0.00  0.00    +0.000 HD
BRANCH  16  18
ATOM     18  C   UNL     1       0.821   9.292  21.380  0.00  0.00    +0.000 A 
ATOM     19  C   UNL     1       0.038   9.001  22.512  0.00  0.00    +0.000 A 
ATOM     20  C   UNL     1      -0.737   9.988  23.130  0.00  0.00    +0.000 A 
ATOM     21  C   UNL     1      -0.716  11.261  22.598  0.00  0.00    +0.000 A 
ATOM     22  C   UNL     1       0.067  11.565  21.495  0.00  0.00    +0.000 A 
ATOM     23  C   UNL     1       0.859  10.603  20.885  0.00  0.00    +0.000 A 
ATOM     24  C   UNL     1      -0.187  12.975  21.105  0.00  0.00    +0.000 C 
ATOM     25  O   UNL     1      -0.868  13.536  22.252  0.00  0.00    +0.000 OA
ATOM     26  C   UNL     1      -1.490  12.462  22.996  0.00  0.00    +0.000 C 
ENDBRANCH  16  18
ENDBRANCH   7  14
TORSDOF 2
ENDMDL
MODEL 5
REMARK VINA RESULT:      -8.1      2.421      8.836
REMARK  Name = 
REMARK  2 active torsions:
REMARK  status: ('A' for Active; 'I' for Inactive)
REMARK    1  A    between atoms: C_7  and  C_8
REMARK    2  A    between atoms: N_10  and  C_11
REMARK                            x       y       z     vdW  Elec       q    Type
REMARK                         _______ _______ _______ _____ _____    ______ ____
ROOT
ATOM      1  O   UNL     1      -2.125  12.006  23.487  0.00  0.00    +0.000 OA
ATOM      2  C   UNL     1      -1.308  11.325  22.872  0.00  0.00    +0.000 C 
ATOM      3  C   UNL     1      -0.781  10.013  23.402  0.00  0.00    +0.000 C 
ATOM      4  C   UNL     1      -0.499   9.014  22.292  0.00  0.00    +0.000 C 
ATOM      5  C   UNL     1       0.226   9.649  21.136  0.00  0.00    +0.000 A 
ATOM      6  C   UNL     1       0.950   8.861  20.233  0.00  0.00    +0.000 A 
ATOM      7  C   UNL     1       1.554   9.434  19.097  0.00  0.00    +0.000 A 
ATOM      8  C   UNL     1       1.428  10.808  18.899  0.00  0.00    +0.000 A 
ATOM      9  F   UNL     1       2.001  11.409  17.844  0.00  0.00    +0.000 F 
ATOM     10  C   UNL     1       0.690  11.600  19.777  0.00  0.00    +0.000 A 
ATOM     11  C   UNL     1       0.079  11.015  20.884  0.00  0.00    +0.000 A 
ATOM     12  N   UNL     1      -0.733  11.787  21.718  0.00  0.00    +0.000 N 
ATOM     13  H   UNL     1      -0.993  12.729  21.450  0.00  0.00    +0.000 HD
ENDROOT
BRANCH   7  14
ATOM     14  C   UNL     1       2.260   8.529  18.145  0.00  0.00    +0.000 C 
ATOM     15  O   UNL     1       2.323   8.885  16.971  0.00  0.00    +0.000 OA
ATOM     16  N   UNL     1       2.757   7.341  18.653  0.00  0.00    +0.000 N 
ATOM     17  H   UNL     1       2.527   7.107  19.613  0.00  0.00    +0.000 HD
BRANCH  16  18
ATOM     18  C   UNL     1       3.445   6.346  17.923  0.00  0.00    +0.000 A 
ATOM     19  C   UNL     1       2.938   5.047  17.736  0.00  0.00    +0.000 A 
ATOM     20  C   UNL     1       3.678   4.070  17.063  0.00  0.00    +0.000 A 
ATOM     21  C   UNL     1       4.926   4.413  16.584  0.00  0.00    +0.000 A 
ATOM     22  C   UNL     1       5.429   5.695  16.745  0.00  0.00    +0.000 A 
ATOM     23  C   UNL     1       4.697   6.682  17.389  0.00  0.00    +0.000 A 
ATOM     24  C   UNL     1       6.814   5.733  16.211  0.00  0.00    +0.000 C 
ATOM     25  O   UNL     1       6.919   4.520  15.430  0.00  0.00    +0.000 OA
ATOM     26  C   UNL     1       5.943   3.567  15.914  0.00  0.00    +0.000 C 
ENDBRANCH  16  18
ENDBRANCH   7  14
TORSDOF 2
ENDMDL
MODEL 6
REMARK VINA RESULT:      -8.0      0.795      1.419
REMARK  Name = 
REMARK  2 active torsions:
REMARK  status: ('A' for Active; 'I' for Inactive)
REMARK    1  A    between atoms: C_7  and  C_8
REMARK    2  A    between atoms: N_10  and  C_11
REMARK                            x       y       z     vdW  Elec       q    Type
REMARK                         _______ _______ _______ _____ _____    ______ ____
ROOT
ATOM      1  O   UNL     1       6.860   3.843  14.181  0.00  0.00    +0.000 OA
ATOM      2  C   UNL     1       6.365   4.392  15.163  0.00  0.00    +0.000 C 
ATOM      3  C   UNL     1       7.103   5.434  15.968  0.00  0.00    +0.000 C 
ATOM      4  C   UNL     1       6.171   6.496  16.529  0.00  0.00    +0.000 C 
ATOM      5  C   UNL     1       4.927   5.894  17.125  0.00  0.00    +0.000 A 
ATOM      6  C   UNL     1       4.166   6.613  18.054  0.00  0.00    +0.000 A 
ATOM      7  C   UNL     1       2.952   6.097  18.548  0.00  0.00    +0.000 A 
ATOM      8  C   UNL     1       2.532   4.844  18.101  0.00  0.00    +0.000 A 
ATOM      9  F   UNL     1       1.394   4.297  18.555  0.00  0.00    +0.000 F 
ATOM     10  C   UNL     1       3.268   4.128  17.159  0.00  0.00    +0.000 A 
ATOM     11  C   UNL     1       4.455   4.663  16.663  0.00  0.00    +0.000 A 
ATOM     12  N   UNL     1       5.152   3.992  15.655  0.00  0.00    +0.000 N 
ATOM     13  H   UNL     1       4.734   3.197  15.187  0.00  0.00    +0.000 HD
ENDROOT
BRANCH   7  14
ATOM     14  C   UNL     1       2.161   6.940  19.489  0.00  0.00    +0.000 C 
ATOM     15  O   UNL     1       1.780   6.415  20.532  0.00  0.00    +0.000 OA
ATOM     16  N   UNL     1       1.887   8.239  19.096  0.00  0.00    +0.000 N 
ATOM     17  H   UNL     1       2.150   8.511  18.154  0.00  0.00    +0.000 HD
BRANCH  16  18
ATOM     18  C   UNL     1       1.150   9.194  19.831  0.00  0.00    +0.000 A 
ATOM     19  C   UNL     1       0.827  10.466  19.324  0.00  0.00    +0.000 A 
ATOM     20  C   UNL     1       0.151  11.408  20.106  0.00  0.00    +0.000 A 
ATOM     21  C   UNL     1      -0.192  11.058  21.396  0.00  0.00    +0.000 A 
ATOM     22  C   UNL     1       0.103   9.801  21.901  0.00  0.00    +0.000 A 
ATOM     23  C   UNL     1       0.751   8.847  21.130  0.00  0.00    +0.000 A 
ATOM     24  C   UNL     1      -0.305   9.753  23.328  0.00  0.00    +0.000 C 
ATOM     25  O   UNL     1      -1.160  10.911  23.484  0.00  0.00    +0.000 OA
ATOM     26  C   UNL     1      -0.831  11.875  22.456  0.00  0.00    +0.000 C 
ENDBRANCH  16  18
ENDBRANCH   7  14
TORSDOF 2
ENDMDL
MODEL 7
REMARK VINA RESULT:      -8.0      2.651      3.696
REMARK  Name = 
REMARK  2 active torsions:
REMARK  status: ('A' for Active; 'I' for Inactive)
REMARK    1  A    between atoms: C_7  and  C_8
REMARK    2  A    between atoms: N_10  and  C_11
REMARK                            x       y       z     vdW  Elec       q    Type
REMARK                         _______ _______ _______ _____ _____    ______ ____
ROOT
ATOM      1  O   UNL     1       5.173   1.435  20.556  0.00  0.00    +0.000 OA
ATOM      2  C   UNL     1       4.448   2.371  20.232  0.00  0.00    +0.000 C 
ATOM      3  C   UNL     1       3.034   2.519  20.741  0.00  0.00    +0.000 C 
ATOM      4  C   UNL     1       2.636   3.974  20.922  0.00  0.00    +0.000 C 
ATOM      5  C   UNL     1       3.055   4.822  19.752  0.00  0.00    +0.000 A 
ATOM      6  C   UNL     1       2.433   6.052  19.507  0.00  0.00    +0.000 A 
ATOM      7  C   UNL     1       2.880   6.895  18.471  0.00  0.00    +0.000 A 
ATOM      8  C   UNL     1       3.949   6.469  17.683  0.00  0.00    +0.000 A 
ATOM      9  F   UNL     1       4.402   7.224  16.670  0.00  0.00    +0.000 F 
ATOM     10  C   UNL     1       4.593   5.258  17.931  0.00  0.00    +0.000 A 
ATOM     11  C   UNL     1       4.153   4.446  18.974  0.00  0.00    +0.000 A 
ATOM     12  N   UNL     1       4.848   3.274  19.283  0.00  0.00    +0.000 N 
ATOM     13  H   UNL     1       5.743   3.081  18.849  0.00  0.00    +0.000 HD
ENDROOT
BRANCH   7  14
ATOM     14  C   UNL     1       2.212   8.217  18.303  0.00  0.00    +0.000 C 
ATOM     15  O   UNL     1       2.216   8.711  17.178  0.00  0.00    +0.000 OA
ATOM     16  N   UNL     1       1.672   8.801  19.435  0.00  0.00    +0.000 N 
ATOM     17  H   UNL     1       1.848   8.349  20.327  0.00  0.00    +0.000 HD
BRANCH  16  18
ATOM     18  C   UNL     1       1.008  10.047  19.496  0.00  0.00    +0.000 A 
ATOM     19  C   UNL     1       1.379  11.149  18.705  0.00  0.00    +0.000 A 
ATOM     20  C   UNL     1       0.739  12.385  18.839  0.00  0.00    +0.000 A 
ATOM     21  C   UNL     1      -0.270  12.498  19.773  0.00  0.00    +0.000 A 
ATOM     22  C   UNL     1      -0.659  11.413  20.544  0.00  0.00    +0.000 A 
ATOM     23  C   UNL     1      -0.050  10.175  20.406  0.00  0.00    +0.000 A 
ATOM     24  C   UNL     1      -1.694  11.862  21.509  0.00  0.00    +0.000 C 
ATOM     25  O   UNL     1      -2.114  13.149  20.996  0.00  0.00    +0.000 OA
ATOM     26  C   UNL     1      -1.053  13.692  20.176  0.00  0.00    +0.000 C 
ENDBRANCH  16  18
ENDBRANCH   7  14
TORSDOF 2
ENDMDL
MODEL 8
REMARK VINA RESULT:      -7.9      2.900      3.944
REMARK  Name = 
REMARK  2 active torsions:
REMARK  status: ('A' for Active; 'I' for Inactive)
REMARK    1  A    between atoms: C_7  and  C_8
REMARK    2  A    between atoms: N_10  and  C_11
REMARK                            x       y       z     vdW  Elec       q    Type
REMARK                         _______ _______ _______ _____ _____    ______ ____
ROOT
ATOM      1  O   UNL     1       4.075   0.710  18.439  0.00  0.00    +0.000 OA
ATOM      2  C   UNL     1       3.468   1.774  18.529  0.00  0.00    +0.000 C 
ATOM      3  C   UNL     1       2.030   1.854  18.984  0.00  0.00    +0.000 C 
ATOM      4  C   UNL     1       1.744   3.121  19.772  0.00  0.00    +0.000 C 
ATOM      5  C   UNL     1       2.345   4.336  19.120  0.00  0.00    +0.000 A 
ATOM      6  C   UNL     1       1.859   5.616  19.417  0.00  0.00    +0.000 A 
ATOM      7  C   UNL     1       2.474   6.764  18.884  0.00  0.00    +0.000 A 
ATOM      8  C   UNL     1       3.572   6.599  18.040  0.00  0.00    +0.000 A 
ATOM      9  F   UNL     1       4.184   7.659  17.489  0.00  0.00    +0.000 F 
ATOM     10  C   UNL     1       4.082   5.333  17.756  0.00  0.00    +0.000 A 
ATOM     11  C   UNL     1       3.475   4.208  18.309  0.00  0.00    +0.000 A 
ATOM     12  N   UNL     1       4.033   2.945  18.099  0.00  0.00    +0.000 N 
ATOM     13  H   UNL     1       4.945   2.853  17.667  0.00  0.00    +0.000 HD
ENDROOT
BRANCH   7  14
ATOM     14  C   UNL     1       1.943   8.098  19.287  0.00  0.00    +0.000 C 
ATOM     15  O   UNL     1       1.858   8.330  20.491  0.00  0.00    +0.000 OA
ATOM     16  N   UNL     1       1.551   8.955  18.274  0.00  0.00    +0.000 N 
ATOM     17  H   UNL     1       1.552   8.593  17.325  0.00  0.00    +0.000 HD
BRANCH  16  18
ATOM     18  C   UNL     1       1.015  10.252  18.439  0.00  0.00    +0.000 A 
ATOM     19  C   UNL     1      -0.367  10.503  18.521  0.00  0.00    +0.000 A 
ATOM     20  C   UNL     1      -0.861  11.807  18.620  0.00  0.00    +0.000 A 
ATOM     21  C   UNL     1       0.044  12.848  18.635  0.00  0.00    +0.000 A 
ATOM     22  C   UNL     1       1.409  12.612  18.575  0.00  0.00    +0.000 A 
ATOM     23  C   UNL     1       1.916  11.323  18.500  0.00  0.00    +0.000 A 
ATOM     24  C   UNL     1       2.116  13.917  18.519  0.00  0.00    +0.000 C 
ATOM     25  O   UNL     1       1.106  14.877  18.911  0.00  0.00    +0.000 OA
ATOM     26  C   UNL     1      -0.201  14.311  18.651  0.00  0.00    +0.000 C 
ENDBRANCH  16  18
ENDBRANCH   7  14
TORSDOF 2
ENDMDL
MODEL 9
REMARK VINA RESULT:      -7.9      2.793      3.628
REMARK  Name = 
REMARK  2 active torsions:
REMARK  status: ('A' for Active; 'I' for Inactive)
REMARK    1  A    between atoms: C_7  and  C_8
REMARK    2  A    between atoms: N_10  and  C_11
REMARK                            x       y       z     vdW  Elec       q    Type
REMARK                         _______ _______ _______ _____ _____    ______ ____
ROOT
ATOM      1  O   UNL     1       5.213   1.450  20.532  0.00  0.00    +0.000 OA
ATOM      2  C   UNL     1       4.462   2.379  20.247  0.00  0.00    +0.000 C 
ATOM      3  C   UNL     1       3.045   2.466  20.761  0.00  0.00    +0.000 C 
ATOM      4  C   UNL     1       2.607   3.901  21.004  0.00  0.00    +0.000 C 
ATOM      5  C   UNL     1       3.001   4.808  19.871  0.00  0.00    +0.000 A 
ATOM      6  C   UNL     1       2.345   6.030  19.677  0.00  0.00    +0.000 A 
ATOM      7  C   UNL     1       2.768   6.927  18.678  0.00  0.00    +0.000 A 
ATOM      8  C   UNL     1       3.847   6.565  17.873  0.00  0.00    +0.000 A 
ATOM      9  F   UNL     1       4.278   7.374  16.892  0.00  0.00    +0.000 F 
ATOM     10  C   UNL     1       4.524   5.363  18.069  0.00  0.00    +0.000 A 
ATOM     11  C   UNL     1       4.108   4.496  19.077  0.00  0.00    +0.000 A 
ATOM     12  N   UNL     1       4.836   3.332  19.337  0.00  0.00    +0.000 N 
ATOM     13  H   UNL     1       5.735   3.182  18.895  0.00  0.00    +0.000 HD
ENDROOT
BRANCH   7  14
ATOM     14  C   UNL     1       2.063   8.236  18.565  0.00  0.00    +0.000 C 
ATOM     15  O   UNL     1       2.100   8.805  17.477  0.00  0.00    +0.000 OA
ATOM     16  N   UNL     1       1.453   8.726  19.707  0.00  0.00    +0.000 N 
ATOM     17  H   UNL     1       1.605   8.221  20.574  0.00  0.00    +0.000 HD
BRANCH  16  18
ATOM     18  C   UNL     1       0.746   9.944  19.817  0.00  0.00    +0.000 A 
ATOM     19  C   UNL     1       1.225  11.044  20.552  0.00  0.00    +0.000 A 
ATOM     20  C   UNL     1       0.467  12.209  20.691  0.00  0.00    +0.000 A 
ATOM     21  C   UNL     1      -0.774  12.255  20.087  0.00  0.00    +0.000 A 
ATOM     22  C   UNL     1      -1.250  11.186  19.344  0.00  0.00    +0.000 A 
ATOM     23  C   UNL     1      -0.498  10.032  19.177  0.00  0.00    +0.000 A 
ATOM     24  C   UNL     1      -2.633  11.493  18.900  0.00  0.00    +0.000 C 
ATOM     25  O   UNL     1      -2.763  12.917  19.126  0.00  0.00    +0.000 OA
ATOM     26  C   UNL     1      -1.808  13.318  20.137  0.00  0.00    +0.000 C 
ENDBRANCH  16  18
ENDBRANCH   7  14
TORSDOF 2
ENDMDL
