MODEL 1
REMARK VINA RESULT:      -8.8      0.000      0.000
REMARK  Name = 
REMARK  3 active torsions:
REMARK  status: ('A' for Active; 'I' for Inactive)
REMARK    1  A    between atoms: C_2  and  C_13
REMARK    2  A    between atoms: C_17  and  S_18
REMARK    3  A    between atoms: S_18  and  N_21
REMARK                            x       y       z     vdW  Elec       q    Type
REMARK                         _______ _______ _______ _____ _____    ______ ____
ROOT
ATOM      1  C   UNL     1       2.635   4.606  18.879  0.00  0.00    +0.000 A 
ATOM      2  C   UNL     1       2.321   3.247  19.014  0.00  0.00    +0.000 A 
ATOM      3  C   UNL     1       3.002   2.292  18.253  0.00  0.00    +0.000 A 
ATOM      4  C   UNL     1       4.007   2.693  17.369  0.00  0.00    +0.000 A 
ATOM      5  C   UNL     1       4.330   4.051  17.247  0.00  0.00    +0.000 A 
ATOM      6  C   UNL     1       3.631   5.015  17.986  0.00  0.00    +0.000 A 
ENDROOT
BRANCH   1   8
ATOM      7  O   UNL     1       1.094   5.203  20.537  0.00  0.00    +0.000 OA
ATOM      8  C   UNL     1       1.950   5.595  19.751  0.00  0.00    +0.000 C 
ATOM      9  N   UNL     1       2.334   6.911  19.568  0.00  0.00    +0.000 N 
ATOM     10  C   UNL     1       1.653   7.892  20.242  0.00  0.00    +0.000 A 
ATOM     11  N   UNL     1       1.186   8.988  19.695  0.00  0.00    +0.000 NA
ATOM     12  C   UNL     1       0.487   9.614  20.701  0.00  0.00    +0.000 A 
ATOM     13  C   UNL     1      -0.343  10.743  20.650  0.00  0.00    +0.000 A 
ATOM     14  C   UNL     1      -0.905  11.218  21.842  0.00  0.00    +0.000 A 
ATOM     15  C   UNL     1      -0.624  10.598  23.063  0.00  0.00    +0.000 A 
ATOM     16  C   UNL     1       0.177   9.452  23.131  0.00  0.00    +0.000 A 
ATOM     17  C   UNL     1       0.681   8.973  21.919  0.00  0.00    +0.000 A 
ATOM     18  N   UNL     1       1.396   7.850  21.589  0.00  0.00    +0.000 N 
ATOM     19  H   UNL     1       2.670   7.184  18.653  0.00  0.00    +0.000 HD
ATOM     20  H   UNL     1       1.680   7.109  22.212  0.00  0.00    +0.000 HD
ENDBRANCH   1   8
BRANCH   5  21
ATOM     21  S   UNL     1       5.536   4.577  16.029  0.00  0.00    +0.000 S 
ATOM     22  O   UNL     1       6.111   3.390  15.457  0.00  0.00    +0.000 OA
ATOM     23  O   UNL     1       4.863   5.552  15.197  0.00  0.00    +0.000 OA
BRANCH  21  24
ATOM     24  N   UNL     1       6.739   5.398  16.931  0.00  0.00    +0.000 NA
ATOM     25  C   UNL     1       6.629   6.880  16.947  0.00  0.00    +0.000 C 
ATOM     26  C   UNL     1       7.824   7.532  17.633  0.00  0.00    +0.000 C 
ATOM     27  C   UNL     1       8.064   6.935  19.011  0.00  0.00    +0.000 C 
ATOM     28  C   UNL     1       8.305   5.442  18.867  0.00  0.00    +0.000 C 
ATOM     29  C   UNL     1       7.115   4.753  18.209  0.00  0.00    +0.000 C 
ENDBRANCH  21  24
ENDBRANCH   5  21
TORSDOF 3
ENDMDL
MODEL 2
REMARK VINA RESULT:      -8.7      2.206      2.805
REMARK  Name = 
REMARK  3 active torsions:
REMARK  status: ('A' for Active; 'I' for Inactive)
REMARK    1  A    between atoms: C_2  and  C_13
REMARK    2  A    between atoms: C_17  and  S_18
REMARK    3  A    between atoms: S_18  and  N_21
REMARK                            x       y       z     vdW  Elec       q    Type
REMARK                         _______ _______ _______ _____ _____    ______ ____
ROOT
ATOM      1  C   UNL     1       3.202   5.237  18.376  0.00  0.00    +0.000 A 
ATOM      2  C   UNL     1       2.705   3.979  18.014  0.00  0.00    +0.000 A 
ATOM      3  C   UNL     1       3.444   3.152  17.163  0.00  0.00    +0.000 A 
ATOM      4  C   UNL     1       4.688   3.575  16.687  0.00  0.00    +0.000 A 
ATOM      5  C   UNL     1       5.190   4.827  17.064  0.00  0.00    +0.000 A 
ATOM      6  C   UNL     1       4.441   5.673  17.892  0.00  0.00    +0.000 A 
ENDROOT
BRANCH   1   8
ATOM      7  O   UNL     1       1.708   5.512  20.157  0.00  0.00    +0.000 OA
ATOM      8  C   UNL     1       2.434   6.069  19.338  0.00  0.00    +0.000 C 
ATOM      9  N   UNL     1       2.590   7.435  19.197  0.00  0.00    +0.000 N 
ATOM     10  C   UNL     1       1.812   8.266  19.963  0.00  0.00    +0.000 A 
ATOM     11  N   UNL     1       1.140   9.293  19.503  0.00  0.00    +0.000 NA
ATOM     12  C   UNL     1       0.425   9.758  20.582  0.00  0.00    +0.000 A 
ATOM     13  C   UNL     1      -0.574  10.740  20.641  0.00  0.00    +0.000 A 
ATOM     14  C   UNL     1      -1.117  11.071  21.889  0.00  0.00    +0.000 A 
ATOM     15  C   UNL     1      -0.656  10.457  23.057  0.00  0.00    +0.000 A 
ATOM     16  C   UNL     1       0.319   9.453  23.015  0.00  0.00    +0.000 A 
ATOM     17  C   UNL     1       0.805   9.109  21.751  0.00  0.00    +0.000 A 
ATOM     18  N   UNL     1       1.662   8.130  21.320  0.00  0.00    +0.000 N 
ATOM     19  H   UNL     1       2.813   7.795  18.278  0.00  0.00    +0.000 HD
ATOM     20  H   UNL     1       2.104   7.420  21.884  0.00  0.00    +0.000 HD
ENDBRANCH   1   8
BRANCH   5  21
ATOM     21  S   UNL     1       6.729   5.419  16.360  0.00  0.00    +0.000 S 
ATOM     22  O   UNL     1       6.760   6.845  16.538  0.00  0.00    +0.000 OA
ATOM     23  O   UNL     1       7.771   4.579  16.915  0.00  0.00    +0.000 OA
BRANCH  21  24
ATOM     24  N   UNL     1       6.609   5.071  14.687  0.00  0.00    +0.000 NA
ATOM     25  C   UNL     1       7.796   5.433  13.869  0.00  0.00    +0.000 C 
ATOM     26  C   UNL     1       7.540   5.239  12.380  0.00  0.00    +0.000 C 
ATOM     27  C   UNL     1       7.015   3.842  12.085  0.00  0.00    +0.000 C 
ATOM     28  C   UNL     1       5.726   3.627  12.861  0.00  0.00    +0.000 C 
ATOM     29  C   UNL     1       5.951   3.786  14.360  0.00  0.00    +0.000 C 
ENDBRANCH  21  24
ENDBRANCH   5  21
TORSDOF 3
ENDMDL
MODEL 3
REMARK VINA RESULT:      -8.6      4.514      7.916
REMARK  Name = 
REMARK  3 active torsions:
REMARK  status: ('A' for Active; 'I' for Inactive)
REMARK    1  A    between atoms: C_2  and  C_13
REMARK    2  A    between atoms: C_17  and  S_18
REMARK    3  A    between atoms: S_18  and  N_21
REMARK                            x       y       z     vdW  Elec       q    Type
REMARK                         _______ _______ _______ _____ _____    ______ ____
ROOT
ATOM      1  C   UNL     1       7.966   7.875  18.236  0.00  0.00    +0.000 A 
ATOM      2  C   UNL     1       8.440   6.984  19.208  0.00  0.00    +0.000 A 
ATOM      3  C   UNL     1       8.091   5.632  19.146  0.00  0.00    +0.000 A 
ATOM      4  C   UNL     1       7.283   5.167  18.106  0.00  0.00    +0.000 A 
ATOM      5  C   UNL     1       6.824   6.057  17.127  0.00  0.00    +0.000 A 
ATOM      6  C   UNL     1       7.145   7.419  17.199  0.00  0.00    +0.000 A 
ENDROOT
BRANCH   1   8
ATOM      7  O   UNL     1       8.051  10.055  17.386  0.00  0.00    +0.000 OA
ATOM      8  C   UNL     1       8.408   9.294  18.280  0.00  0.00    +0.000 C 
ATOM      9  N   UNL     1       9.231   9.625  19.340  0.00  0.00    +0.000 N 
ATOM     10  C   UNL     1       9.784  10.880  19.374  0.00  0.00    +0.000 A 
ATOM     11  N   UNL     1      11.050  11.132  19.598  0.00  0.00    +0.000 NA
ATOM     12  C   UNL     1      11.174  12.491  19.427  0.00  0.00    +0.000 A 
ATOM     13  C   UNL     1      12.327  13.290  19.393  0.00  0.00    +0.000 A 
ATOM     14  C   UNL     1      12.178  14.676  19.255  0.00  0.00    +0.000 A 
ATOM     15  C   UNL     1      10.909  15.257  19.180  0.00  0.00    +0.000 A 
ATOM     16  C   UNL     1       9.748  14.474  19.180  0.00  0.00    +0.000 A 
ATOM     17  C   UNL     1       9.930  13.091  19.268  0.00  0.00    +0.000 A 
ATOM     18  N   UNL     1       9.062  12.033  19.195  0.00  0.00    +0.000 N 
ATOM     19  H   UNL     1       9.813   8.897  19.735  0.00  0.00    +0.000 HD
ATOM     20  H   UNL     1       8.068  12.076  19.027  0.00  0.00    +0.000 HD
ENDBRANCH   1   8
BRANCH   5  21
ATOM     21  S   UNL     1       5.692   5.485  15.860  0.00  0.00    +0.000 S 
ATOM     22  O   UNL     1       5.474   6.581  14.955  0.00  0.00    +0.000 OA
ATOM     23  O   UNL     1       6.227   4.225  15.385  0.00  0.00    +0.000 OA
BRANCH  21  24
ATOM     24  N   UNL     1       4.232   5.154  16.694  0.00  0.00    +0.000 NA
ATOM     25  C   UNL     1       4.032   3.738  17.100  0.00  0.00    +0.000 C 
ATOM     26  C   UNL     1       2.646   3.505  17.688  0.00  0.00    +0.000 C 
ATOM     27  C   UNL     1       2.344   4.495  18.803  0.00  0.00    +0.000 C 
ATOM     28  C   UNL     1       2.438   5.906  18.247  0.00  0.00    +0.000 C 
ATOM     29  C   UNL     1       3.823   6.183  17.675  0.00  0.00    +0.000 C 
ENDBRANCH  21  24
ENDBRANCH   5  21
TORSDOF 3
ENDMDL
MODEL 4
REMARK VINA RESULT:      -8.6      2.566      3.267
REMARK  Name = 
REMARK  3 active torsions:
REMARK  status: ('A' for Active; 'I' for Inactive)
REMARK    1  A    between atoms: C_2  and  C_13
REMARK    2  A    between atoms: C_17  and  S_18
REMARK    3  A    between atoms: S_18  and  N_21
REMARK                            x       y       z     vdW  Elec       q    Type
REMARK                         _______ _______ _______ _____ _____    ______ ____
ROOT
ATOM      1  C   UNL     1       3.291   5.877  17.990  0.00  0.00    +0.000 A 
ATOM      2  C   UNL     1       2.731   4.597  17.897  0.00  0.00    +0.000 A 
ATOM      3  C   UNL     1       3.461   3.554  17.319  0.00  0.00    +0.000 A 
ATOM      4  C   UNL     1       4.756   3.786  16.850  0.00  0.00    +0.000 A 
ATOM      5  C   UNL     1       5.320   5.063  16.959  0.00  0.00    +0.000 A 
ATOM      6  C   UNL     1       4.583   6.120  17.510  0.00  0.00    +0.000 A 
ENDROOT
BRANCH   1   8
ATOM      7  O   UNL     1       2.152   6.775  19.828  0.00  0.00    +0.000 OA
ATOM      8  C   UNL     1       2.526   6.953  18.673  0.00  0.00    +0.000 C 
ATOM      9  N   UNL     1       2.272   8.076  17.908  0.00  0.00    +0.000 N 
ATOM     10  C   UNL     1       1.460   9.053  18.427  0.00  0.00    +0.000 A 
ATOM     11  N   UNL     1       0.457   9.607  17.790  0.00  0.00    +0.000 NA
ATOM     12  C   UNL     1      -0.135  10.433  18.716  0.00  0.00    +0.000 A 
ATOM     13  C   UNL     1      -1.334  11.156  18.637  0.00  0.00    +0.000 A 
ATOM     14  C   UNL     1      -1.695  11.977  19.713  0.00  0.00    +0.000 A 
ATOM     15  C   UNL     1      -0.866  12.097  20.832  0.00  0.00    +0.000 A 
ATOM     16  C   UNL     1       0.319  11.360  20.943  0.00  0.00    +0.000 A 
ATOM     17  C   UNL     1       0.626  10.511  19.877  0.00  0.00    +0.000 A 
ATOM     18  N   UNL     1       1.618   9.586  19.682  0.00  0.00    +0.000 N 
ATOM     19  H   UNL     1       2.206   7.963  16.905  0.00  0.00    +0.000 HD
ATOM     20  H   UNL     1       2.338   9.322  20.338  0.00  0.00    +0.000 HD
ENDBRANCH   1   8
BRANCH   5  21
ATOM     21  S   UNL     1       6.935   5.390  16.252  0.00  0.00    +0.000 S 
ATOM     22  O   UNL     1       7.199   6.793  16.420  0.00  0.00    +0.000 OA
ATOM     23  O   UNL     1       7.825   4.395  16.812  0.00  0.00    +0.000 OA
BRANCH  21  24
ATOM     24  N   UNL     1       6.756   5.055  14.582  0.00  0.00    +0.000 NA
ATOM     25  C   UNL     1       7.900   5.456  13.720  0.00  0.00    +0.000 C 
ATOM     26  C   UNL     1       7.590   5.270  12.241  0.00  0.00    +0.000 C 
ATOM     27  C   UNL     1       7.090   3.862  11.952  0.00  0.00    +0.000 C 
ATOM     28  C   UNL     1       5.840   3.606  12.776  0.00  0.00    +0.000 C 
ATOM     29  C   UNL     1       6.120   3.756  14.267  0.00  0.00    +0.000 C 
ENDBRANCH  21  24
ENDBRANCH   5  21
TORSDOF 3
ENDMDL
MODEL 5
REMARK VINA RESULT:      -8.6      4.000      9.081
REMARK  Name = 
REMARK  3 active torsions:
REMARK  status: ('A' for Active; 'I' for Inactive)
REMARK    1  A    between atoms: C_2  and  C_13
REMARK    2  A    between atoms: C_17  and  S_18
REMARK    3  A    between atoms: S_18  and  N_21
REMARK                            x       y       z     vdW  Elec       q    Type
REMARK                         _______ _______ _______ _____ _____    ______ ____
ROOT
ATOM      1  C   UNL     1       0.603   9.100  21.080  0.00  0.00    +0.000 A 
ATOM      2  C   UNL     1       0.471   9.157  22.473  0.00  0.00    +0.000 A 
ATOM      3  C   UNL     1      -0.286  10.173  23.063  0.00  0.00    +0.000 A 
ATOM      4  C   UNL     1      -0.925  11.122  22.261  0.00  0.00    +0.000 A 
ATOM      5  C   UNL     1      -0.804  11.053  20.868  0.00  0.00    +0.000 A 
ATOM      6  C   UNL     1      -0.022  10.055  20.271  0.00  0.00    +0.000 A 
ENDROOT
BRANCH   1   8
ATOM      7  O   UNL     1       1.947   8.152  19.413  0.00  0.00    +0.000 OA
ATOM      8  C   UNL     1       1.352   7.969  20.471  0.00  0.00    +0.000 C 
ATOM      9  N   UNL     1       1.281   6.773  21.159  0.00  0.00    +0.000 N 
ATOM     10  C   UNL     1       1.836   5.655  20.591  0.00  0.00    +0.000 A 
ATOM     11  N   UNL     1       1.239   4.493  20.489  0.00  0.00    +0.000 NA
ATOM     12  C   UNL     1       2.107   3.713  19.761  0.00  0.00    +0.000 A 
ATOM     13  C   UNL     1       1.925   2.431  19.223  0.00  0.00    +0.000 A 
ATOM     14  C   UNL     1       2.998   1.824  18.557  0.00  0.00    +0.000 A 
ATOM     15  C   UNL     1       4.234   2.469  18.454  0.00  0.00    +0.000 A 
ATOM     16  C   UNL     1       4.425   3.762  18.957  0.00  0.00    +0.000 A 
ATOM     17  C   UNL     1       3.322   4.360  19.571  0.00  0.00    +0.000 A 
ATOM     18  N   UNL     1       3.107   5.617  20.074  0.00  0.00    +0.000 N 
ATOM     19  H   UNL     1       0.456   6.595  21.719  0.00  0.00    +0.000 HD
ATOM     20  H   UNL     1       3.753   6.392  20.063  0.00  0.00    +0.000 HD
ENDBRANCH   1   8
BRANCH   5  21
ATOM     21  S   UNL     1      -1.525  12.337  19.844  0.00  0.00    +0.000 S 
ATOM     22  O   UNL     1      -2.365  13.138  20.691  0.00  0.00    +0.000 OA
ATOM     23  O   UNL     1      -0.423  12.931  19.114  0.00  0.00    +0.000 OA
BRANCH  21  24
ATOM     24  N   UNL     1      -2.507  11.499  18.718  0.00  0.00    +0.000 NA
ATOM     25  C   UNL     1      -3.944  11.880  18.712  0.00  0.00    +0.000 C 
ATOM     26  C   UNL     1      -4.768  10.978  17.802  0.00  0.00    +0.000 C 
ATOM     27  C   UNL     1      -4.165  10.898  16.408  0.00  0.00    +0.000 C 
ATOM     28  C   UNL     1      -2.746  10.364  16.515  0.00  0.00    +0.000 C 
ATOM     29  C   UNL     1      -1.885  11.260  17.398  0.00  0.00    +0.000 C 
ENDBRANCH  21  24
ENDBRANCH   5  21
TORSDOF 3
ENDMDL
MODEL 6
REMARK VINA RESULT:      -8.6      6.376      9.778
REMARK  Name = 
REMARK  3 active torsions:
REMARK  status: ('A' for Active; 'I' for Inactive)
REMARK    1  A    between atoms: C_2  and  C_13
REMARK    2  A    between atoms: C_17  and  S_18
REMARK    3  A    between atoms: S_18  and  N_21
REMARK                            x       y       z     vdW  Elec       q    Type
REMARK                         _______ _______ _______ _____ _____    ______ ____
ROOT
ATOM      1  C   UNL     1       9.213  10.484  18.847  0.00  0.00    +0.000 A 
ATOM      2  C   UNL     1       9.398  10.459  20.235  0.00  0.00    +0.000 A 
ATOM      3  C   UNL     1      10.103  11.488  20.866  0.00  0.00    +0.000 A 
ATOM      4  C   UNL     1      10.609  12.550  20.112  0.00  0.00    +0.000 A 
ATOM      5  C   UNL     1      10.409  12.581  18.727  0.00  0.00    +0.000 A 
ATOM      6  C   UNL     1       9.729  11.538  18.084  0.00  0.00    +0.000 A 
ENDROOT
BRANCH   1   8
ATOM      7  O   UNL     1       7.539   9.737  17.390  0.00  0.00    +0.000 OA
ATOM      8  C   UNL     1       8.398   9.418  18.207  0.00  0.00    +0.000 C 
ATOM      9  N   UNL     1       8.671   8.130  18.628  0.00  0.00    +0.000 N 
ATOM     10  C   UNL     1       7.871   7.110  18.179  0.00  0.00    +0.000 A 
ATOM     11  N   UNL     1       7.338   6.189  18.943  0.00  0.00    +0.000 NA
ATOM     12  C   UNL     1       6.534   5.455  18.102  0.00  0.00    +0.000 A 
ATOM     13  C   UNL     1       5.611   4.443  18.400  0.00  0.00    +0.000 A 
ATOM     14  C   UNL     1       4.947   3.808  17.342  0.00  0.00    +0.000 A 
ATOM     15  C   UNL     1       5.217   4.154  16.016  0.00  0.00    +0.000 A 
ATOM     16  C   UNL     1       6.112   5.184  15.700  0.00  0.00    +0.000 A 
ATOM     17  C   UNL     1       6.720   5.832  16.777  0.00  0.00    +0.000 A 
ATOM     18  N   UNL     1       7.548   6.922  16.859  0.00  0.00    +0.000 N 
ATOM     19  H   UNL     1       9.030   8.004  19.566  0.00  0.00    +0.000 HD
ATOM     20  H   UNL     1       7.864   7.501  16.096  0.00  0.00    +0.000 HD
ENDBRANCH   1   8
BRANCH   5  21
ATOM     21  S   UNL     1      11.158  13.880  17.745  0.00  0.00    +0.000 S 
ATOM     22  O   UNL     1      12.326  14.330  18.451  0.00  0.00    +0.000 OA
ATOM     23  O   UNL     1      11.260  13.355  16.398  0.00  0.00    +0.000 OA
BRANCH  21  24
ATOM     24  N   UNL     1       9.998  15.141  17.730  0.00  0.00    +0.000 NA
ATOM     25  C   UNL     1       8.624  14.754  18.143  0.00  0.00    +0.000 C 
ATOM     26  C   UNL     1       7.629  15.890  17.946  0.00  0.00    +0.000 C 
ATOM     27  C   UNL     1       8.113  17.172  18.608  0.00  0.00    +0.000 C 
ATOM     28  C   UNL     1       9.458  17.555  18.012  0.00  0.00    +0.000 C 
ATOM     29  C   UNL     1      10.487  16.450  18.217  0.00  0.00    +0.000 C 
ENDBRANCH  21  24
ENDBRANCH   5  21
TORSDOF 3
ENDMDL
MODEL 7
REMARK VINA RESULT:      -8.5      2.679      3.634
REMARK  Name = 
REMARK  3 active torsions:
REMARK  status: ('A' for Active; 'I' for Inactive)
REMARK    1  A    between atoms: C_2  and  C_13
REMARK    2  A    between atoms: C_17  and  S_18
REMARK    3  A    between atoms: S_18  and  N_21
REMARK                            x       y       z     vdW  Elec       q    Type
REMARK                         _______ _______ _______ _____ _____    ______ ____
ROOT
ATOM      1  C   UNL     1       3.470   6.632  17.796  0.00  0.00    +0.000 A 
ATOM      2  C   UNL     1       2.951   5.433  18.303  0.00  0.00    +0.000 A 
ATOM      3  C   UNL     1       3.711   4.261  18.241  0.00  0.00    +0.000 A 
ATOM      4  C   UNL     1       4.993   4.289  17.688  0.00  0.00    +0.000 A 
ATOM      5  C   UNL     1       5.516   5.492  17.197  0.00  0.00    +0.000 A 
ATOM      6  C   UNL     1       4.749   6.664  17.229  0.00  0.00    +0.000 A 
ENDROOT
BRANCH   1   8
ATOM      7  O   UNL     1       2.801   8.763  17.096  0.00  0.00    +0.000 OA
ATOM      8  C   UNL     1       2.676   7.880  17.938  0.00  0.00    +0.000 C 
ATOM      9  N   UNL     1       1.867   7.943  19.057  0.00  0.00    +0.000 N 
ATOM     10  C   UNL     1       1.206   9.115  19.324  0.00  0.00    +0.000 A 
ATOM     11  N   UNL     1       1.182   9.710  20.491  0.00  0.00    +0.000 NA
ATOM     12  C   UNL     1       0.511  10.890  20.271  0.00  0.00    +0.000 A 
ATOM     13  C   UNL     1       0.321  11.987  21.124  0.00  0.00    +0.000 A 
ATOM     14  C   UNL     1      -0.456  13.061  20.672  0.00  0.00    +0.000 A 
ATOM     15  C   UNL     1      -1.054  13.032  19.409  0.00  0.00    +0.000 A 
ATOM     16  C   UNL     1      -0.851  11.960  18.532  0.00  0.00    +0.000 A 
ATOM     17  C   UNL     1      -0.030  10.927  18.991  0.00  0.00    +0.000 A 
ATOM     18  N   UNL     1       0.466   9.798  18.392  0.00  0.00    +0.000 N 
ATOM     19  H   UNL     1       2.151   7.423  19.878  0.00  0.00    +0.000 HD
ATOM     20  H   UNL     1       0.331   9.512  17.434  0.00  0.00    +0.000 HD
ENDBRANCH   1   8
BRANCH   5  21
ATOM     21  S   UNL     1       7.113   5.506  16.382  0.00  0.00    +0.000 S 
ATOM     22  O   UNL     1       7.609   6.853  16.438  0.00  0.00    +0.000 OA
ATOM     23  O   UNL     1       7.866   4.412  16.961  0.00  0.00    +0.000 OA
BRANCH  21  24
ATOM     24  N   UNL     1       6.774   5.105  14.751  0.00  0.00    +0.000 NA
ATOM     25  C   UNL     1       7.885   5.334  13.790  0.00  0.00    +0.000 C 
ATOM     26  C   UNL     1       7.447   5.106  12.349  0.00  0.00    +0.000 C 
ATOM     27  C   UNL     1       6.782   3.748  12.181  0.00  0.00    +0.000 C 
ATOM     28  C   UNL     1       5.577   3.672  13.104  0.00  0.00    +0.000 C 
ATOM     29  C   UNL     1       5.984   3.869  14.560  0.00  0.00    +0.000 C 
ENDBRANCH  21  24
ENDBRANCH   5  21
TORSDOF 3
ENDMDL
MODEL 8
REMARK VINA RESULT:      -8.4      3.986      9.090
REMARK  Name = 
REMARK  3 active torsions:
REMARK  status: ('A' for Active; 'I' for Inactive)
REMARK    1  A    between atoms: C_2  and  C_13
REMARK    2  A    between atoms: C_17  and  S_18
REMARK    3  A    between atoms: S_18  and  N_21
REMARK                            x       y       z     vdW  Elec       q    Type
REMARK                         _______ _______ _______ _____ _____    ______ ____
ROOT
ATOM      1  C   UNL     1       0.716   9.073  20.943  0.00  0.00    +0.000 A 
ATOM      2  C   UNL     1       0.574   9.040  22.336  0.00  0.00    +0.000 A 
ATOM      3  C   UNL     1      -0.200  10.008  22.983  0.00  0.00    +0.000 A 
ATOM      4  C   UNL     1      -0.845  10.998  22.238  0.00  0.00    +0.000 A 
ATOM      5  C   UNL     1      -0.715  11.019  20.843  0.00  0.00    +0.000 A 
ATOM      6  C   UNL     1       0.084  10.069  20.191  0.00  0.00    +0.000 A 
ENDROOT
BRANCH   1   8
ATOM      7  O   UNL     1       1.777   6.986  20.907  0.00  0.00    +0.000 OA
ATOM      8  C   UNL     1       1.483   7.992  20.269  0.00  0.00    +0.000 C 
ATOM      9  N   UNL     1       1.830   8.243  18.955  0.00  0.00    +0.000 N 
ATOM     10  C   UNL     1       2.649   7.351  18.311  0.00  0.00    +0.000 A 
ATOM     11  N   UNL     1       3.711   7.679  17.617  0.00  0.00    +0.000 NA
ATOM     12  C   UNL     1       4.280   6.480  17.256  0.00  0.00    +0.000 A 
ATOM     13  C   UNL     1       5.511   6.221  16.636  0.00  0.00    +0.000 A 
ATOM     14  C   UNL     1       5.839   4.895  16.324  0.00  0.00    +0.000 A 
ATOM     15  C   UNL     1       4.950   3.853  16.599  0.00  0.00    +0.000 A 
ATOM     16  C   UNL     1       3.730   4.087  17.246  0.00  0.00    +0.000 A 
ATOM     17  C   UNL     1       3.453   5.413  17.589  0.00  0.00    +0.000 A 
ATOM     18  N   UNL     1       2.437   5.995  18.301  0.00  0.00    +0.000 N 
ATOM     19  H   UNL     1       1.952   9.207  18.672  0.00  0.00    +0.000 HD
ATOM     20  H   UNL     1       1.668   5.524  18.755  0.00  0.00    +0.000 HD
ENDBRANCH   1   8
BRANCH   5  21
ATOM     21  S   UNL     1      -1.444  12.355  19.897  0.00  0.00    +0.000 S 
ATOM     22  O   UNL     1      -2.236  13.139  20.805  0.00  0.00    +0.000 OA
ATOM     23  O   UNL     1      -0.358  12.956  19.151  0.00  0.00    +0.000 OA
BRANCH  21  24
ATOM     24  N   UNL     1      -2.485  11.581  18.778  0.00  0.00    +0.000 NA
ATOM     25  C   UNL     1      -3.928  11.917  18.904  0.00  0.00    +0.000 C 
ATOM     26  C   UNL     1      -4.792  11.067  17.983  0.00  0.00    +0.000 C 
ATOM     27  C   UNL     1      -4.290  11.120  16.548  0.00  0.00    +0.000 C 
ATOM     28  C   UNL     1      -2.855  10.623  16.510  0.00  0.00    +0.000 C 
ATOM     29  C   UNL     1      -1.954  11.470  17.401  0.00  0.00    +0.000 C 
ENDBRANCH  21  24
ENDBRANCH   5  21
TORSDOF 3
ENDMDL
MODEL 9
REMARK VINA RESULT:      -8.3      3.875      9.045
REMARK  Name = 
REMARK  3 active torsions:
REMARK  status: ('A' for Active; 'I' for Inactive)
REMARK    1  A    between atoms: C_2  and  C_13
REMARK    2  A    between atoms: C_17  and  S_18
REMARK    3  A    between atoms: S_18  and  N_21
REMARK                            x       y       z     vdW  Elec       q    Type
REMARK                         _______ _______ _______ _____ _____    ______ ____
ROOT
ATOM      1  C   UNL     1       0.736   9.138  21.132  0.00  0.00    +0.000 A 
ATOM      2  C   UNL     1       0.344   9.064  22.474  0.00  0.00    +0.000 A 
ATOM      3  C   UNL     1      -0.382  10.111  23.050  0.00  0.00    +0.000 A 
ATOM      4  C   UNL     1      -0.729  11.225  22.281  0.00  0.00    +0.000 A 
ATOM      5  C   UNL     1      -0.349  11.289  20.935  0.00  0.00    +0.000 A 
ATOM      6  C   UNL     1       0.404  10.257  20.359  0.00  0.00    +0.000 A 
ENDROOT
BRANCH   1   8
ATOM      7  O   UNL     1       2.035   8.142  19.458  0.00  0.00    +0.000 OA
ATOM      8  C   UNL     1       1.443   7.982  20.521  0.00  0.00    +0.000 C 
ATOM      9  N   UNL     1       1.338   6.791  21.214  0.00  0.00    +0.000 N 
ATOM     10  C   UNL     1       1.853   5.654  20.645  0.00  0.00    +0.000 A 
ATOM     11  N   UNL     1       1.217   4.511  20.552  0.00  0.00    +0.000 NA
ATOM     12  C   UNL     1       2.053   3.701  19.820  0.00  0.00    +0.000 A 
ATOM     13  C   UNL     1       1.825   2.424  19.287  0.00  0.00    +0.000 A 
ATOM     14  C   UNL     1       2.872   1.781  18.615  0.00  0.00    +0.000 A 
ATOM     15  C   UNL     1       4.127   2.385  18.500  0.00  0.00    +0.000 A 
ATOM     16  C   UNL     1       4.365   3.672  18.997  0.00  0.00    +0.000 A 
ATOM     17  C   UNL     1       3.287   4.308  19.617  0.00  0.00    +0.000 A 
ATOM     18  N   UNL     1       3.117   5.573  20.118  0.00  0.00    +0.000 N 
ATOM     19  H   UNL     1       0.513   6.642  21.781  0.00  0.00    +0.000 HD
ATOM     20  H   UNL     1       3.787   6.326  20.099  0.00  0.00    +0.000 HD
ENDBRANCH   1   8
BRANCH   5  21
ATOM     21  S   UNL     1      -0.691  12.767  19.979  0.00  0.00    +0.000 S 
ATOM     22  O   UNL     1      -1.120  13.782  20.902  0.00  0.00    +0.000 OA
ATOM     23  O   UNL     1       0.467  12.973  19.134  0.00  0.00    +0.000 OA
BRANCH  21  24
ATOM     24  N   UNL     1      -2.009  12.340  18.970  0.00  0.00    +0.000 NA
ATOM     25  C   UNL     1      -1.703  11.361  17.895  0.00  0.00    +0.000 C 
ATOM     26  C   UNL     1      -2.883  11.164  16.952  0.00  0.00    +0.000 C 
ATOM     27  C   UNL     1      -4.154  10.832  17.718  0.00  0.00    +0.000 C 
ATOM     28  C   UNL     1      -4.453  11.962  18.689  0.00  0.00    +0.000 C 
ATOM     29  C   UNL     1      -3.303  12.169  19.667  0.00  0.00    +0.000 C 
ENDBRANCH  21  24
ENDBRANCH   5  21
TORSDOF 3
ENDMDL
