MODEL 1
REMARK VINA RESULT:      -8.7      0.000      0.000
REMARK  Name = 
REMARK  5 active torsions:
REMARK  status: ('A' for Active; 'I' for Inactive)
REMARK    1  A    between atoms: C_1  and  C_2
REMARK    2  A    between atoms: C_2  and  N_3
REMARK    3  A    between atoms: C_2  and  C_17
REMARK    4  A    between atoms: C_4  and  C_6
REMARK    5  A    between atoms: C_21  and  N_22
REMARK                            x       y       z     vdW  Elec       q    Type
REMARK                         _______ _______ _______ _____ _____    ______ ____
ROOT
ATOM      1  N   UNL     1       4.059   6.122  18.022  0.00  0.00    +0.000 N 
ATOM      2  C   UNL     1       5.321   5.576  18.003  0.00  0.00    +0.000 C 
ATOM      3  O   UNL     1       5.974   5.272  18.986  0.00  0.00    +0.000 OA
ATOM      4  H   UNL     1       3.669   6.448  17.144  0.00  0.00    +0.000 HD
ENDROOT
BRANCH   2   5
ATOM      5  C   UNL     1       5.889   5.387  16.598  0.00  0.00    +0.000 A 
ATOM      6  N   UNL     1       7.049   5.948  16.362  0.00  0.00    +0.000 NA
ATOM      7  N   UNL     1       7.610   5.842  15.128  0.00  0.00    +0.000 N 
ATOM      8  C   UNL     1       7.137   4.942  14.160  0.00  0.00    +0.000 A 
ATOM      9  C   UNL     1       7.851   4.727  12.974  0.00  0.00    +0.000 A 
ATOM     10  C   UNL     1       7.339   3.888  11.978  0.00  0.00    +0.000 A 
ATOM     11  C   UNL     1       6.098   3.274  12.144  0.00  0.00    +0.000 A 
ATOM     12  C   UNL     1       5.364   3.498  13.307  0.00  0.00    +0.000 A 
ATOM     13  C   UNL     1       5.896   4.327  14.300  0.00  0.00    +0.000 A 
ATOM     14  C   UNL     1       5.158   4.609  15.533  0.00  0.00    +0.000 A 
ATOM     15  O   UNL     1       3.998   4.260  15.680  0.00  0.00    +0.000 OA
ATOM     16  H   UNL     1       8.594   6.102  15.048  0.00  0.00    +0.000 HD
ENDBRANCH   2   5
BRANCH   1  18
ATOM     17  C   UNL     1       2.542   5.055  19.642  0.00  0.00    +0.000 C 
ATOM     18  C   UNL     1       3.325   6.316  19.258  0.00  0.00    +0.000 C 
BRANCH  18  19
ATOM     19  C   UNL     1       2.398   7.513  19.157  0.00  0.00    +0.000 A 
ATOM     20  C   UNL     1       2.148   8.093  17.911  0.00  0.00    +0.000 A 
ATOM     21  C   UNL     1       1.356   9.229  17.826  0.00  0.00    +0.000 A 
ATOM     22  C   UNL     1       0.811   9.797  18.985  0.00  0.00    +0.000 A 
ATOM     23  C   UNL     1       1.037   9.260  20.259  0.00  0.00    +0.000 A 
ATOM     24  C   UNL     1       1.813   8.091  20.303  0.00  0.00    +0.000 A 
BRANCH  23  25
ATOM     25  N   UNL     1       0.545   9.847  21.406  0.00  0.00    +0.000 N 
ATOM     26  C   UNL     1       0.745   9.326  22.752  0.00  0.00    +0.000 C 
ATOM     27  C   UNL     1      -0.570   9.642  23.451  0.00  0.00    +0.000 C 
ATOM     28  C   UNL     1      -0.980  10.970  22.843  0.00  0.00    +0.000 C 
ATOM     29  C   UNL     1      -0.470  10.904  21.402  0.00  0.00    +0.000 C 
ENDBRANCH  23  25
ENDBRANCH  18  19
ENDBRANCH   1  18
TORSDOF 4
ENDMDL
MODEL 2
REMARK VINA RESULT:      -8.7      1.497      2.872
REMARK  Name = 
REMARK  5 active torsions:
REMARK  status: ('A' for Active; 'I' for Inactive)
REMARK    1  A    between atoms: C_1  and  C_2
REMARK    2  A    between atoms: C_2  and  N_3
REMARK    3  A    between atoms: C_2  and  C_17
REMARK    4  A    between atoms: C_4  and  C_6
REMARK    5  A    between atoms: C_21  and  N_22
REMARK                            x       y       z     vdW  Elec       q    Type
REMARK                         _______ _______ _______ _____ _____    ______ ____
ROOT
ATOM      1  N   UNL     1       5.102   3.675  18.391  0.00  0.00    +0.000 N 
ATOM      2  C   UNL     1       5.926   4.735  18.094  0.00  0.00    +0.000 C 
ATOM      3  O   UNL     1       6.327   5.564  18.893  0.00  0.00    +0.000 OA
ATOM      4  H   UNL     1       4.736   3.127  17.619  0.00  0.00    +0.000 HD
ENDROOT
BRANCH   2   5
ATOM      5  C   UNL     1       6.308   4.824  16.618  0.00  0.00    +0.000 A 
ATOM      6  N   UNL     1       7.394   5.502  16.341  0.00  0.00    +0.000 NA
ATOM      7  N   UNL     1       7.787   5.645  15.046  0.00  0.00    +0.000 N 
ATOM      8  C   UNL     1       7.235   4.884  14.003  0.00  0.00    +0.000 A 
ATOM      9  C   UNL     1       7.792   4.923  12.719  0.00  0.00    +0.000 A 
ATOM     10  C   UNL     1       7.194   4.224  11.663  0.00  0.00    +0.000 A 
ATOM     11  C   UNL     1       6.021   3.500  11.873  0.00  0.00    +0.000 A 
ATOM     12  C   UNL     1       5.442   3.472  13.140  0.00  0.00    +0.000 A 
ATOM     13  C   UNL     1       6.058   4.163  14.188  0.00  0.00    +0.000 A 
ATOM     14  C   UNL     1       5.481   4.180  15.533  0.00  0.00    +0.000 A 
ATOM     15  O   UNL     1       4.372   3.726  15.761  0.00  0.00    +0.000 OA
ATOM     16  H   UNL     1       8.736   5.988  14.891  0.00  0.00    +0.000 HD
ENDBRANCH   2   5
BRANCH   1  18
ATOM     17  C   UNL     1       4.614   1.871  19.995  0.00  0.00    +0.000 C 
ATOM     18  C   UNL     1       4.685   3.383  19.749  0.00  0.00    +0.000 C 
BRANCH  18  19
ATOM     19  C   UNL     1       3.355   4.042  20.063  0.00  0.00    +0.000 A 
ATOM     20  C   UNL     1       2.235   3.250  20.326  0.00  0.00    +0.000 A 
ATOM     21  C   UNL     1       1.004   3.850  20.545  0.00  0.00    +0.000 A 
ATOM     22  C   UNL     1       0.880   5.245  20.499  0.00  0.00    +0.000 A 
ATOM     23  C   UNL     1       1.970   6.084  20.231  0.00  0.00    +0.000 A 
ATOM     24  C   UNL     1       3.207   5.445  20.050  0.00  0.00    +0.000 A 
BRANCH  23  25
ATOM     25  N   UNL     1       1.840   7.453  20.134  0.00  0.00    +0.000 N 
ATOM     26  C   UNL     1       1.293   8.308  21.180  0.00  0.00    +0.000 C 
ATOM     27  C   UNL     1       0.534   9.374  20.402  0.00  0.00    +0.000 C 
ATOM     28  C   UNL     1       1.385   9.574  19.162  0.00  0.00    +0.000 C 
ATOM     29  C   UNL     1       1.974   8.192  18.875  0.00  0.00    +0.000 C 
ENDBRANCH  23  25
ENDBRANCH  18  19
ENDBRANCH   1  18
TORSDOF 4
ENDMDL
MODEL 3
REMARK VINA RESULT:      -8.5      1.297      1.606
REMARK  Name = 
REMARK  5 active torsions:
REMARK  status: ('A' for Active; 'I' for Inactive)
REMARK    1  A    between atoms: C_1  and  C_2
REMARK    2  A    between atoms: C_2  and  N_3
REMARK    3  A    between atoms: C_2  and  C_17
REMARK    4  A    between atoms: C_4  and  C_6
REMARK    5  A    between atoms: C_21  and  N_22
REMARK                            x       y       z     vdW  Elec       q    Type
REMARK                         _______ _______ _______ _____ _____    ______ ____
ROOT
ATOM      1  N   UNL     1       3.710   5.648  18.304  0.00  0.00    +0.000 N 
ATOM      2  C   UNL     1       5.063   5.442  18.176  0.00  0.00    +0.000 C 
ATOM      3  O   UNL     1       5.897   5.672  19.035  0.00  0.00    +0.000 OA
ATOM      4  H   UNL     1       3.132   5.537  17.478  0.00  0.00    +0.000 HD
ENDROOT
BRANCH   2   5
ATOM      5  C   UNL     1       5.478   4.899  16.810  0.00  0.00    +0.000 A 
ATOM      6  N   UNL     1       4.776   3.894  16.349  0.00  0.00    +0.000 NA
ATOM      7  N   UNL     1       5.098   3.341  15.149  0.00  0.00    +0.000 N 
ATOM      8  C   UNL     1       5.982   3.958  14.249  0.00  0.00    +0.000 A 
ATOM      9  C   UNL     1       6.144   3.457  12.951  0.00  0.00    +0.000 A 
ATOM     10  C   UNL     1       7.082   4.027  12.081  0.00  0.00    +0.000 A 
ATOM     11  C   UNL     1       7.885   5.085  12.506  0.00  0.00    +0.000 A 
ATOM     12  C   UNL     1       7.753   5.577  13.803  0.00  0.00    +0.000 A 
ATOM     13  C   UNL     1       6.801   5.008  14.656  0.00  0.00    +0.000 A 
ATOM     14  C   UNL     1       6.634   5.476  16.033  0.00  0.00    +0.000 A 
ATOM     15  O   UNL     1       7.411   6.269  16.539  0.00  0.00    +0.000 OA
ATOM     16  H   UNL     1       4.408   2.715  14.733  0.00  0.00    +0.000 HD
ENDBRANCH   2   5
BRANCH   1  18
ATOM     17  C   UNL     1       2.220   5.010  20.158  0.00  0.00    +0.000 C 
ATOM     18  C   UNL     1       3.116   6.095  19.550  0.00  0.00    +0.000 C 
BRANCH  18  19
ATOM     19  C   UNL     1       2.339   7.383  19.349  0.00  0.00    +0.000 A 
ATOM     20  C   UNL     1       2.250   7.948  18.075  0.00  0.00    +0.000 A 
ATOM     21  C   UNL     1       1.598   9.160  17.903  0.00  0.00    +0.000 A 
ATOM     22  C   UNL     1       1.034   9.820  19.002  0.00  0.00    +0.000 A 
ATOM     23  C   UNL     1       1.102   9.301  20.302  0.00  0.00    +0.000 A 
ATOM     24  C   UNL     1       1.737   8.056  20.433  0.00  0.00    +0.000 A 
BRANCH  23  25
ATOM     25  N   UNL     1       0.592   9.974  21.393  0.00  0.00    +0.000 N 
ATOM     26  C   UNL     1       0.454   9.401  22.725  0.00  0.00    +0.000 C 
ATOM     27  C   UNL     1      -0.841  10.015  23.240  0.00  0.00    +0.000 C 
ATOM     28  C   UNL     1      -0.825  11.412  22.647  0.00  0.00    +0.000 C 
ATOM     29  C   UNL     1      -0.130  11.245  21.295  0.00  0.00    +0.000 C 
ENDBRANCH  23  25
ENDBRANCH  18  19
ENDBRANCH   1  18
TORSDOF 4
ENDMDL
MODEL 4
REMARK VINA RESULT:      -7.8      4.322      6.881
REMARK  Name = 
REMARK  5 active torsions:
REMARK  status: ('A' for Active; 'I' for Inactive)
REMARK    1  A    between atoms: C_1  and  C_2
REMARK    2  A    between atoms: C_2  and  N_3
REMARK    3  A    between atoms: C_2  and  C_17
REMARK    4  A    between atoms: C_4  and  C_6
REMARK    5  A    between atoms: C_21  and  N_22
REMARK                            x       y       z     vdW  Elec       q    Type
REMARK                         _______ _______ _______ _____ _____    ______ ____
ROOT
ATOM      1  N   UNL     1      -0.232  10.395  18.717  0.00  0.00    +0.000 N 
ATOM      2  C   UNL     1       1.135  10.269  18.793  0.00  0.00    +0.000 C 
ATOM      3  O   UNL     1       1.940  11.152  18.551  0.00  0.00    +0.000 OA
ATOM      4  H   UNL     1      -0.793   9.556  18.822  0.00  0.00    +0.000 HD
ENDROOT
BRANCH   2   5
ATOM      5  C   UNL     1       1.604   8.874  19.200  0.00  0.00    +0.000 A 
ATOM      6  N   UNL     1       1.365   8.521  20.439  0.00  0.00    +0.000 NA
ATOM      7  N   UNL     1       1.772   7.301  20.883  0.00  0.00    +0.000 N 
ATOM      8  C   UNL     1       2.206   6.289  20.011  0.00  0.00    +0.000 A 
ATOM      9  C   UNL     1       2.438   4.991  20.483  0.00  0.00    +0.000 A 
ATOM     10  C   UNL     1       2.944   4.004  19.629  0.00  0.00    +0.000 A 
ATOM     11  C   UNL     1       3.248   4.308  18.303  0.00  0.00    +0.000 A 
ATOM     12  C   UNL     1       3.046   5.602  17.825  0.00  0.00    +0.000 A 
ATOM     13  C   UNL     1       2.526   6.574  18.686  0.00  0.00    +0.000 A 
ATOM     14  C   UNL     1       2.312   7.952  18.239  0.00  0.00    +0.000 A 
ATOM     15  O   UNL     1       2.714   8.344  17.157  0.00  0.00    +0.000 OA
ATOM     16  H   UNL     1       1.384   6.984  21.771  0.00  0.00    +0.000 HD
ENDBRANCH   2   5
BRANCH   1  18
ATOM     17  C   UNL     1      -0.920  12.569  19.647  0.00  0.00    +0.000 C 
ATOM     18  C   UNL     1      -0.871  11.661  18.413  0.00  0.00    +0.000 C 
BRANCH  18  19
ATOM     19  C   UNL     1      -2.263  11.445  17.849  0.00  0.00    +0.000 A 
ATOM     20  C   UNL     1      -2.425  11.166  16.490  0.00  0.00    +0.000 A 
ATOM     21  C   UNL     1      -3.701  11.036  15.961  0.00  0.00    +0.000 A 
ATOM     22  C   UNL     1      -4.825  11.189  16.783  0.00  0.00    +0.000 A 
ATOM     23  C   UNL     1      -4.718  11.479  18.150  0.00  0.00    +0.000 A 
ATOM     24  C   UNL     1      -3.412  11.567  18.659  0.00  0.00    +0.000 A 
BRANCH  23  25
ATOM     25  N   UNL     1      -5.823  11.681  18.950  0.00  0.00    +0.000 N 
ATOM     26  C   UNL     1      -6.013  12.835  19.819  0.00  0.00    +0.000 C 
ATOM     27  C   UNL     1      -6.720  12.249  21.033  0.00  0.00    +0.000 C 
ATOM     28  C   UNL     1      -7.607  11.173  20.435  0.00  0.00    +0.000 C 
ATOM     29  C   UNL     1      -6.811  10.640  19.243  0.00  0.00    +0.000 C 
ENDBRANCH  23  25
ENDBRANCH  18  19
ENDBRANCH   1  18
TORSDOF 4
ENDMDL
MODEL 5
REMARK VINA RESULT:      -7.8      4.174      6.479
REMARK  Name = 
REMARK  5 active torsions:
REMARK  status: ('A' for Active; 'I' for Inactive)
REMARK    1  A    between atoms: C_1  and  C_2
REMARK    2  A    between atoms: C_2  and  N_3
REMARK    3  A    between atoms: C_2  and  C_17
REMARK    4  A    between atoms: C_4  and  C_6
REMARK    5  A    between atoms: C_21  and  N_22
REMARK                            x       y       z     vdW  Elec       q    Type
REMARK                         _______ _______ _______ _____ _____    ______ ____
ROOT
ATOM      1  N   UNL     1       0.131   9.853  19.233  0.00  0.00    +0.000 N 
ATOM      2  C   UNL     1       1.394   9.660  18.727  0.00  0.00    +0.000 C 
ATOM      3  O   UNL     1       2.022  10.471  18.068  0.00  0.00    +0.000 OA
ATOM      4  H   UNL     1      -0.337   9.059  19.659  0.00  0.00    +0.000 HD
ENDROOT
BRANCH   2   5
ATOM      5  C   UNL     1       1.981   8.285  19.040  0.00  0.00    +0.000 A 
ATOM      6  N   UNL     1       1.752   7.819  20.243  0.00  0.00    +0.000 NA
ATOM      7  N   UNL     1       2.260   6.610  20.604  0.00  0.00    +0.000 N 
ATOM      8  C   UNL     1       2.802   5.711  19.671  0.00  0.00    +0.000 A 
ATOM      9  C   UNL     1       3.142   4.407  20.051  0.00  0.00    +0.000 A 
ATOM     10  C   UNL     1       3.753   3.538  19.139  0.00  0.00    +0.000 A 
ATOM     11  C   UNL     1       4.053   3.969  17.847  0.00  0.00    +0.000 A 
ATOM     12  C   UNL     1       3.743   5.272  17.463  0.00  0.00    +0.000 A 
ATOM     13  C   UNL     1       3.120   6.124  18.380  0.00  0.00    +0.000 A 
ATOM     14  C   UNL     1       2.789   7.507  18.032  0.00  0.00    +0.000 A 
ATOM     15  O   UNL     1       3.174   8.017  16.993  0.00  0.00    +0.000 OA
ATOM     16  H   UNL     1       1.886   6.192  21.457  0.00  0.00    +0.000 HD
ENDBRANCH   2   5
BRANCH   1  18
ATOM     17  C   UNL     1      -0.876  11.730  20.471  0.00  0.00    +0.000 C 
ATOM     18  C   UNL     1      -0.567  11.118  19.099  0.00  0.00    +0.000 C 
BRANCH  18  19
ATOM     19  C   UNL     1      -1.836  10.955  18.285  0.00  0.00    +0.000 A 
ATOM     20  C   UNL     1      -1.822  10.173  17.128  0.00  0.00    +0.000 A 
ATOM     21  C   UNL     1      -2.964  10.079  16.346  0.00  0.00    +0.000 A 
ATOM     22  C   UNL     1      -4.128  10.768  16.711  0.00  0.00    +0.000 A 
ATOM     23  C   UNL     1      -4.193  11.572  17.856  0.00  0.00    +0.000 A 
ATOM     24  C   UNL     1      -3.031  11.615  18.643  0.00  0.00    +0.000 A 
BRANCH  23  25
ATOM     25  N   UNL     1      -5.320  12.293  18.189  0.00  0.00    +0.000 N 
ATOM     26  C   UNL     1      -5.606  12.813  19.520  0.00  0.00    +0.000 C 
ATOM     27  C   UNL     1      -7.116  12.661  19.642  0.00  0.00    +0.000 C 
ATOM     28  C   UNL     1      -7.609  12.934  18.233  0.00  0.00    +0.000 C 
ATOM     29  C   UNL     1      -6.502  12.390  17.328  0.00  0.00    +0.000 C 
ENDBRANCH  23  25
ENDBRANCH  18  19
ENDBRANCH   1  18
TORSDOF 4
ENDMDL
MODEL 6
REMARK VINA RESULT:      -7.7      4.643      9.210
REMARK  Name = 
REMARK  5 active torsions:
REMARK  status: ('A' for Active; 'I' for Inactive)
REMARK    1  A    between atoms: C_1  and  C_2
REMARK    2  A    between atoms: C_2  and  N_3
REMARK    3  A    between atoms: C_2  and  C_17
REMARK    4  A    between atoms: C_4  and  C_6
REMARK    5  A    between atoms: C_21  and  N_22
REMARK                            x       y       z     vdW  Elec       q    Type
REMARK                         _______ _______ _______ _____ _____    ______ ____
ROOT
ATOM      1  N   UNL     1       0.792  10.609  20.266  0.00  0.00    +0.000 N 
ATOM      2  C   UNL     1      -0.248  11.235  19.621  0.00  0.00    +0.000 C 
ATOM      3  O   UNL     1      -1.318  10.721  19.343  0.00  0.00    +0.000 OA
ATOM      4  H   UNL     1       1.677  11.103  20.330  0.00  0.00    +0.000 HD
ENDROOT
BRANCH   2   5
ATOM      5  C   UNL     1       0.047  12.683  19.236  0.00  0.00    +0.000 A 
ATOM      6  N   UNL     1      -0.918  13.545  19.441  0.00  0.00    +0.000 NA
ATOM      7  N   UNL     1      -0.739  14.850  19.102  0.00  0.00    +0.000 N 
ATOM      8  C   UNL     1       0.522  15.379  18.785  0.00  0.00    +0.000 A 
ATOM      9  C   UNL     1       0.697  16.760  18.626  0.00  0.00    +0.000 A 
ATOM     10  C   UNL     1       1.937  17.279  18.234  0.00  0.00    +0.000 A 
ATOM     11  C   UNL     1       3.008  16.423  17.973  0.00  0.00    +0.000 A 
ATOM     12  C   UNL     1       2.841  15.046  18.103  0.00  0.00    +0.000 A 
ATOM     13  C   UNL     1       1.600  14.544  18.509  0.00  0.00    +0.000 A 
ATOM     14  C   UNL     1       1.368  13.104  18.644  0.00  0.00    +0.000 A 
ATOM     15  O   UNL     1       2.189  12.284  18.266  0.00  0.00    +0.000 OA
ATOM     16  H   UNL     1      -1.420  15.516  19.469  0.00  0.00    +0.000 HD
ENDBRANCH   2   5
BRANCH   1  18
ATOM     17  C   UNL     1       1.044   9.184  22.259  0.00  0.00    +0.000 C 
ATOM     18  C   UNL     1       0.680   9.254  20.771  0.00  0.00    +0.000 C 
BRANCH  18  19
ATOM     19  C   UNL     1       1.538   8.300  19.962  0.00  0.00    +0.000 A 
ATOM     20  C   UNL     1       1.942   8.655  18.673  0.00  0.00    +0.000 A 
ATOM     21  C   UNL     1       2.669   7.755  17.908  0.00  0.00    +0.000 A 
ATOM     22  C   UNL     1       2.994   6.492  18.421  0.00  0.00    +0.000 A 
ATOM     23  C   UNL     1       2.605   6.084  19.703  0.00  0.00    +0.000 A 
ATOM     24  C   UNL     1       1.903   7.033  20.463  0.00  0.00    +0.000 A 
BRANCH  23  25
ATOM     25  N   UNL     1       2.878   4.823  20.191  0.00  0.00    +0.000 N 
ATOM     26  C   UNL     1       3.746   3.853  19.534  0.00  0.00    +0.000 C 
ATOM     27  C   UNL     1       3.067   2.521  19.823  0.00  0.00    +0.000 C 
ATOM     28  C   UNL     1       2.500   2.713  21.217  0.00  0.00    +0.000 C 
ATOM     29  C   UNL     1       2.122   4.193  21.276  0.00  0.00    +0.000 C 
ENDBRANCH  23  25
ENDBRANCH  18  19
ENDBRANCH   1  18
TORSDOF 4
ENDMDL
MODEL 7
REMARK VINA RESULT:      -7.5      3.963      5.900
REMARK  Name = 
REMARK  5 active torsions:
REMARK  status: ('A' for Active; 'I' for Inactive)
REMARK    1  A    between atoms: C_1  and  C_2
REMARK    2  A    between atoms: C_2  and  N_3
REMARK    3  A    between atoms: C_2  and  C_17
REMARK    4  A    between atoms: C_4  and  C_6
REMARK    5  A    between atoms: C_21  and  N_22
REMARK                            x       y       z     vdW  Elec       q    Type
REMARK                         _______ _______ _______ _____ _____    ______ ____
ROOT
ATOM      1  N   UNL     1       0.891   9.366  19.090  0.00  0.00    +0.000 N 
ATOM      2  C   UNL     1       1.904   8.737  18.405  0.00  0.00    +0.000 C 
ATOM      3  O   UNL     1       2.456   9.167  17.407  0.00  0.00    +0.000 OA
ATOM      4  H   UNL     1       0.428   8.852  19.831  0.00  0.00    +0.000 HD
ENDROOT
BRANCH   2   5
ATOM      5  C   UNL     1       2.298   7.384  18.994  0.00  0.00    +0.000 A 
ATOM      6  N   UNL     1       1.855   7.126  20.199  0.00  0.00    +0.000 NA
ATOM      7  N   UNL     1       2.182   5.950  20.800  0.00  0.00    +0.000 N 
ATOM      8  C   UNL     1       2.754   4.879  20.096  0.00  0.00    +0.000 A 
ATOM      9  C   UNL     1       2.903   3.624  20.701  0.00  0.00    +0.000 A 
ATOM     10  C   UNL     1       3.544   2.580  20.025  0.00  0.00    +0.000 A 
ATOM     11  C   UNL     1       4.065   2.783  18.747  0.00  0.00    +0.000 A 
ATOM     12  C   UNL     1       3.947   4.033  18.142  0.00  0.00    +0.000 A 
ATOM     13  C   UNL     1       3.291   5.063  18.824  0.00  0.00    +0.000 A 
ATOM     14  C   UNL     1       3.156   6.398  18.240  0.00  0.00    +0.000 A 
ATOM     15  O   UNL     1       3.734   6.710  17.213  0.00  0.00    +0.000 OA
ATOM     16  H   UNL     1       1.651   5.698  21.634  0.00  0.00    +0.000 HD
ENDBRANCH   2   5
BRANCH   1  18
ATOM     17  C   UNL     1       0.679  11.699  19.852  0.00  0.00    +0.000 C 
ATOM     18  C   UNL     1       0.425  10.691  18.725  0.00  0.00    +0.000 C 
BRANCH  18  19
ATOM     19  C   UNL     1      -1.045  10.665  18.349  0.00  0.00    +0.000 A 
ATOM     20  C   UNL     1      -1.463   9.928  17.239  0.00  0.00    +0.000 A 
ATOM     21  C   UNL     1      -2.796   9.959  16.854  0.00  0.00    +0.000 A 
ATOM     22  C   UNL     1      -3.720  10.729  17.572  0.00  0.00    +0.000 A 
ATOM     23  C   UNL     1      -3.351  11.492  18.688  0.00  0.00    +0.000 A 
ATOM     24  C   UNL     1      -2.002  11.409  19.070  0.00  0.00    +0.000 A 
BRANCH  23  25
ATOM     25  N   UNL     1      -4.248  12.291  19.365  0.00  0.00    +0.000 N 
ATOM     26  C   UNL     1      -3.915  13.108  20.525  0.00  0.00    +0.000 C 
ATOM     27  C   UNL     1      -5.165  13.017  21.390  0.00  0.00    +0.000 C 
ATOM     28  C   UNL     1      -6.291  12.970  20.373  0.00  0.00    +0.000 C 
ATOM     29  C   UNL     1      -5.700  12.212  19.184  0.00  0.00    +0.000 C 
ENDBRANCH  23  25
ENDBRANCH  18  19
ENDBRANCH   1  18
TORSDOF 4
ENDMDL
MODEL 8
REMARK VINA RESULT:      -7.5      6.386     10.066
REMARK  Name = 
REMARK  5 active torsions:
REMARK  status: ('A' for Active; 'I' for Inactive)
REMARK    1  A    between atoms: C_1  and  C_2
REMARK    2  A    between atoms: C_2  and  N_3
REMARK    3  A    between atoms: C_2  and  C_17
REMARK    4  A    between atoms: C_4  and  C_6
REMARK    5  A    between atoms: C_21  and  N_22
REMARK                            x       y       z     vdW  Elec       q    Type
REMARK                         _______ _______ _______ _____ _____    ______ ____
ROOT
ATOM      1  N   UNL     1      -3.087  12.036  23.041  0.00  0.00    +0.000 N 
ATOM      2  C   UNL     1      -1.760  12.391  23.097  0.00  0.00    +0.000 C 
ATOM      3  O   UNL     1      -1.328  13.441  23.542  0.00  0.00    +0.000 OA
ATOM      4  H   UNL     1      -3.332  11.192  22.536  0.00  0.00    +0.000 HD
ENDROOT
BRANCH   2   5
ATOM      5  C   UNL     1      -0.816  11.342  22.514  0.00  0.00    +0.000 A 
ATOM      6  N   UNL     1      -0.443  10.385  23.327  0.00  0.00    +0.000 NA
ATOM      7  N   UNL     1       0.415   9.424  22.888  0.00  0.00    +0.000 N 
ATOM      8  C   UNL     1       0.721   9.253  21.528  0.00  0.00    +0.000 A 
ATOM      9  C   UNL     1       1.457   8.142  21.097  0.00  0.00    +0.000 A 
ATOM     10  C   UNL     1       1.826   8.012  19.753  0.00  0.00    +0.000 A 
ATOM     11  C   UNL     1       1.487   9.002  18.830  0.00  0.00    +0.000 A 
ATOM     12  C   UNL     1       0.778  10.126  19.250  0.00  0.00    +0.000 A 
ATOM     13  C   UNL     1       0.402  10.234  20.593  0.00  0.00    +0.000 A 
ATOM     14  C   UNL     1      -0.329  11.402  21.088  0.00  0.00    +0.000 A 
ATOM     15  O   UNL     1      -0.507  12.388  20.394  0.00  0.00    +0.000 OA
ATOM     16  H   UNL     1       0.510   8.593  23.472  0.00  0.00    +0.000 HD
ENDBRANCH   2   5
BRANCH   1  18
ATOM     17  C   UNL     1      -4.372  12.536  25.082  0.00  0.00    +0.000 C 
ATOM     18  C   UNL     1      -4.131  12.872  23.606  0.00  0.00    +0.000 C 
BRANCH  18  19
ATOM     19  C   UNL     1      -5.416  12.748  22.810  0.00  0.00    +0.000 A 
ATOM     20  C   UNL     1      -6.641  12.685  23.477  0.00  0.00    +0.000 A 
ATOM     21  C   UNL     1      -7.811  12.503  22.754  0.00  0.00    +0.000 A 
ATOM     22  C   UNL     1      -7.766  12.377  21.360  0.00  0.00    +0.000 A 
ATOM     23  C   UNL     1      -6.563  12.424  20.643  0.00  0.00    +0.000 A 
ATOM     24  C   UNL     1      -5.404  12.646  21.403  0.00  0.00    +0.000 A 
BRANCH  23  25
ATOM     25  N   UNL     1      -6.512  12.248  19.276  0.00  0.00    +0.000 N 
ATOM     26  C   UNL     1      -6.016  11.048  18.615  0.00  0.00    +0.000 C 
ATOM     27  C   UNL     1      -5.317  11.590  17.376  0.00  0.00    +0.000 C 
ATOM     28  C   UNL     1      -6.174  12.779  16.984  0.00  0.00    +0.000 C 
ATOM     29  C   UNL     1      -6.683  13.339  18.312  0.00  0.00    +0.000 C 
ENDBRANCH  23  25
ENDBRANCH  18  19
ENDBRANCH   1  18
TORSDOF 4
ENDMDL
MODEL 9
REMARK VINA RESULT:      -7.5      1.814      9.166
REMARK  Name = 
REMARK  5 active torsions:
REMARK  status: ('A' for Active; 'I' for Inactive)
REMARK    1  A    between atoms: C_1  and  C_2
REMARK    2  A    between atoms: C_2  and  N_3
REMARK    3  A    between atoms: C_2  and  C_17
REMARK    4  A    between atoms: C_4  and  C_6
REMARK    5  A    between atoms: C_21  and  N_22
REMARK                            x       y       z     vdW  Elec       q    Type
REMARK                         _______ _______ _______ _____ _____    ______ ____
ROOT
ATOM      1  N   UNL     1       3.238   5.510  19.253  0.00  0.00    +0.000 N 
ATOM      2  C   UNL     1       2.417   6.300  18.484  0.00  0.00    +0.000 C 
ATOM      3  O   UNL     1       2.093   6.071  17.332  0.00  0.00    +0.000 OA
ATOM      4  H   UNL     1       3.535   5.869  20.154  0.00  0.00    +0.000 HD
ENDROOT
BRANCH   2   5
ATOM      5  C   UNL     1       1.931   7.561  19.197  0.00  0.00    +0.000 A 
ATOM      6  N   UNL     1       1.976   8.671  18.504  0.00  0.00    +0.000 NA
ATOM      7  N   UNL     1       1.580   9.840  19.077  0.00  0.00    +0.000 N 
ATOM      8  C   UNL     1       0.877   9.882  20.292  0.00  0.00    +0.000 A 
ATOM      9  C   UNL     1       0.325  11.083  20.755  0.00  0.00    +0.000 A 
ATOM     10  C   UNL     1      -0.308  11.140  22.003  0.00  0.00    +0.000 A 
ATOM     11  C   UNL     1      -0.374  10.005  22.811  0.00  0.00    +0.000 A 
ATOM     12  C   UNL     1       0.193   8.809  22.374  0.00  0.00    +0.000 A 
ATOM     13  C   UNL     1       0.809   8.765  21.119  0.00  0.00    +0.000 A 
ATOM     14  C   UNL     1       1.435   7.538  20.621  0.00  0.00    +0.000 A 
ATOM     15  O   UNL     1       1.579   6.558  21.332  0.00  0.00    +0.000 OA
ATOM     16  H   UNL     1       1.428  10.629  18.449  0.00  0.00    +0.000 HD
ENDBRANCH   2   5
BRANCH   1  18
ATOM     17  C   UNL     1       3.918   3.241  19.930  0.00  0.00    +0.000 C 
ATOM     18  C   UNL     1       3.746   4.238  18.777  0.00  0.00    +0.000 C 
BRANCH  18  19
ATOM     19  C   UNL     1       5.052   4.421  18.026  0.00  0.00    +0.000 A 
ATOM     20  C   UNL     1       6.216   4.741  18.729  0.00  0.00    +0.000 A 
ATOM     21  C   UNL     1       7.395   4.976  18.037  0.00  0.00    +0.000 A 
ATOM     22  C   UNL     1       7.421   4.898  16.639  0.00  0.00    +0.000 A 
ATOM     23  C   UNL     1       6.281   4.589  15.886  0.00  0.00    +0.000 A 
ATOM     24  C   UNL     1       5.114   4.322  16.620  0.00  0.00    +0.000 A 
BRANCH  23  25
ATOM     25  N   UNL     1       6.291   4.563  14.507  0.00  0.00    +0.000 N 
ATOM     26  C   UNL     1       5.300   3.879  13.687  0.00  0.00    +0.000 C 
ATOM     27  C   UNL     1       6.118   3.346  12.518  0.00  0.00    +0.000 C 
ATOM     28  C   UNL     1       7.160   4.427  12.299  0.00  0.00    +0.000 C 
ATOM     29  C   UNL     1       7.441   4.975  13.699  0.00  0.00    +0.000 C 
ENDBRANCH  23  25
ENDBRANCH  18  19
ENDBRANCH   1  18
TORSDOF 4
ENDMDL
