MODEL 1
REMARK VINA RESULT:      -8.4      0.000      0.000
REMARK  Name = 
REMARK  6 active torsions:
REMARK  status: ('A' for Active; 'I' for Inactive)
REMARK    1  A    between atoms: C_1  and  N_2
REMARK    2  A    between atoms: N_2  and  C_3
REMARK    3  A    between atoms: C_4  and  C_6
REMARK    4  A    between atoms: C_10  and  C_11
REMARK    5  A    between atoms: C_16  and  C_18
REMARK    6  A    between atoms: C_18  and  C_19
REMARK                            x       y       z     vdW  Elec       q    Type
REMARK                         _______ _______ _______ _____ _____    ______ ____
ROOT
ATOM      1  C   UNL     1       3.183   5.794  20.073  0.00  0.00    +0.000 C 
ATOM      2  C   UNL     1       1.737   5.953  20.727  0.00  0.00    +0.000 C 
ATOM      3  C   UNL     1       1.160   5.488  19.355  0.00  0.00    +0.000 C 
ATOM      4  C   UNL     1       2.340   6.407  18.870  0.00  0.00    +0.000 C 
ATOM      5  N   UNL     1       1.929   7.744  19.377  0.00  0.00    +0.000 N 
ATOM      6  C   UNL     1       1.899   8.899  18.639  0.00  0.00    +0.000 C 
ATOM      7  O   UNL     1       2.293   8.928  17.471  0.00  0.00    +0.000 OA
ATOM      8  C   UNL     1       1.438   7.472  20.729  0.00  0.00    +0.000 C 
ENDROOT
BRANCH   1  13
ATOM      9  C   UNL     1       4.970   4.005  19.310  0.00  0.00    +0.000 A 
ATOM     10  N   UNL     1       5.031   2.613  19.275  0.00  0.00    +0.000 NA
ATOM     11  C   UNL     1       3.886   2.224  19.765  0.00  0.00    +0.000 A 
ATOM     12  O   UNL     1       3.057   3.225  20.131  0.00  0.00    +0.000 OA
ATOM     13  C   UNL     1       3.745   4.380  19.862  0.00  0.00    +0.000 A 
BRANCH   9  17
ATOM     14  C   UNL     1       7.295   6.038  17.108  0.00  0.00    +0.000 C 
ATOM     15  N   UNL     1       6.206   5.162  17.501  0.00  0.00    +0.000 N 
ATOM     16  C   UNL     1       5.100   5.030  16.562  0.00  0.00    +0.000 C 
ATOM     17  C   UNL     1       6.083   4.866  18.876  0.00  0.00    +0.000 C 
ATOM     18  O   UNL     1       6.891   5.306  19.697  0.00  0.00    +0.000 OA
ENDBRANCH   9  17
ENDBRANCH   1  13
BRANCH   6  19
ATOM     19  C   UNL     1       1.358  10.158  19.309  0.00  0.00    +0.000 C 
BRANCH  19  20
ATOM     20  C   UNL     1      -0.068  10.470  18.932  0.00  0.00    +0.000 A 
ATOM     21  C   UNL     1      -0.886  11.224  19.783  0.00  0.00    +0.000 A 
ATOM     22  C   UNL     1      -2.189  11.561  19.403  0.00  0.00    +0.000 A 
ATOM     23  C   UNL     1      -2.700  11.159  18.159  0.00  0.00    +0.000 A 
ATOM     24  C   UNL     1      -3.982  11.545  17.731  0.00  0.00    +0.000 A 
ATOM     25  C   UNL     1      -4.462  11.159  16.479  0.00  0.00    +0.000 A 
ATOM     26  C   UNL     1      -3.679  10.361  15.650  0.00  0.00    +0.000 A 
ATOM     27  C   UNL     1      -2.409   9.957  16.068  0.00  0.00    +0.000 A 
ATOM     28  C   UNL     1      -1.900  10.362  17.311  0.00  0.00    +0.000 A 
ATOM     29  C   UNL     1      -0.599  10.013  17.718  0.00  0.00    +0.000 A 
ENDBRANCH  19  20
ENDBRANCH   6  19
TORSDOF 4
ENDMDL
MODEL 2
REMARK VINA RESULT:      -8.2      1.612      1.998
REMARK  Name = 
REMARK  6 active torsions:
REMARK  status: ('A' for Active; 'I' for Inactive)
REMARK    1  A    between atoms: C_1  and  N_2
REMARK    2  A    between atoms: N_2  and  C_3
REMARK    3  A    between atoms: C_4  and  C_6
REMARK    4  A    between atoms: C_10  and  C_11
REMARK    5  A    between atoms: C_16  and  C_18
REMARK    6  A    between atoms: C_18  and  C_19
REMARK                            x       y       z     vdW  Elec       q    Type
REMARK                         _______ _______ _______ _____ _____    ______ ____
ROOT
ATOM      1  C   UNL     1       2.223   5.809  18.172  0.00  0.00    +0.000 C 
ATOM      2  C   UNL     1       3.415   6.841  17.926  0.00  0.00    +0.000 C 
ATOM      3  C   UNL     1       3.874   6.524  19.382  0.00  0.00    +0.000 C 
ATOM      4  C   UNL     1       2.314   6.552  19.577  0.00  0.00    +0.000 C 
ATOM      5  N   UNL     1       1.979   7.964  19.248  0.00  0.00    +0.000 N 
ATOM      6  C   UNL     1       1.203   8.795  20.013  0.00  0.00    +0.000 C 
ATOM      7  O   UNL     1       0.646   8.395  21.037  0.00  0.00    +0.000 OA
ATOM      8  C   UNL     1       2.789   8.250  18.062  0.00  0.00    +0.000 C 
ENDROOT
BRANCH   1  13
ATOM      9  C   UNL     1       3.548   3.629  17.489  0.00  0.00    +0.000 A 
ATOM     10  N   UNL     1       3.423   2.265  17.751  0.00  0.00    +0.000 NA
ATOM     11  C   UNL     1       2.379   2.179  18.530  0.00  0.00    +0.000 A 
ATOM     12  O   UNL     1       1.789   3.358  18.821  0.00  0.00    +0.000 OA
ATOM     13  C   UNL     1       2.539   4.306  18.173  0.00  0.00    +0.000 A 
BRANCH   9  17
ATOM     14  C   UNL     1       6.860   5.174  16.471  0.00  0.00    +0.000 C 
ATOM     15  N   UNL     1       5.796   4.656  17.312  0.00  0.00    +0.000 N 
ATOM     16  C   UNL     1       6.168   4.249  18.661  0.00  0.00    +0.000 C 
ATOM     17  C   UNL     1       4.633   4.188  16.665  0.00  0.00    +0.000 C 
ATOM     18  O   UNL     1       4.517   4.254  15.439  0.00  0.00    +0.000 OA
ENDBRANCH   9  17
ENDBRANCH   1  13
BRANCH   6  19
ATOM     19  C   UNL     1       1.048  10.243  19.557  0.00  0.00    +0.000 C 
BRANCH  19  20
ATOM     20  C   UNL     1      -0.330  10.561  19.036  0.00  0.00    +0.000 A 
ATOM     21  C   UNL     1      -1.200  11.384  19.762  0.00  0.00    +0.000 A 
ATOM     22  C   UNL     1      -2.454  11.724  19.247  0.00  0.00    +0.000 A 
ATOM     23  C   UNL     1      -2.864  11.256  17.989  0.00  0.00    +0.000 A 
ATOM     24  C   UNL     1      -4.093  11.641  17.425  0.00  0.00    +0.000 A 
ATOM     25  C   UNL     1      -4.471  11.187  16.161  0.00  0.00    +0.000 A 
ATOM     26  C   UNL     1      -3.640  10.322  15.456  0.00  0.00    +0.000 A 
ATOM     27  C   UNL     1      -2.423   9.917  16.010  0.00  0.00    +0.000 A 
ATOM     28  C   UNL     1      -2.014  10.390  17.267  0.00  0.00    +0.000 A 
ATOM     29  C   UNL     1      -0.765  10.039  17.809  0.00  0.00    +0.000 A 
ENDBRANCH  19  20
ENDBRANCH   6  19
TORSDOF 4
ENDMDL
MODEL 3
REMARK VINA RESULT:      -8.2      0.807      1.014
REMARK  Name = 
REMARK  6 active torsions:
REMARK  status: ('A' for Active; 'I' for Inactive)
REMARK    1  A    between atoms: C_1  and  N_2
REMARK    2  A    between atoms: N_2  and  C_3
REMARK    3  A    between atoms: C_4  and  C_6
REMARK    4  A    between atoms: C_10  and  C_11
REMARK    5  A    between atoms: C_16  and  C_18
REMARK    6  A    between atoms: C_18  and  C_19
REMARK                            x       y       z     vdW  Elec       q    Type
REMARK                         _______ _______ _______ _____ _____    ______ ____
ROOT
ATOM      1  C   UNL     1       3.275   5.787  19.935  0.00  0.00    +0.000 C 
ATOM      2  C   UNL     1       1.846   5.941  20.627  0.00  0.00    +0.000 C 
ATOM      3  C   UNL     1       1.235   5.469  19.272  0.00  0.00    +0.000 C 
ATOM      4  C   UNL     1       2.398   6.392  18.753  0.00  0.00    +0.000 C 
ATOM      5  N   UNL     1       1.994   7.728  19.266  0.00  0.00    +0.000 N 
ATOM      6  C   UNL     1       1.939   8.880  18.525  0.00  0.00    +0.000 C 
ATOM      7  O   UNL     1       2.302   8.908  17.348  0.00  0.00    +0.000 OA
ATOM      8  C   UNL     1       1.540   7.458  20.632  0.00  0.00    +0.000 C 
ENDROOT
BRANCH   1  13
ATOM      9  C   UNL     1       4.728   3.937  18.733  0.00  0.00    +0.000 A 
ATOM     10  N   UNL     1       4.920   2.566  18.889  0.00  0.00    +0.000 NA
ATOM     11  C   UNL     1       4.157   2.243  19.897  0.00  0.00    +0.000 A 
ATOM     12  O   UNL     1       3.469   3.271  20.440  0.00  0.00    +0.000 OA
ATOM     13  C   UNL     1       3.838   4.375  19.714  0.00  0.00    +0.000 A 
BRANCH   9  17
ATOM     14  C   UNL     1       7.132   6.383  17.112  0.00  0.00    +0.000 C 
ATOM     15  N   UNL     1       6.433   5.636  18.141  0.00  0.00    +0.000 N 
ATOM     16  C   UNL     1       7.091   5.532  19.437  0.00  0.00    +0.000 C 
ATOM     17  C   UNL     1       5.435   4.733  17.715  0.00  0.00    +0.000 C 
ATOM     18  O   UNL     1       5.149   4.618  16.521  0.00  0.00    +0.000 OA
ENDBRANCH   9  17
ENDBRANCH   1  13
BRANCH   6  19
ATOM     19  C   UNL     1       1.410  10.139  19.206  0.00  0.00    +0.000 C 
BRANCH  19  20
ATOM     20  C   UNL     1      -0.023  10.449  18.858  0.00  0.00    +0.000 A 
ATOM     21  C   UNL     1      -0.824  11.208  19.721  0.00  0.00    +0.000 A 
ATOM     22  C   UNL     1      -2.135  11.542  19.367  0.00  0.00    +0.000 A 
ATOM     23  C   UNL     1      -2.672  11.135  18.136  0.00  0.00    +0.000 A 
ATOM     24  C   UNL     1      -3.962  11.518  17.734  0.00  0.00    +0.000 A 
ATOM     25  C   UNL     1      -4.469  11.126  16.494  0.00  0.00    +0.000 A 
ATOM     26  C   UNL     1      -3.703  10.324  15.653  0.00  0.00    +0.000 A 
ATOM     27  C   UNL     1      -2.425   9.921  16.046  0.00  0.00    +0.000 A 
ATOM     28  C   UNL     1      -1.889  10.333  17.276  0.00  0.00    +0.000 A 
ATOM     29  C   UNL     1      -0.580   9.986  17.657  0.00  0.00    +0.000 A 
ENDBRANCH  19  20
ENDBRANCH   6  19
TORSDOF 4
ENDMDL
MODEL 4
REMARK VINA RESULT:      -8.1      1.359      1.691
REMARK  Name = 
REMARK  6 active torsions:
REMARK  status: ('A' for Active; 'I' for Inactive)
REMARK    1  A    between atoms: C_1  and  N_2
REMARK    2  A    between atoms: N_2  and  C_3
REMARK    3  A    between atoms: C_4  and  C_6
REMARK    4  A    between atoms: C_10  and  C_11
REMARK    5  A    between atoms: C_16  and  C_18
REMARK    6  A    between atoms: C_18  and  C_19
REMARK                            x       y       z     vdW  Elec       q    Type
REMARK                         _______ _______ _______ _____ _____    ______ ____
ROOT
ATOM      1  C   UNL     1       3.650   6.212  19.010  0.00  0.00    +0.000 C 
ATOM      2  C   UNL     1       2.244   5.862  19.675  0.00  0.00    +0.000 C 
ATOM      3  C   UNL     1       1.680   5.763  18.225  0.00  0.00    +0.000 C 
ATOM      4  C   UNL     1       2.634   7.003  18.074  0.00  0.00    +0.000 C 
ATOM      5  N   UNL     1       2.012   7.995  18.992  0.00  0.00    +0.000 N 
ATOM      6  C   UNL     1       1.720   9.296  18.677  0.00  0.00    +0.000 C 
ATOM      7  O   UNL     1       2.028   9.779  17.586  0.00  0.00    +0.000 OA
ATOM      8  C   UNL     1       1.666   7.207  20.178  0.00  0.00    +0.000 C 
ENDROOT
BRANCH   1  13
ATOM      9  C   UNL     1       5.560   5.184  17.503  0.00  0.00    +0.000 A 
ATOM     10  N   UNL     1       5.929   3.901  17.102  0.00  0.00    +0.000 NA
ATOM     11  C   UNL     1       5.058   3.118  17.676  0.00  0.00    +0.000 A 
ATOM     12  O   UNL     1       4.136   3.753  18.431  0.00  0.00    +0.000 OA
ATOM     13  C   UNL     1       4.453   5.084  18.345  0.00  0.00    +0.000 A 
BRANCH   9  17
ATOM     14  C   UNL     1       8.013   8.077  17.566  0.00  0.00    +0.000 C 
ATOM     15  N   UNL     1       7.274   6.905  17.997  0.00  0.00    +0.000 N 
ATOM     16  C   UNL     1       7.872   6.108  19.060  0.00  0.00    +0.000 C 
ATOM     17  C   UNL     1       6.306   6.392  17.107  0.00  0.00    +0.000 C 
ATOM     18  O   UNL     1       6.077   6.943  16.028  0.00  0.00    +0.000 OA
ENDBRANCH   9  17
ENDBRANCH   1  13
BRANCH   6  19
ATOM     19  C   UNL     1       0.995  10.136  19.724  0.00  0.00    +0.000 C 
BRANCH  19  20
ATOM     20  C   UNL     1      -0.387  10.560  19.298  0.00  0.00    +0.000 A 
ATOM     21  C   UNL     1      -1.122  11.479  20.058  0.00  0.00    +0.000 A 
ATOM     22  C   UNL     1      -2.380  11.913  19.627  0.00  0.00    +0.000 A 
ATOM     23  C   UNL     1      -2.927  11.445  18.423  0.00  0.00    +0.000 A 
ATOM     24  C   UNL     1      -4.158  11.921  17.941  0.00  0.00    +0.000 A 
ATOM     25  C   UNL     1      -4.674  11.465  16.726  0.00  0.00    +0.000 A 
ATOM     26  C   UNL     1      -3.978  10.508  15.992  0.00  0.00    +0.000 A 
ATOM     27  C   UNL     1      -2.761  10.014  16.466  0.00  0.00    +0.000 A 
ATOM     28  C   UNL     1      -2.215  10.486  17.670  0.00  0.00    +0.000 A 
ATOM     29  C   UNL     1      -0.961  10.042  18.128  0.00  0.00    +0.000 A 
ENDBRANCH  19  20
ENDBRANCH   6  19
TORSDOF 4
ENDMDL
MODEL 5
REMARK VINA RESULT:      -8.1      0.650      1.597
REMARK  Name = 
REMARK  6 active torsions:
REMARK  status: ('A' for Active; 'I' for Inactive)
REMARK    1  A    between atoms: C_1  and  N_2
REMARK    2  A    between atoms: N_2  and  C_3
REMARK    3  A    between atoms: C_4  and  C_6
REMARK    4  A    between atoms: C_10  and  C_11
REMARK    5  A    between atoms: C_16  and  C_18
REMARK    6  A    between atoms: C_18  and  C_19
REMARK                            x       y       z     vdW  Elec       q    Type
REMARK                         _______ _______ _______ _____ _____    ______ ____
ROOT
ATOM      1  C   UNL     1       3.242   5.988  19.941  0.00  0.00    +0.000 C 
ATOM      2  C   UNL     1       1.783   6.097  20.577  0.00  0.00    +0.000 C 
ATOM      3  C   UNL     1       1.243   5.581  19.209  0.00  0.00    +0.000 C 
ATOM      4  C   UNL     1       2.388   6.540  18.717  0.00  0.00    +0.000 C 
ATOM      5  N   UNL     1       1.914   7.868  19.192  0.00  0.00    +0.000 N 
ATOM      6  C   UNL     1       1.842   9.005  18.430  0.00  0.00    +0.000 C 
ATOM      7  O   UNL     1       2.248   9.028  17.267  0.00  0.00    +0.000 OA
ATOM      8  C   UNL     1       1.420   7.601  20.545  0.00  0.00    +0.000 C 
ENDROOT
BRANCH   1  13
ATOM      9  C   UNL     1       5.144   4.267  19.309  0.00  0.00    +0.000 A 
ATOM     10  N   UNL     1       5.255   2.878  19.269  0.00  0.00    +0.000 NA
ATOM     11  C   UNL     1       4.089   2.447  19.664  0.00  0.00    +0.000 A 
ATOM     12  O   UNL     1       3.200   3.416  19.971  0.00  0.00    +0.000 OA
ATOM     13  C   UNL     1       3.867   4.596  19.765  0.00  0.00    +0.000 A 
BRANCH   9  17
ATOM     14  C   UNL     1       7.460   6.539  17.343  0.00  0.00    +0.000 C 
ATOM     15  N   UNL     1       6.370   5.626  17.639  0.00  0.00    +0.000 N 
ATOM     16  C   UNL     1       5.256   5.612  16.701  0.00  0.00    +0.000 C 
ATOM     17  C   UNL     1       6.257   5.169  18.970  0.00  0.00    +0.000 C 
ATOM     18  O   UNL     1       7.075   5.505  19.830  0.00  0.00    +0.000 OA
ENDBRANCH   9  17
ENDBRANCH   1  13
BRANCH   6  19
ATOM     19  C   UNL     1       1.240  10.252  19.069  0.00  0.00    +0.000 C 
BRANCH  19  20
ATOM     20  C   UNL     1      -0.200  10.484  18.687  0.00  0.00    +0.000 A 
ATOM     21  C   UNL     1      -0.779   9.789  17.617  0.00  0.00    +0.000 A 
ATOM     22  C   UNL     1      -2.130   9.963  17.304  0.00  0.00    +0.000 A 
ATOM     23  C   UNL     1      -2.936  10.829  18.059  0.00  0.00    +0.000 A 
ATOM     24  C   UNL     1      -4.311  10.965  17.802  0.00  0.00    +0.000 A 
ATOM     25  C   UNL     1      -5.102  11.810  18.582  0.00  0.00    +0.000 A 
ATOM     26  C   UNL     1      -4.525  12.549  19.610  0.00  0.00    +0.000 A 
ATOM     27  C   UNL     1      -3.157  12.436  19.868  0.00  0.00    +0.000 A 
ATOM     28  C   UNL     1      -2.354  11.567  19.113  0.00  0.00    +0.000 A 
ATOM     29  C   UNL     1      -0.988  11.398  19.401  0.00  0.00    +0.000 A 
ENDBRANCH  19  20
ENDBRANCH   6  19
TORSDOF 4
ENDMDL
MODEL 6
REMARK VINA RESULT:      -8.0      1.850      2.329
REMARK  Name = 
REMARK  6 active torsions:
REMARK  status: ('A' for Active; 'I' for Inactive)
REMARK    1  A    between atoms: C_1  and  N_2
REMARK    2  A    between atoms: N_2  and  C_3
REMARK    3  A    between atoms: C_4  and  C_6
REMARK    4  A    between atoms: C_10  and  C_11
REMARK    5  A    between atoms: C_16  and  C_18
REMARK    6  A    between atoms: C_18  and  C_19
REMARK                            x       y       z     vdW  Elec       q    Type
REMARK                         _______ _______ _______ _____ _____    ______ ____
ROOT
ATOM      1  C   UNL     1       1.429   5.819  19.339  0.00  0.00    +0.000 C 
ATOM      2  C   UNL     1       2.598   6.555  18.542  0.00  0.00    +0.000 C 
ATOM      3  C   UNL     1       3.399   6.544  19.879  0.00  0.00    +0.000 C 
ATOM      4  C   UNL     1       1.956   6.867  20.416  0.00  0.00    +0.000 C 
ATOM      5  N   UNL     1       1.673   8.186  19.788  0.00  0.00    +0.000 N 
ATOM      6  C   UNL     1       1.206   9.294  20.445  0.00  0.00    +0.000 C 
ATOM      7  O   UNL     1       0.908   9.257  21.640  0.00  0.00    +0.000 OA
ATOM      8  C   UNL     1       2.160   8.033  18.415  0.00  0.00    +0.000 C 
ENDROOT
BRANCH   1  13
ATOM      9  C   UNL     1       2.178   3.320  18.930  0.00  0.00    +0.000 A 
ATOM     10  N   UNL     1       2.066   2.120  19.632  0.00  0.00    +0.000 NA
ATOM     11  C   UNL     1       1.434   2.442  20.727  0.00  0.00    +0.000 A 
ATOM     12  O   UNL     1       1.111   3.749  20.833  0.00  0.00    +0.000 OA
ATOM     13  C   UNL     1       1.597   4.334  19.692  0.00  0.00    +0.000 A 
BRANCH   9  17
ATOM     14  C   UNL     1       4.883   3.870  16.329  0.00  0.00    +0.000 C 
ATOM     15  N   UNL     1       4.226   3.803  17.621  0.00  0.00    +0.000 N 
ATOM     16  C   UNL     1       5.088   3.685  18.789  0.00  0.00    +0.000 C 
ATOM     17  C   UNL     1       2.865   3.426  17.632  0.00  0.00    +0.000 C 
ATOM     18  O   UNL     1       2.259   3.202  16.583  0.00  0.00    +0.000 OA
ENDBRANCH   9  17
ENDBRANCH   1  13
BRANCH   6  19
ATOM     19  C   UNL     1       1.065  10.587  19.647  0.00  0.00    +0.000 C 
BRANCH  19  20
ATOM     20  C   UNL     1      -0.340  10.839  19.162  0.00  0.00    +0.000 A 
ATOM     21  C   UNL     1      -1.210  11.666  19.883  0.00  0.00    +0.000 A 
ATOM     22  C   UNL     1      -2.492  11.945  19.399  0.00  0.00    +0.000 A 
ATOM     23  C   UNL     1      -2.930  11.410  18.178  0.00  0.00    +0.000 A 
ATOM     24  C   UNL     1      -4.188  11.733  17.642  0.00  0.00    +0.000 A 
ATOM     25  C   UNL     1      -4.595  11.213  16.412  0.00  0.00    +0.000 A 
ATOM     26  C   UNL     1      -3.760  10.344  15.715  0.00  0.00    +0.000 A 
ATOM     27  C   UNL     1      -2.513  10.002  16.242  0.00  0.00    +0.000 A 
ATOM     28  C   UNL     1      -2.077  10.541  17.463  0.00  0.00    +0.000 A 
ATOM     29  C   UNL     1      -0.799  10.252  17.974  0.00  0.00    +0.000 A 
ENDBRANCH  19  20
ENDBRANCH   6  19
TORSDOF 4
ENDMDL
MODEL 7
REMARK VINA RESULT:      -7.9      1.854      2.757
REMARK  Name = 
REMARK  6 active torsions:
REMARK  status: ('A' for Active; 'I' for Inactive)
REMARK    1  A    between atoms: C_1  and  N_2
REMARK    2  A    between atoms: N_2  and  C_3
REMARK    3  A    between atoms: C_4  and  C_6
REMARK    4  A    between atoms: C_10  and  C_11
REMARK    5  A    between atoms: C_16  and  C_18
REMARK    6  A    between atoms: C_18  and  C_19
REMARK                            x       y       z     vdW  Elec       q    Type
REMARK                         _______ _______ _______ _____ _____    ______ ____
ROOT
ATOM      1  C   UNL     1       1.579   6.003  19.204  0.00  0.00    +0.000 C 
ATOM      2  C   UNL     1       2.591   6.692  18.182  0.00  0.00    +0.000 C 
ATOM      3  C   UNL     1       3.498   6.989  19.414  0.00  0.00    +0.000 C 
ATOM      4  C   UNL     1       2.079   7.266  20.034  0.00  0.00    +0.000 C 
ATOM      5  N   UNL     1       1.604   8.423  19.229  0.00  0.00    +0.000 N 
ATOM      6  C   UNL     1       1.077   9.582  19.738  0.00  0.00    +0.000 C 
ATOM      7  O   UNL     1       0.887   9.727  20.947  0.00  0.00    +0.000 OA
ATOM      8  C   UNL     1       1.986   8.079  17.858  0.00  0.00    +0.000 C 
ENDROOT
BRANCH   1  13
ATOM      9  C   UNL     1       2.546   3.546  19.138  0.00  0.00    +0.000 A 
ATOM     10  N   UNL     1       2.628   2.484  20.037  0.00  0.00    +0.000 NA
ATOM     11  C   UNL     1       2.071   2.937  21.126  0.00  0.00    +0.000 A 
ATOM     12  O   UNL     1       1.623   4.209  21.048  0.00  0.00    +0.000 OA
ATOM     13  C   UNL     1       1.936   4.624  19.779  0.00  0.00    +0.000 A 
BRANCH   9  17
ATOM     14  C   UNL     1       4.937   3.826  16.206  0.00  0.00    +0.000 C 
ATOM     15  N   UNL     1       4.415   3.931  17.556  0.00  0.00    +0.000 N 
ATOM     16  C   UNL     1       5.394   4.053  18.629  0.00  0.00    +0.000 C 
ATOM     17  C   UNL     1       3.095   3.482  17.772  0.00  0.00    +0.000 C 
ATOM     18  O   UNL     1       2.407   3.056  16.841  0.00  0.00    +0.000 OA
ENDBRANCH   9  17
ENDBRANCH   1  13
BRANCH   6  19
ATOM     19  C   UNL     1       0.731  10.697  18.756  0.00  0.00    +0.000 C 
BRANCH  19  20
ATOM     20  C   UNL     1      -0.744  10.795  18.460  0.00  0.00    +0.000 A 
ATOM     21  C   UNL     1      -1.330  10.007  17.462  0.00  0.00    +0.000 A 
ATOM     22  C   UNL     1      -2.708  10.058  17.231  0.00  0.00    +0.000 A 
ATOM     23  C   UNL     1      -3.533  10.893  17.999  0.00  0.00    +0.000 A 
ATOM     24  C   UNL     1      -4.928  10.908  17.827  0.00  0.00    +0.000 A 
ATOM     25  C   UNL     1      -5.736  11.726  18.620  0.00  0.00    +0.000 A 
ATOM     26  C   UNL     1      -5.158  12.556  19.575  0.00  0.00    +0.000 A 
ATOM     27  C   UNL     1      -3.772  12.564  19.747  0.00  0.00    +0.000 A 
ATOM     28  C   UNL     1      -2.949  11.725  18.979  0.00  0.00    +0.000 A 
ATOM     29  C   UNL     1      -1.558  11.679  19.184  0.00  0.00    +0.000 A 
ENDBRANCH  19  20
ENDBRANCH   6  19
TORSDOF 4
ENDMDL
MODEL 8
REMARK VINA RESULT:      -7.9      1.412      1.719
REMARK  Name = 
REMARK  6 active torsions:
REMARK  status: ('A' for Active; 'I' for Inactive)
REMARK    1  A    between atoms: C_1  and  N_2
REMARK    2  A    between atoms: N_2  and  C_3
REMARK    3  A    between atoms: C_4  and  C_6
REMARK    4  A    between atoms: C_10  and  C_11
REMARK    5  A    between atoms: C_16  and  C_18
REMARK    6  A    between atoms: C_18  and  C_19
REMARK                            x       y       z     vdW  Elec       q    Type
REMARK                         _______ _______ _______ _____ _____    ______ ____
ROOT
ATOM      1  C   UNL     1       2.386   5.525  18.110  0.00  0.00    +0.000 C 
ATOM      2  C   UNL     1       3.614   6.524  17.910  0.00  0.00    +0.000 C 
ATOM      3  C   UNL     1       3.998   6.210  19.388  0.00  0.00    +0.000 C 
ATOM      4  C   UNL     1       2.432   6.279  19.511  0.00  0.00    +0.000 C 
ATOM      5  N   UNL     1       2.149   7.695  19.156  0.00  0.00    +0.000 N 
ATOM      6  C   UNL     1       1.360   8.553  19.877  0.00  0.00    +0.000 C 
ATOM      7  O   UNL     1       0.746   8.177  20.877  0.00  0.00    +0.000 OA
ATOM      8  C   UNL     1       3.019   7.950  18.005  0.00  0.00    +0.000 C 
ENDROOT
BRANCH   1  13
ATOM      9  C   UNL     1       3.881   3.350  18.004  0.00  0.00    +0.000 A 
ATOM     10  N   UNL     1       3.645   1.977  18.045  0.00  0.00    +0.000 NA
ATOM     11  C   UNL     1       2.350   1.874  18.176  0.00  0.00    +0.000 A 
ATOM     12  O   UNL     1       1.690   3.051  18.230  0.00  0.00    +0.000 OA
ATOM     13  C   UNL     1       2.662   4.014  18.138  0.00  0.00    +0.000 A 
BRANCH   9  17
ATOM     14  C   UNL     1       7.084   4.759  16.538  0.00  0.00    +0.000 C 
ATOM     15  N   UNL     1       5.763   4.162  16.611  0.00  0.00    +0.000 N 
ATOM     16  C   UNL     1       4.930   4.270  15.420  0.00  0.00    +0.000 C 
ATOM     17  C   UNL     1       5.233   3.927  17.897  0.00  0.00    +0.000 C 
ATOM     18  O   UNL     1       5.885   4.184  18.911  0.00  0.00    +0.000 OA
ENDBRANCH   9  17
ENDBRANCH   1  13
BRANCH   6  19
ATOM     19  C   UNL     1       1.264  10.000  19.402  0.00  0.00    +0.000 C 
BRANCH  19  20
ATOM     20  C   UNL     1      -0.133  10.408  19.010  0.00  0.00    +0.000 A 
ATOM     21  C   UNL     1      -0.886  11.265  19.822  0.00  0.00    +0.000 A 
ATOM     22  C   UNL     1      -2.158  11.688  19.425  0.00  0.00    +0.000 A 
ATOM     23  C   UNL     1      -2.703  11.270  18.201  0.00  0.00    +0.000 A 
ATOM     24  C   UNL     1      -3.951  11.738  17.754  0.00  0.00    +0.000 A 
ATOM     25  C   UNL     1      -4.465  11.333  16.521  0.00  0.00    +0.000 A 
ATOM     26  C   UNL     1      -3.750  10.436  15.732  0.00  0.00    +0.000 A 
ATOM     27  C   UNL     1      -2.517   9.950  16.170  0.00  0.00    +0.000 A 
ATOM     28  C   UNL     1      -1.972  10.372  17.393  0.00  0.00    +0.000 A 
ATOM     29  C   UNL     1      -0.703   9.938  17.817  0.00  0.00    +0.000 A 
ENDBRANCH  19  20
ENDBRANCH   6  19
TORSDOF 4
ENDMDL
MODEL 9
REMARK VINA RESULT:      -7.9      1.680      2.512
REMARK  Name = 
REMARK  6 active torsions:
REMARK  status: ('A' for Active; 'I' for Inactive)
REMARK    1  A    between atoms: C_1  and  N_2
REMARK    2  A    between atoms: N_2  and  C_3
REMARK    3  A    between atoms: C_4  and  C_6
REMARK    4  A    between atoms: C_10  and  C_11
REMARK    5  A    between atoms: C_16  and  C_18
REMARK    6  A    between atoms: C_18  and  C_19
REMARK                            x       y       z     vdW  Elec       q    Type
REMARK                         _______ _______ _______ _____ _____    ______ ____
ROOT
ATOM      1  C   UNL     1       2.345   5.826  18.116  0.00  0.00    +0.000 C 
ATOM      2  C   UNL     1       3.477   6.895  17.770  0.00  0.00    +0.000 C 
ATOM      3  C   UNL     1       3.972   6.719  19.238  0.00  0.00    +0.000 C 
ATOM      4  C   UNL     1       2.415   6.681  19.457  0.00  0.00    +0.000 C 
ATOM      5  N   UNL     1       2.002   8.043  19.024  0.00  0.00    +0.000 N 
ATOM      6  C   UNL     1       1.192   8.891  19.735  0.00  0.00    +0.000 C 
ATOM      7  O   UNL     1       0.670   8.545  20.796  0.00  0.00    +0.000 OA
ATOM      8  C   UNL     1       2.780   8.276  17.805  0.00  0.00    +0.000 C 
ENDROOT
BRANCH   1  13
ATOM      9  C   UNL     1       3.731   3.654  17.533  0.00  0.00    +0.000 A 
ATOM     10  N   UNL     1       3.698   2.318  17.927  0.00  0.00    +0.000 NA
ATOM     11  C   UNL     1       2.721   2.257  18.790  0.00  0.00    +0.000 A 
ATOM     12  O   UNL     1       2.092   3.430  19.018  0.00  0.00    +0.000 OA
ATOM     13  C   UNL     1       2.740   4.346  18.229  0.00  0.00    +0.000 A 
BRANCH   9  17
ATOM     14  C   UNL     1       6.888   5.211  16.118  0.00  0.00    +0.000 C 
ATOM     15  N   UNL     1       5.920   4.726  17.085  0.00  0.00    +0.000 N 
ATOM     16  C   UNL     1       6.422   4.425  18.419  0.00  0.00    +0.000 C 
ATOM     17  C   UNL     1       4.720   4.183  16.578  0.00  0.00    +0.000 C 
ATOM     18  O   UNL     1       4.494   4.159  15.366  0.00  0.00    +0.000 OA
ENDBRANCH   9  17
ENDBRANCH   1  13
BRANCH   6  19
ATOM     19  C   UNL     1       0.955  10.288  19.170  0.00  0.00    +0.000 C 
BRANCH  19  20
ATOM     20  C   UNL     1      -0.462  10.513  18.707  0.00  0.00    +0.000 A 
ATOM     21  C   UNL     1      -0.972   9.828  17.597  0.00  0.00    +0.000 A 
ATOM     22  C   UNL     1      -2.304   9.995  17.208  0.00  0.00    +0.000 A 
ATOM     23  C   UNL     1      -3.160  10.844  17.925  0.00  0.00    +0.000 A 
ATOM     24  C   UNL     1      -4.519  10.973  17.589  0.00  0.00    +0.000 A 
ATOM     25  C   UNL     1      -5.362  11.802  18.332  0.00  0.00    +0.000 A 
ATOM     26  C   UNL     1      -4.851  12.532  19.402  0.00  0.00    +0.000 A 
ATOM     27  C   UNL     1      -3.500  12.427  19.737  0.00  0.00    +0.000 A 
ATOM     28  C   UNL     1      -2.647  11.574  19.020  0.00  0.00    +0.000 A 
ATOM     29  C   UNL     1      -1.298  11.412  19.386  0.00  0.00    +0.000 A 
ENDBRANCH  19  20
ENDBRANCH   6  19
TORSDOF 4
ENDMDL
