MODEL 1
REMARK VINA RESULT:      -9.2      0.000      0.000
REMARK  Name = 
REMARK  6 active torsions:
REMARK  status: ('A' for Active; 'I' for Inactive)
REMARK    1  A    between atoms: C_1  and  C_2
REMARK    2  A    between atoms: C_4  and  C_5
REMARK    3  A    between atoms: C_8  and  C_9
REMARK    4  A    between atoms: C_9  and  C_10
REMARK    5  A    between atoms: C_9  and  N_11
REMARK    6  A    between atoms: N_11  and  C_12
REMARK                            x       y       z     vdW  Elec       q    Type
REMARK                         _______ _______ _______ _____ _____    ______ ____
ROOT
ATOM      1  C   UNL     1       7.611   5.999  17.985  0.00  0.00    +0.000 C 
ATOM      2  C   UNL     1       7.148   5.619  19.400  0.00  0.00    +0.000 C 
ENDROOT
BRANCH   1   6
ATOM      3  C   UNL     1       8.530   9.458  18.264  0.00  0.00    +0.000 A 
ATOM      4  N   UNL     1       7.648   9.551  17.256  0.00  0.00    +0.000 NA
ATOM      5  O   UNL     1       7.221   8.235  17.063  0.00  0.00    +0.000 OA
ATOM      6  C   UNL     1       7.893   7.478  17.975  0.00  0.00    +0.000 A 
ATOM      7  N   UNL     1       8.699   8.179  18.738  0.00  0.00    +0.000 NA
BRANCH   3  11
ATOM      8  C   UNL     1      10.988  13.771  17.646  0.00  0.00    +0.000 C 
ATOM      9  C   UNL     1      10.463  12.685  18.537  0.00  0.00    +0.000 A 
ATOM     10  C   UNL     1       9.742  11.604  18.011  0.00  0.00    +0.000 A 
ATOM     11  C   UNL     1       9.254  10.581  18.846  0.00  0.00    +0.000 A 
ATOM     12  C   UNL     1       9.490  10.661  20.226  0.00  0.00    +0.000 A 
ATOM     13  C   UNL     1      10.212  11.734  20.755  0.00  0.00    +0.000 A 
ATOM     14  C   UNL     1      10.691  12.730  19.911  0.00  0.00    +0.000 A 
ATOM     15  F   UNL     1      11.389  13.746  20.438  0.00  0.00    +0.000 F 
ENDBRANCH   3  11
ENDBRANCH   1   6
BRANCH   1  16
ATOM     16  N   UNL     1       6.595   5.589  16.988  0.00  0.00    +0.000 N 
ATOM     17  H   UNL     1       6.980   4.932  16.309  0.00  0.00    +0.000 HD
BRANCH  16  18
ATOM     18  C   UNL     1       5.310   5.212  17.393  0.00  0.00    +0.000 A 
ATOM     19  C   UNL     1       4.276   6.131  17.600  0.00  0.00    +0.000 A 
ATOM     20  C   UNL     1       2.980   5.721  17.919  0.00  0.00    +0.000 A 
ATOM     21  C   UNL     1       2.704   4.369  18.052  0.00  0.00    +0.000 A 
ATOM     22  C   UNL     1       3.698   3.418  17.821  0.00  0.00    +0.000 A 
ATOM     23  C   UNL     1       4.988   3.845  17.463  0.00  0.00    +0.000 A 
ATOM     24  C   UNL     1       3.325   1.961  17.852  0.00  0.00    +0.000 C 
ATOM     25  C   UNL     1       2.227   1.704  18.874  0.00  0.00    +0.000 C 
ATOM     26  C   UNL     1       1.078   2.676  18.722  0.00  0.00    +0.000 C 
ATOM     27  O   UNL     1      -0.082   2.373  18.986  0.00  0.00    +0.000 OA
ATOM     28  N   UNL     1       1.413   3.962  18.392  0.00  0.00    +0.000 N 
ATOM     29  H   UNL     1       0.659   4.636  18.426  0.00  0.00    +0.000 HD
ENDBRANCH  16  18
ENDBRANCH   1  16
TORSDOF 4
ENDMDL
MODEL 2
REMARK VINA RESULT:      -9.1      5.847      8.020
REMARK  Name = 
REMARK  6 active torsions:
REMARK  status: ('A' for Active; 'I' for Inactive)
REMARK    1  A    between atoms: C_1  and  C_2
REMARK    2  A    between atoms: C_4  and  C_5
REMARK    3  A    between atoms: C_8  and  C_9
REMARK    4  A    between atoms: C_9  and  C_10
REMARK    5  A    between atoms: C_9  and  N_11
REMARK    6  A    between atoms: N_11  and  C_12
REMARK                            x       y       z     vdW  Elec       q    Type
REMARK                         _______ _______ _______ _____ _____    ______ ____
ROOT
ATOM      1  C   UNL     1       2.885   4.698  19.157  0.00  0.00    +0.000 C 
ATOM      2  C   UNL     1       2.849   3.419  20.010  0.00  0.00    +0.000 C 
ENDROOT
BRANCH   1   6
ATOM      3  C   UNL     1       5.471   4.506  16.674  0.00  0.00    +0.000 A 
ATOM      4  N   UNL     1       6.227   4.398  17.779  0.00  0.00    +0.000 NA
ATOM      5  O   UNL     1       5.301   4.463  18.823  0.00  0.00    +0.000 OA
ATOM      6  C   UNL     1       4.077   4.606  18.242  0.00  0.00    +0.000 A 
ATOM      7  N   UNL     1       4.127   4.630  16.930  0.00  0.00    +0.000 NA
BRANCH   3  11
ATOM      8  C   UNL     1       4.918   3.115  11.900  0.00  0.00    +0.000 C 
ATOM      9  C   UNL     1       5.710   3.794  12.977  0.00  0.00    +0.000 A 
ATOM     10  C   UNL     1       5.235   3.853  14.295  0.00  0.00    +0.000 A 
ATOM     11  C   UNL     1       5.981   4.483  15.309  0.00  0.00    +0.000 A 
ATOM     12  C   UNL     1       7.213   5.069  14.980  0.00  0.00    +0.000 A 
ATOM     13  C   UNL     1       7.692   5.009  13.670  0.00  0.00    +0.000 A 
ATOM     14  C   UNL     1       6.943   4.374  12.686  0.00  0.00    +0.000 A 
ATOM     15  F   UNL     1       7.426   4.320  11.437  0.00  0.00    +0.000 F 
ENDBRANCH   3  11
ENDBRANCH   1   6
BRANCH   1  16
ATOM     16  N   UNL     1       2.908   5.894  20.031  0.00  0.00    +0.000 N 
ATOM     17  H   UNL     1       3.816   6.012  20.480  0.00  0.00    +0.000 HD
BRANCH  16  18
ATOM     18  C   UNL     1       2.395   7.115  19.581  0.00  0.00    +0.000 A 
ATOM     19  C   UNL     1       2.491   7.538  18.250  0.00  0.00    +0.000 A 
ATOM     20  C   UNL     1       1.893   8.720  17.810  0.00  0.00    +0.000 A 
ATOM     21  C   UNL     1       1.198   9.512  18.711  0.00  0.00    +0.000 A 
ATOM     22  C   UNL     1       1.050   9.110  20.038  0.00  0.00    +0.000 A 
ATOM     23  C   UNL     1       1.623   7.898  20.457  0.00  0.00    +0.000 A 
ATOM     24  C   UNL     1       0.182   9.934  20.950  0.00  0.00    +0.000 C 
ATOM     25  C   UNL     1       0.266  11.410  20.590  0.00  0.00    +0.000 C 
ATOM     26  C   UNL     1       0.070  11.641  19.108  0.00  0.00    +0.000 C 
ATOM     27  O   UNL     1      -0.449  12.659  18.661  0.00  0.00    +0.000 OA
ATOM     28  N   UNL     1       0.620  10.705  18.273  0.00  0.00    +0.000 N 
ATOM     29  H   UNL     1       0.606  10.932  17.287  0.00  0.00    +0.000 HD
ENDBRANCH  16  18
ENDBRANCH   1  16
TORSDOF 4
ENDMDL
MODEL 3
REMARK VINA RESULT:      -8.9      5.547      8.140
REMARK  Name = 
REMARK  6 active torsions:
REMARK  status: ('A' for Active; 'I' for Inactive)
REMARK    1  A    between atoms: C_1  and  C_2
REMARK    2  A    between atoms: C_4  and  C_5
REMARK    3  A    between atoms: C_8  and  C_9
REMARK    4  A    between atoms: C_9  and  C_10
REMARK    5  A    between atoms: C_9  and  N_11
REMARK    6  A    between atoms: N_11  and  C_12
REMARK                            x       y       z     vdW  Elec       q    Type
REMARK                         _______ _______ _______ _____ _____    ______ ____
ROOT
ATOM      1  C   UNL     1       1.917   5.227  19.757  0.00  0.00    +0.000 C 
ATOM      2  C   UNL     1       1.615   4.165  20.826  0.00  0.00    +0.000 C 
ENDROOT
BRANCH   1   6
ATOM      3  C   UNL     1       4.436   4.246  17.394  0.00  0.00    +0.000 A 
ATOM      4  N   UNL     1       4.283   3.079  18.042  0.00  0.00    +0.000 NA
ATOM      5  O   UNL     1       3.306   3.355  19.001  0.00  0.00    +0.000 OA
ATOM      6  C   UNL     1       2.969   4.665  18.837  0.00  0.00    +0.000 A 
ATOM      7  N   UNL     1       3.626   5.252  17.864  0.00  0.00    +0.000 NA
BRANCH   3  11
ATOM      8  C   UNL     1       5.639   3.497  12.597  0.00  0.00    +0.000 C 
ATOM      9  C   UNL     1       5.941   4.093  13.939  0.00  0.00    +0.000 A 
ATOM     10  C   UNL     1       5.067   3.916  15.021  0.00  0.00    +0.000 A 
ATOM     11  C   UNL     1       5.352   4.470  16.284  0.00  0.00    +0.000 A 
ATOM     12  C   UNL     1       6.527   5.219  16.446  0.00  0.00    +0.000 A 
ATOM     13  C   UNL     1       7.403   5.395  15.372  0.00  0.00    +0.000 A 
ATOM     14  C   UNL     1       7.105   4.832  14.136  0.00  0.00    +0.000 A 
ATOM     15  F   UNL     1       7.964   5.005  13.121  0.00  0.00    +0.000 F 
ENDBRANCH   3  11
ENDBRANCH   1   6
BRANCH   1  16
ATOM     16  N   UNL     1       2.320   6.500  20.400  0.00  0.00    +0.000 N 
ATOM     17  H   UNL     1       3.314   6.504  20.631  0.00  0.00    +0.000 HD
BRANCH  16  18
ATOM     18  C   UNL     1       1.911   7.727  19.869  0.00  0.00    +0.000 A 
ATOM     19  C   UNL     1       2.182   8.117  18.553  0.00  0.00    +0.000 A 
ATOM     20  C   UNL     1       1.686   9.309  18.022  0.00  0.00    +0.000 A 
ATOM     21  C   UNL     1       0.916  10.144  18.818  0.00  0.00    +0.000 A 
ATOM     22  C   UNL     1       0.595   9.777  20.124  0.00  0.00    +0.000 A 
ATOM     23  C   UNL     1       1.068   8.556  20.631  0.00  0.00    +0.000 A 
ATOM     24  C   UNL     1      -0.347  10.650  20.908  0.00  0.00    +0.000 C 
ATOM     25  C   UNL     1      -0.165  12.114  20.535  0.00  0.00    +0.000 C 
ATOM     26  C   UNL     1      -0.172  12.318  19.036  0.00  0.00    +0.000 C 
ATOM     27  O   UNL     1      -0.595  13.344  18.511  0.00  0.00    +0.000 OA
ATOM     28  N   UNL     1       0.440  11.346  18.291  0.00  0.00    +0.000 N 
ATOM     29  H   UNL     1       0.554  11.551  17.307  0.00  0.00    +0.000 HD
ENDBRANCH  16  18
ENDBRANCH   1  16
TORSDOF 4
ENDMDL
MODEL 4
REMARK VINA RESULT:      -8.8      1.713      2.242
REMARK  Name = 
REMARK  6 active torsions:
REMARK  status: ('A' for Active; 'I' for Inactive)
REMARK    1  A    between atoms: C_1  and  C_2
REMARK    2  A    between atoms: C_4  and  C_5
REMARK    3  A    between atoms: C_8  and  C_9
REMARK    4  A    between atoms: C_9  and  C_10
REMARK    5  A    between atoms: C_9  and  N_11
REMARK    6  A    between atoms: N_11  and  C_12
REMARK                            x       y       z     vdW  Elec       q    Type
REMARK                         _______ _______ _______ _____ _____    ______ ____
ROOT
ATOM      1  C   UNL     1       6.616   5.857  16.249  0.00  0.00    +0.000 C 
ATOM      2  C   UNL     1       7.056   4.449  16.684  0.00  0.00    +0.000 C 
ENDROOT
BRANCH   1   6
ATOM      3  C   UNL     1       8.186   8.502  18.101  0.00  0.00    +0.000 A 
ATOM      4  N   UNL     1       8.474   7.472  18.913  0.00  0.00    +0.000 NA
ATOM      5  O   UNL     1       7.897   6.372  18.273  0.00  0.00    +0.000 OA
ATOM      6  C   UNL     1       7.316   6.851  17.138  0.00  0.00    +0.000 A 
ATOM      7  N   UNL     1       7.470   8.146  16.983  0.00  0.00    +0.000 NA
BRANCH   3  11
ATOM      8  C   UNL     1      10.472  11.889  20.986  0.00  0.00    +0.000 C 
ATOM      9  C   UNL     1       9.696  11.538  19.752  0.00  0.00    +0.000 A 
ATOM     10  C   UNL     1       9.319  10.214  19.488  0.00  0.00    +0.000 A 
ATOM     11  C   UNL     1       8.584   9.884  18.333  0.00  0.00    +0.000 A 
ATOM     12  C   UNL     1       8.241  10.904  17.434  0.00  0.00    +0.000 A 
ATOM     13  C   UNL     1       8.612  12.225  17.694  0.00  0.00    +0.000 A 
ATOM     14  C   UNL     1       9.330  12.530  18.845  0.00  0.00    +0.000 A 
ATOM     15  F   UNL     1       9.667  13.806  19.080  0.00  0.00    +0.000 F 
ENDBRANCH   3  11
ENDBRANCH   1   6
BRANCH   1  16
ATOM     16  N   UNL     1       5.139   5.967  16.295  0.00  0.00    +0.000 N 
ATOM     17  H   UNL     1       4.710   5.581  15.454  0.00  0.00    +0.000 HD
BRANCH  16  18
ATOM     18  C   UNL     1       4.433   5.604  17.445  0.00  0.00    +0.000 A 
ATOM     19  C   UNL     1       3.596   6.486  18.138  0.00  0.00    +0.000 A 
ATOM     20  C   UNL     1       2.835   6.072  19.232  0.00  0.00    +0.000 A 
ATOM     21  C   UNL     1       2.914   4.757  19.662  0.00  0.00    +0.000 A 
ATOM     22  C   UNL     1       3.709   3.836  18.979  0.00  0.00    +0.000 A 
ATOM     23  C   UNL     1       4.439   4.259  17.856  0.00  0.00    +0.000 A 
ATOM     24  C   UNL     1       3.668   2.393  19.402  0.00  0.00    +0.000 C 
ATOM     25  C   UNL     1       3.457   2.274  20.904  0.00  0.00    +0.000 C 
ATOM     26  C   UNL     1       2.307   3.134  21.381  0.00  0.00    +0.000 C 
ATOM     27  O   UNL     1       1.602   2.822  22.337  0.00  0.00    +0.000 OA
ATOM     28  N   UNL     1       2.168   4.350  20.770  0.00  0.00    +0.000 N 
ATOM     29  H   UNL     1       1.488   4.976  21.182  0.00  0.00    +0.000 HD
ENDBRANCH  16  18
ENDBRANCH   1  16
TORSDOF 4
ENDMDL
MODEL 5
REMARK VINA RESULT:      -8.6      2.580      3.656
REMARK  Name = 
REMARK  6 active torsions:
REMARK  status: ('A' for Active; 'I' for Inactive)
REMARK    1  A    between atoms: C_1  and  C_2
REMARK    2  A    between atoms: C_4  and  C_5
REMARK    3  A    between atoms: C_8  and  C_9
REMARK    4  A    between atoms: C_9  and  C_10
REMARK    5  A    between atoms: C_9  and  N_11
REMARK    6  A    between atoms: N_11  and  C_12
REMARK                            x       y       z     vdW  Elec       q    Type
REMARK                         _______ _______ _______ _____ _____    ______ ____
ROOT
ATOM      1  C   UNL     1       6.051   5.667  16.022  0.00  0.00    +0.000 C 
ATOM      2  C   UNL     1       7.000   4.668  15.340  0.00  0.00    +0.000 C 
ENDROOT
BRANCH   1   6
ATOM      3  C   UNL     1       7.915   8.044  17.962  0.00  0.00    +0.000 A 
ATOM      4  N   UNL     1       8.210   6.928  18.649  0.00  0.00    +0.000 NA
ATOM      5  O   UNL     1       7.522   5.923  17.964  0.00  0.00    +0.000 OA
ATOM      6  C   UNL     1       6.876   6.536  16.933  0.00  0.00    +0.000 A 
ATOM      7  N   UNL     1       7.090   7.831  16.883  0.00  0.00    +0.000 NA
BRANCH   3  11
ATOM      8  C   UNL     1       7.902  12.965  17.064  0.00  0.00    +0.000 C 
ATOM      9  C   UNL     1       8.406  11.781  17.835  0.00  0.00    +0.000 A 
ATOM     10  C   UNL     1       7.932  10.490  17.565  0.00  0.00    +0.000 A 
ATOM     11  C   UNL     1       8.408   9.377  18.284  0.00  0.00    +0.000 A 
ATOM     12  C   UNL     1       9.364   9.578  19.291  0.00  0.00    +0.000 A 
ATOM     13  C   UNL     1       9.842  10.862  19.561  0.00  0.00    +0.000 A 
ATOM     14  C   UNL     1       9.363  11.946  18.833  0.00  0.00    +0.000 A 
ATOM     15  F   UNL     1       9.842  13.169  19.101  0.00  0.00    +0.000 F 
ENDBRANCH   3  11
ENDBRANCH   1   6
BRANCH   1  16
ATOM     16  N   UNL     1       4.967   4.943  16.725  0.00  0.00    +0.000 N 
ATOM     17  H   UNL     1       5.294   4.052  17.100  0.00  0.00    +0.000 HD
BRANCH  16  18
ATOM     18  C   UNL     1       4.138   5.608  17.634  0.00  0.00    +0.000 A 
ATOM     19  C   UNL     1       3.885   5.134  18.925  0.00  0.00    +0.000 A 
ATOM     20  C   UNL     1       3.125   5.863  19.841  0.00  0.00    +0.000 A 
ATOM     21  C   UNL     1       2.589   7.085  19.466  0.00  0.00    +0.000 A 
ATOM     22  C   UNL     1       2.845   7.611  18.199  0.00  0.00    +0.000 A 
ATOM     23  C   UNL     1       3.644   6.883  17.302  0.00  0.00    +0.000 A 
ATOM     24  C   UNL     1       2.350   8.995  17.879  0.00  0.00    +0.000 C 
ATOM     25  C   UNL     1       1.032   9.276  18.584  0.00  0.00    +0.000 C 
ATOM     26  C   UNL     1       1.093   8.922  20.054  0.00  0.00    +0.000 C 
ATOM     27  O   UNL     1       0.448   9.527  20.906  0.00  0.00    +0.000 OA
ATOM     28  N   UNL     1       1.811   7.803  20.376  0.00  0.00    +0.000 N 
ATOM     29  H   UNL     1       1.736   7.493  21.337  0.00  0.00    +0.000 HD
ENDBRANCH  16  18
ENDBRANCH   1  16
TORSDOF 4
ENDMDL
MODEL 6
REMARK VINA RESULT:      -8.6      1.781      2.555
REMARK  Name = 
REMARK  6 active torsions:
REMARK  status: ('A' for Active; 'I' for Inactive)
REMARK    1  A    between atoms: C_1  and  C_2
REMARK    2  A    between atoms: C_4  and  C_5
REMARK    3  A    between atoms: C_8  and  C_9
REMARK    4  A    between atoms: C_9  and  C_10
REMARK    5  A    between atoms: C_9  and  N_11
REMARK    6  A    between atoms: N_11  and  C_12
REMARK                            x       y       z     vdW  Elec       q    Type
REMARK                         _______ _______ _______ _____ _____    ______ ____
ROOT
ATOM      1  C   UNL     1       6.537   5.891  16.365  0.00  0.00    +0.000 C 
ATOM      2  C   UNL     1       7.159   4.508  16.617  0.00  0.00    +0.000 C 
ENDROOT
BRANCH   1   6
ATOM      3  C   UNL     1       8.191   8.542  18.134  0.00  0.00    +0.000 A 
ATOM      4  N   UNL     1       8.501   7.516  18.945  0.00  0.00    +0.000 NA
ATOM      5  O   UNL     1       7.895   6.415  18.337  0.00  0.00    +0.000 OA
ATOM      6  C   UNL     1       7.275   6.888  17.219  0.00  0.00    +0.000 A 
ATOM      7  N   UNL     1       7.433   8.180  17.046  0.00  0.00    +0.000 NA
BRANCH   3  11
ATOM      8  C   UNL     1      10.732  11.911  20.820  0.00  0.00    +0.000 C 
ATOM      9  C   UNL     1       9.845  11.568  19.661  0.00  0.00    +0.000 A 
ATOM     10  C   UNL     1       9.446  10.245  19.424  0.00  0.00    +0.000 A 
ATOM     11  C   UNL     1       8.608   9.923  18.339  0.00  0.00    +0.000 A 
ATOM     12  C   UNL     1       8.181  10.949  17.484  0.00  0.00    +0.000 A 
ATOM     13  C   UNL     1       8.572  12.269  17.718  0.00  0.00    +0.000 A 
ATOM     14  C   UNL     1       9.394  12.566  18.800  0.00  0.00    +0.000 A 
ATOM     15  F   UNL     1       9.750  13.841  19.013  0.00  0.00    +0.000 F 
ENDBRANCH   3  11
ENDBRANCH   1   6
BRANCH   1  16
ATOM     16  N   UNL     1       5.081   5.853  16.635  0.00  0.00    +0.000 N 
ATOM     17  H   UNL     1       4.544   5.741  15.774  0.00  0.00    +0.000 HD
BRANCH  16  18
ATOM     18  C   UNL     1       4.568   5.061  17.667  0.00  0.00    +0.000 A 
ATOM     19  C   UNL     1       5.290   4.020  18.260  0.00  0.00    +0.000 A 
ATOM     20  C   UNL     1       4.787   3.303  19.348  0.00  0.00    +0.000 A 
ATOM     21  C   UNL     1       3.534   3.613  19.851  0.00  0.00    +0.000 A 
ATOM     22  C   UNL     1       2.795   4.666  19.311  0.00  0.00    +0.000 A 
ATOM     23  C   UNL     1       3.331   5.403  18.242  0.00  0.00    +0.000 A 
ATOM     24  C   UNL     1       1.497   5.049  19.968  0.00  0.00    +0.000 C 
ATOM     25  C   UNL     1       0.799   3.826  20.543  0.00  0.00    +0.000 C 
ATOM     26  C   UNL     1       1.737   2.983  21.379  0.00  0.00    +0.000 C 
ATOM     27  O   UNL     1       1.354   2.332  22.347  0.00  0.00    +0.000 OA
ATOM     28  N   UNL     1       3.024   2.880  20.924  0.00  0.00    +0.000 N 
ATOM     29  H   UNL     1       3.609   2.209  21.406  0.00  0.00    +0.000 HD
ENDBRANCH  16  18
ENDBRANCH   1  16
TORSDOF 4
ENDMDL
MODEL 7
REMARK VINA RESULT:      -8.6      6.078      8.613
REMARK  Name = 
REMARK  6 active torsions:
REMARK  status: ('A' for Active; 'I' for Inactive)
REMARK    1  A    between atoms: C_1  and  C_2
REMARK    2  A    between atoms: C_4  and  C_5
REMARK    3  A    between atoms: C_8  and  C_9
REMARK    4  A    between atoms: C_9  and  C_10
REMARK    5  A    between atoms: C_9  and  N_11
REMARK    6  A    between atoms: N_11  and  C_12
REMARK                            x       y       z     vdW  Elec       q    Type
REMARK                         _______ _______ _______ _____ _____    ______ ____
ROOT
ATOM      1  C   UNL     1       1.029   8.302  20.554  0.00  0.00    +0.000 C 
ATOM      2  C   UNL     1       1.460   8.794  21.945  0.00  0.00    +0.000 C 
ENDROOT
BRANCH   1   6
ATOM      3  C   UNL     1       3.437   5.932  19.340  0.00  0.00    +0.000 A 
ATOM      4  N   UNL     1       2.760   5.137  20.185  0.00  0.00    +0.000 NA
ATOM      5  O   UNL     1       1.781   5.976  20.721  0.00  0.00    +0.000 OA
ATOM      6  C   UNL     1       1.968   7.198  20.147  0.00  0.00    +0.000 A 
ATOM      7  N   UNL     1       2.963   7.221  19.290  0.00  0.00    +0.000 NA
BRANCH   3  11
ATOM      8  C   UNL     1       5.242   4.583  14.874  0.00  0.00    +0.000 C 
ATOM      9  C   UNL     1       5.443   4.843  16.337  0.00  0.00    +0.000 A 
ATOM     10  C   UNL     1       4.381   5.272  17.146  0.00  0.00    +0.000 A 
ATOM     11  C   UNL     1       4.566   5.510  18.522  0.00  0.00    +0.000 A 
ATOM     12  C   UNL     1       5.840   5.322  19.077  0.00  0.00    +0.000 A 
ATOM     13  C   UNL     1       6.900   4.890  18.276  0.00  0.00    +0.000 A 
ATOM     14  C   UNL     1       6.693   4.653  16.921  0.00  0.00    +0.000 A 
ATOM     15  F   UNL     1       7.721   4.230  16.173  0.00  0.00    +0.000 F 
ENDBRANCH   3  11
ENDBRANCH   1   6
BRANCH   1  16
ATOM     16  N   UNL     1       1.005   9.433  19.597  0.00  0.00    +0.000 N 
ATOM     17  H   UNL     1       1.558   9.231  18.764  0.00  0.00    +0.000 HD
BRANCH  16  18
ATOM     18  C   UNL     1      -0.200  10.066  19.272  0.00  0.00    +0.000 A 
ATOM     19  C   UNL     1      -0.809  11.017  20.098  0.00  0.00    +0.000 A 
ATOM     20  C   UNL     1      -1.964  11.697  19.708  0.00  0.00    +0.000 A 
ATOM     21  C   UNL     1      -2.540  11.418  18.479  0.00  0.00    +0.000 A 
ATOM     22  C   UNL     1      -1.947  10.501  17.611  0.00  0.00    +0.000 A 
ATOM     23  C   UNL     1      -0.762   9.854  18.001  0.00  0.00    +0.000 A 
ATOM     24  C   UNL     1      -2.534  10.323  16.237  0.00  0.00    +0.000 C 
ATOM     25  C   UNL     1      -4.045  10.498  16.267  0.00  0.00    +0.000 C 
ATOM     26  C   UNL     1      -4.452  11.758  16.999  0.00  0.00    +0.000 C 
ATOM     27  O   UNL     1      -5.456  12.399  16.702  0.00  0.00    +0.000 OA
ATOM     28  N   UNL     1      -3.708  12.083  18.101  0.00  0.00    +0.000 N 
ATOM     29  H   UNL     1      -4.065  12.845  18.664  0.00  0.00    +0.000 HD
ENDBRANCH  16  18
ENDBRANCH   1  16
TORSDOF 4
ENDMDL
MODEL 8
REMARK VINA RESULT:      -8.5      3.936      7.433
REMARK  Name = 
REMARK  6 active torsions:
REMARK  status: ('A' for Active; 'I' for Inactive)
REMARK    1  A    between atoms: C_1  and  C_2
REMARK    2  A    between atoms: C_4  and  C_5
REMARK    3  A    between atoms: C_8  and  C_9
REMARK    4  A    between atoms: C_9  and  C_10
REMARK    5  A    between atoms: C_9  and  N_11
REMARK    6  A    between atoms: N_11  and  C_12
REMARK                            x       y       z     vdW  Elec       q    Type
REMARK                         _______ _______ _______ _____ _____    ______ ____
ROOT
ATOM      1  C   UNL     1       2.474   2.249  19.138  0.00  0.00    +0.000 C 
ATOM      2  C   UNL     1       1.258   2.045  18.220  0.00  0.00    +0.000 C 
ENDROOT
BRANCH   1   6
ATOM      3  C   UNL     1       1.966   5.559  20.431  0.00  0.00    +0.000 A 
ATOM      4  N   UNL     1       2.410   4.959  21.547  0.00  0.00    +0.000 NA
ATOM      5  O   UNL     1       2.643   3.641  21.147  0.00  0.00    +0.000 OA
ATOM      6  C   UNL     1       2.311   3.577  19.827  0.00  0.00    +0.000 A 
ATOM      7  N   UNL     1       1.899   4.725  19.340  0.00  0.00    +0.000 NA
BRANCH   3  11
ATOM      8  C   UNL     1       1.993   9.844  17.849  0.00  0.00    +0.000 C 
ATOM      9  C   UNL     1       1.614   9.059  19.070  0.00  0.00    +0.000 A 
ATOM     10  C   UNL     1       1.940   7.700  19.184  0.00  0.00    +0.000 A 
ATOM     11  C   UNL     1       1.590   6.964  20.332  0.00  0.00    +0.000 A 
ATOM     12  C   UNL     1       0.894   7.608  21.365  0.00  0.00    +0.000 A 
ATOM     13  C   UNL     1       0.571   8.962  21.258  0.00  0.00    +0.000 A 
ATOM     14  C   UNL     1       0.934   9.673  20.119  0.00  0.00    +0.000 A 
ATOM     15  F   UNL     1       0.621  10.974  20.040  0.00  0.00    +0.000 F 
ENDBRANCH   3  11
ENDBRANCH   1   6
BRANCH   1  16
ATOM     16  N   UNL     1       3.728   2.144  18.355  0.00  0.00    +0.000 N 
ATOM     17  H   UNL     1       3.638   1.469  17.595  0.00  0.00    +0.000 HD
BRANCH  16  18
ATOM     18  C   UNL     1       4.409   3.293  17.944  0.00  0.00    +0.000 A 
ATOM     19  C   UNL     1       4.109   3.976  16.760  0.00  0.00    +0.000 A 
ATOM     20  C   UNL     1       4.745   5.171  16.419  0.00  0.00    +0.000 A 
ATOM     21  C   UNL     1       5.714   5.695  17.261  0.00  0.00    +0.000 A 
ATOM     22  C   UNL     1       6.020   5.064  18.466  0.00  0.00    +0.000 A 
ATOM     23  C   UNL     1       5.342   3.884  18.815  0.00  0.00    +0.000 A 
ATOM     24  C   UNL     1       6.984   5.734  19.408  0.00  0.00    +0.000 C 
ATOM     25  C   UNL     1       8.052   6.495  18.637  0.00  0.00    +0.000 C 
ATOM     26  C   UNL     1       7.451   7.382  17.569  0.00  0.00    +0.000 C 
ATOM     27  O   UNL     1       7.964   8.443  17.226  0.00  0.00    +0.000 OA
ATOM     28  N   UNL     1       6.365   6.878  16.906  0.00  0.00    +0.000 N 
ATOM     29  H   UNL     1       6.052   7.410  16.104  0.00  0.00    +0.000 HD
ENDBRANCH  16  18
ENDBRANCH   1  16
TORSDOF 4
ENDMDL
MODEL 9
REMARK VINA RESULT:      -8.5      5.829      7.866
REMARK  Name = 
REMARK  6 active torsions:
REMARK  status: ('A' for Active; 'I' for Inactive)
REMARK    1  A    between atoms: C_1  and  C_2
REMARK    2  A    between atoms: C_4  and  C_5
REMARK    3  A    between atoms: C_8  and  C_9
REMARK    4  A    between atoms: C_9  and  C_10
REMARK    5  A    between atoms: C_9  and  N_11
REMARK    6  A    between atoms: N_11  and  C_12
REMARK                            x       y       z     vdW  Elec       q    Type
REMARK                         _______ _______ _______ _____ _____    ______ ____
ROOT
ATOM      1  C   UNL     1       2.944   5.007  19.184  0.00  0.00    +0.000 C 
ATOM      2  C   UNL     1       2.898   3.792  20.124  0.00  0.00    +0.000 C 
ENDROOT
BRANCH   1   6
ATOM      3  C   UNL     1       5.462   4.574  16.661  0.00  0.00    +0.000 A 
ATOM      4  N   UNL     1       6.243   4.533  17.753  0.00  0.00    +0.000 NA
ATOM      5  O   UNL     1       5.345   4.695  18.811  0.00  0.00    +0.000 OA
ATOM      6  C   UNL     1       4.110   4.821  18.250  0.00  0.00    +0.000 A 
ATOM      7  N   UNL     1       4.127   4.747  16.939  0.00  0.00    +0.000 NA
BRANCH   3  11
ATOM      8  C   UNL     1       8.735   5.853  13.101  0.00  0.00    +0.000 C 
ATOM      9  C   UNL     1       7.534   5.074  13.550  0.00  0.00    +0.000 A 
ATOM     10  C   UNL     1       7.068   5.165  14.869  0.00  0.00    +0.000 A 
ATOM     11  C   UNL     1       5.936   4.440  15.290  0.00  0.00    +0.000 A 
ATOM     12  C   UNL     1       5.282   3.609  14.369  0.00  0.00    +0.000 A 
ATOM     13  C   UNL     1       5.741   3.519  13.053  0.00  0.00    +0.000 A 
ATOM     14  C   UNL     1       6.855   4.250  12.656  0.00  0.00    +0.000 A 
ATOM     15  F   UNL     1       7.273   4.157  11.386  0.00  0.00    +0.000 F 
ENDBRANCH   3  11
ENDBRANCH   1   6
BRANCH   1  16
ATOM     16  N   UNL     1       3.017   6.260  19.971  0.00  0.00    +0.000 N 
ATOM     17  H   UNL     1       3.968   6.445  20.292  0.00  0.00    +0.000 HD
BRANCH  16  18
ATOM     18  C   UNL     1       2.393   7.426  19.515  0.00  0.00    +0.000 A 
ATOM     19  C   UNL     1       2.437   7.842  18.180  0.00  0.00    +0.000 A 
ATOM     20  C   UNL     1       1.732   8.962  17.736  0.00  0.00    +0.000 A 
ATOM     21  C   UNL     1       0.978   9.697  18.637  0.00  0.00    +0.000 A 
ATOM     22  C   UNL     1       0.880   9.298  19.969  0.00  0.00    +0.000 A 
ATOM     23  C   UNL     1       1.563   8.146  20.393  0.00  0.00    +0.000 A 
ATOM     24  C   UNL     1      -0.050  10.050  20.883  0.00  0.00    +0.000 C 
ATOM     25  C   UNL     1      -0.101  11.524  20.508  0.00  0.00    +0.000 C 
ATOM     26  C   UNL     1      -0.332  11.721  19.026  0.00  0.00    +0.000 C 
ATOM     27  O   UNL     1      -0.944  12.685  18.575  0.00  0.00    +0.000 OA
ATOM     28  N   UNL     1       0.291  10.830  18.194  0.00  0.00    +0.000 N 
ATOM     29  H   UNL     1       0.248  11.045  17.207  0.00  0.00    +0.000 HD
ENDBRANCH  16  18
ENDBRANCH   1  16
TORSDOF 4
ENDMDL
