MODEL 1
REMARK VINA RESULT:      -8.6      0.000      0.000
REMARK  Name = 
REMARK  4 active torsions:
REMARK  status: ('A' for Active; 'I' for Inactive)
REMARK    1  A    between atoms: C_1  and  C_2
REMARK    2  A    between atoms: C_6  and  C_8
REMARK    3  A    between atoms: C_11  and  S_12
REMARK    4  A    between atoms: S_12  and  N_15
REMARK                            x       y       z     vdW  Elec       q    Type
REMARK                         _______ _______ _______ _____ _____    ______ ____
ROOT
ATOM      1  C   UNL     1       1.884   7.861  19.575  0.00  0.00    +0.000 A 
ATOM      2  C   UNL     1       1.818   6.755  20.431  0.00  0.00    +0.000 A 
ATOM      3  C   UNL     1       2.381   5.531  20.032  0.00  0.00    +0.000 A 
ATOM      4  C   UNL     1       3.022   5.424  18.789  0.00  0.00    +0.000 A 
ATOM      5  C   UNL     1       3.143   6.537  17.965  0.00  0.00    +0.000 A 
ATOM      6  C   UNL     1       2.557   7.741  18.347  0.00  0.00    +0.000 A 
ENDROOT
BRANCH   1  12
ATOM      7  C   UNL     1      -1.828  12.982  23.493  0.00  0.00    +0.000 C 
ATOM      8  C   UNL     1      -1.109  12.060  22.595  0.00  0.00    +0.000 A 
ATOM      9  C   UNL     1      -0.718  10.742  22.646  0.00  0.00    +0.000 A 
ATOM     10  C   UNL     1      -0.047  10.519  21.417  0.00  0.00    +0.000 A 
ATOM     11  N   UNL     1       0.542   9.315  21.040  0.00  0.00    +0.000 N 
ATOM     12  C   UNL     1       1.206   9.165  19.837  0.00  0.00    +0.000 C 
ATOM     13  O   UNL     1       1.316  10.015  18.957  0.00  0.00    +0.000 OA
ATOM     14  N   UNL     1      -0.053  11.633  20.681  0.00  0.00    +0.000 NA
ATOM     15  O   UNL     1      -0.706  12.594  21.414  0.00  0.00    +0.000 OA
ATOM     16  H   UNL     1       0.533   8.568  21.717  0.00  0.00    +0.000 HD
ENDBRANCH   1  12
BRANCH   4  17
ATOM     17  S   UNL     1       3.611   3.841  18.213  0.00  0.00    +0.000 S 
ATOM     18  O   UNL     1       3.301   2.887  19.258  0.00  0.00    +0.000 OA
ATOM     19  O   UNL     1       3.073   3.656  16.880  0.00  0.00    +0.000 OA
BRANCH  17  20
ATOM     20  N   UNL     1       5.314   4.040  18.106  0.00  0.00    +0.000 N 
ATOM     21  C   UNL     1       6.047   4.518  19.297  0.00  0.00    +0.000 C 
ATOM     22  C   UNL     1       6.738   5.861  19.123  0.00  0.00    +0.000 C 
ATOM     23  C   UNL     1       7.271   6.180  17.736  0.00  0.00    +0.000 C 
ATOM     24  C   UNL     1       6.742   5.350  16.607  0.00  0.00    +0.000 A 
ATOM     25  C   UNL     1       7.162   5.672  15.303  0.00  0.00    +0.000 A 
ATOM     26  C   UNL     1       6.796   4.880  14.220  0.00  0.00    +0.000 A 
ATOM     27  C   UNL     1       6.036   3.738  14.434  0.00  0.00    +0.000 A 
ATOM     28  C   UNL     1       5.593   3.424  15.721  0.00  0.00    +0.000 A 
ATOM     29  C   UNL     1       5.898   4.252  16.807  0.00  0.00    +0.000 A 
ENDBRANCH  17  20
ENDBRANCH   4  17
TORSDOF 3
ENDMDL
MODEL 2
REMARK VINA RESULT:      -8.5      1.175      1.531
REMARK  Name = 
REMARK  4 active torsions:
REMARK  status: ('A' for Active; 'I' for Inactive)
REMARK    1  A    between atoms: C_1  and  C_2
REMARK    2  A    between atoms: C_6  and  C_8
REMARK    3  A    between atoms: C_11  and  S_12
REMARK    4  A    between atoms: S_12  and  N_15
REMARK                            x       y       z     vdW  Elec       q    Type
REMARK                         _______ _______ _______ _____ _____    ______ ____
ROOT
ATOM      1  C   UNL     1       1.810   7.437  19.963  0.00  0.00    +0.000 A 
ATOM      2  C   UNL     1       2.402   7.479  18.695  0.00  0.00    +0.000 A 
ATOM      3  C   UNL     1       2.849   6.289  18.095  0.00  0.00    +0.000 A 
ATOM      4  C   UNL     1       2.687   5.064  18.757  0.00  0.00    +0.000 A 
ATOM      5  C   UNL     1       2.044   5.013  19.990  0.00  0.00    +0.000 A 
ATOM      6  C   UNL     1       1.630   6.195  20.597  0.00  0.00    +0.000 A 
ENDROOT
BRANCH   1  12
ATOM      7  C   UNL     1      -0.906  14.264  21.126  0.00  0.00    +0.000 C 
ATOM      8  C   UNL     1      -0.325  12.912  21.044  0.00  0.00    +0.000 A 
ATOM      9  C   UNL     1       0.043  12.060  20.029  0.00  0.00    +0.000 A 
ATOM     10  C   UNL     1       0.525  10.901  20.690  0.00  0.00    +0.000 A 
ATOM     11  N   UNL     1       0.990   9.756  20.050  0.00  0.00    +0.000 N 
ATOM     12  C   UNL     1       1.424   8.646  20.749  0.00  0.00    +0.000 C 
ATOM     13  O   UNL     1       1.505   8.543  21.971  0.00  0.00    +0.000 OA
ATOM     14  N   UNL     1       0.457  11.066  22.013  0.00  0.00    +0.000 NA
ATOM     15  O   UNL     1      -0.078  12.312  22.236  0.00  0.00    +0.000 OA
ATOM     16  H   UNL     1       0.927   9.736  19.044  0.00  0.00    +0.000 HD
ENDBRANCH   1  12
BRANCH   4  17
ATOM     17  S   UNL     1       3.380   3.570  18.070  0.00  0.00    +0.000 S 
ATOM     18  O   UNL     1       3.054   2.506  18.998  0.00  0.00    +0.000 OA
ATOM     19  O   UNL     1       2.927   3.495  16.695  0.00  0.00    +0.000 OA
BRANCH  17  20
ATOM     20  N   UNL     1       5.074   3.847  18.086  0.00  0.00    +0.000 N 
ATOM     21  C   UNL     1       5.709   4.280  19.348  0.00  0.00    +0.000 C 
ATOM     22  C   UNL     1       6.347   5.659  19.300  0.00  0.00    +0.000 C 
ATOM     23  C   UNL     1       6.950   6.087  17.972  0.00  0.00    +0.000 C 
ATOM     24  C   UNL     1       6.532   5.306  16.764  0.00  0.00    +0.000 A 
ATOM     25  C   UNL     1       7.017   5.727  15.512  0.00  0.00    +0.000 A 
ATOM     26  C   UNL     1       6.757   4.989  14.362  0.00  0.00    +0.000 A 
ATOM     27  C   UNL     1       6.039   3.804  14.457  0.00  0.00    +0.000 A 
ATOM     28  C   UNL     1       5.531   3.392  15.692  0.00  0.00    +0.000 A 
ATOM     29  C   UNL     1       5.729   4.164  16.843  0.00  0.00    +0.000 A 
ENDBRANCH  17  20
ENDBRANCH   4  17
TORSDOF 3
ENDMDL
MODEL 3
REMARK VINA RESULT:      -8.5      5.023      7.447
REMARK  Name = 
REMARK  4 active torsions:
REMARK  status: ('A' for Active; 'I' for Inactive)
REMARK    1  A    between atoms: C_1  and  C_2
REMARK    2  A    between atoms: C_6  and  C_8
REMARK    3  A    between atoms: C_11  and  S_12
REMARK    4  A    between atoms: S_12  and  N_15
REMARK                            x       y       z     vdW  Elec       q    Type
REMARK                         _______ _______ _______ _____ _____    ______ ____
ROOT
ATOM      1  C   UNL     1       8.499   8.582  18.537  0.00  0.00    +0.000 A 
ATOM      2  C   UNL     1       8.596   7.452  19.357  0.00  0.00    +0.000 A 
ATOM      3  C   UNL     1       7.937   6.266  18.991  0.00  0.00    +0.000 A 
ATOM      4  C   UNL     1       7.200   6.211  17.799  0.00  0.00    +0.000 A 
ATOM      5  C   UNL     1       7.153   7.313  16.953  0.00  0.00    +0.000 A 
ATOM      6  C   UNL     1       7.780   8.497  17.332  0.00  0.00    +0.000 A 
ENDROOT
BRANCH   1  12
ATOM      7  C   UNL     1      11.250  15.390  17.343  0.00  0.00    +0.000 C 
ATOM      8  C   UNL     1      10.733  14.065  17.729  0.00  0.00    +0.000 A 
ATOM      9  C   UNL     1      10.429  12.897  17.069  0.00  0.00    +0.000 A 
ATOM     10  C   UNL     1       9.959  12.023  18.083  0.00  0.00    +0.000 A 
ATOM     11  N   UNL     1       9.514  10.722  17.867  0.00  0.00    +0.000 N 
ATOM     12  C   UNL     1       9.042   9.926  18.894  0.00  0.00    +0.000 C 
ATOM     13  O   UNL     1       9.003  10.224  20.085  0.00  0.00    +0.000 OA
ATOM     14  N   UNL     1       9.996  12.635  19.269  0.00  0.00    +0.000 NA
ATOM     15  O   UNL     1      10.469  13.907  19.051  0.00  0.00    +0.000 OA
ATOM     16  H   UNL     1       9.476  10.403  16.912  0.00  0.00    +0.000 HD
ENDBRANCH   1  12
BRANCH   4  17
ATOM     17  S   UNL     1       6.244   4.759  17.398  0.00  0.00    +0.000 S 
ATOM     18  O   UNL     1       6.820   4.215  16.185  0.00  0.00    +0.000 OA
ATOM     19  O   UNL     1       6.190   3.950  18.600  0.00  0.00    +0.000 OA
BRANCH  17  20
ATOM     20  N   UNL     1       4.674   5.369  17.064  0.00  0.00    +0.000 N 
ATOM     21  C   UNL     1       4.500   6.828  16.909  0.00  0.00    +0.000 C 
ATOM     22  C   UNL     1       3.599   7.476  17.949  0.00  0.00    +0.000 C 
ATOM     23  C   UNL     1       2.447   6.636  18.474  0.00  0.00    +0.000 C 
ATOM     24  C   UNL     1       2.528   5.160  18.228  0.00  0.00    +0.000 A 
ATOM     25  C   UNL     1       1.513   4.349  18.768  0.00  0.00    +0.000 A 
ATOM     26  C   UNL     1       1.465   2.987  18.491  0.00  0.00    +0.000 A 
ATOM     27  C   UNL     1       2.412   2.428  17.643  0.00  0.00    +0.000 A 
ATOM     28  C   UNL     1       3.438   3.220  17.122  0.00  0.00    +0.000 A 
ATOM     29  C   UNL     1       3.534   4.578  17.451  0.00  0.00    +0.000 A 
ENDBRANCH  17  20
ENDBRANCH   4  17
TORSDOF 3
ENDMDL
MODEL 4
REMARK VINA RESULT:      -8.4      5.327      7.796
REMARK  Name = 
REMARK  4 active torsions:
REMARK  status: ('A' for Active; 'I' for Inactive)
REMARK    1  A    between atoms: C_1  and  C_2
REMARK    2  A    between atoms: C_6  and  C_8
REMARK    3  A    between atoms: C_11  and  S_12
REMARK    4  A    between atoms: S_12  and  N_15
REMARK                            x       y       z     vdW  Elec       q    Type
REMARK                         _______ _______ _______ _____ _____    ______ ____
ROOT
ATOM      1  C   UNL     1       8.514   9.007  18.490  0.00  0.00    +0.000 A 
ATOM      2  C   UNL     1       7.661   8.940  17.382  0.00  0.00    +0.000 A 
ATOM      3  C   UNL     1       7.042   7.723  17.052  0.00  0.00    +0.000 A 
ATOM      4  C   UNL     1       7.263   6.585  17.841  0.00  0.00    +0.000 A 
ATOM      5  C   UNL     1       8.062   6.664  18.977  0.00  0.00    +0.000 A 
ATOM      6  C   UNL     1       8.700   7.863  19.285  0.00  0.00    +0.000 A 
ENDROOT
BRANCH   1  12
ATOM      7  C   UNL     1      12.286  15.317  17.349  0.00  0.00    +0.000 C 
ATOM      8  C   UNL     1      11.587  14.074  17.721  0.00  0.00    +0.000 A 
ATOM      9  C   UNL     1      11.006  13.031  17.038  0.00  0.00    +0.000 A 
ATOM     10  C   UNL     1      10.506  12.173  18.052  0.00  0.00    +0.000 A 
ATOM     11  N   UNL     1       9.813  10.988  17.821  0.00  0.00    +0.000 N 
ATOM     12  C   UNL     1       9.327  10.206  18.851  0.00  0.00    +0.000 C 
ATOM     13  O   UNL     1       9.479  10.412  20.053  0.00  0.00    +0.000 OA
ATOM     14  N   UNL     1      10.788  12.674  19.257  0.00  0.00    +0.000 NA
ATOM     15  O   UNL     1      11.453  13.859  19.054  0.00  0.00    +0.000 OA
ATOM     16  H   UNL     1       9.609  10.756  16.861  0.00  0.00    +0.000 HD
ENDBRANCH   1  12
BRANCH   4  17
ATOM     17  S   UNL     1       6.598   5.004  17.349  0.00  0.00    +0.000 S 
ATOM     18  O   UNL     1       7.311   4.619  16.148  0.00  0.00    +0.000 OA
ATOM     19  O   UNL     1       6.639   4.151  18.520  0.00  0.00    +0.000 OA
BRANCH  17  20
ATOM     20  N   UNL     1       4.959   5.340  16.960  0.00  0.00    +0.000 N 
ATOM     21  C   UNL     1       4.572   6.738  16.677  0.00  0.00    +0.000 C 
ATOM     22  C   UNL     1       3.569   7.331  17.654  0.00  0.00    +0.000 C 
ATOM     23  C   UNL     1       2.548   6.376  18.249  0.00  0.00    +0.000 C 
ATOM     24  C   UNL     1       2.852   4.914  18.134  0.00  0.00    +0.000 A 
ATOM     25  C   UNL     1       1.961   4.009  18.741  0.00  0.00    +0.000 A 
ATOM     26  C   UNL     1       2.121   2.637  18.585  0.00  0.00    +0.000 A 
ATOM     27  C   UNL     1       3.153   2.155  17.790  0.00  0.00    +0.000 A 
ATOM     28  C   UNL     1       4.058   3.044  17.204  0.00  0.00    +0.000 A 
ATOM     29  C   UNL     1       3.945   4.424  17.413  0.00  0.00    +0.000 A 
ENDBRANCH  17  20
ENDBRANCH   4  17
TORSDOF 3
ENDMDL
MODEL 5
REMARK VINA RESULT:      -8.3      1.286      1.338
REMARK  Name = 
REMARK  4 active torsions:
REMARK  status: ('A' for Active; 'I' for Inactive)
REMARK    1  A    between atoms: C_1  and  C_2
REMARK    2  A    between atoms: C_6  and  C_8
REMARK    3  A    between atoms: C_11  and  S_12
REMARK    4  A    between atoms: S_12  and  N_15
REMARK                            x       y       z     vdW  Elec       q    Type
REMARK                         _______ _______ _______ _____ _____    ______ ____
ROOT
ATOM      1  C   UNL     1       2.199   8.295  18.685  0.00  0.00    +0.000 A 
ATOM      2  C   UNL     1       2.041   7.414  19.762  0.00  0.00    +0.000 A 
ATOM      3  C   UNL     1       2.640   6.144  19.717  0.00  0.00    +0.000 A 
ATOM      4  C   UNL     1       3.408   5.768  18.606  0.00  0.00    +0.000 A 
ATOM      5  C   UNL     1       3.617   6.664  17.563  0.00  0.00    +0.000 A 
ATOM      6  C   UNL     1       2.997   7.910  17.594  0.00  0.00    +0.000 A 
ENDROOT
BRANCH   1  12
ATOM      7  C   UNL     1      -2.402  13.802  20.647  0.00  0.00    +0.000 C 
ATOM      8  C   UNL     1      -1.468  12.787  20.126  0.00  0.00    +0.000 A 
ATOM      9  C   UNL     1      -1.137  11.494  20.458  0.00  0.00    +0.000 A 
ATOM     10  C   UNL     1      -0.137  11.129  19.520  0.00  0.00    +0.000 A 
ATOM     11  N   UNL     1       0.514   9.898  19.490  0.00  0.00    +0.000 N 
ATOM     12  C   UNL     1       1.500   9.609  18.567  0.00  0.00    +0.000 C 
ATOM     13  O   UNL     1       1.881  10.342  17.658  0.00  0.00    +0.000 OA
ATOM     14  N   UNL     1       0.097  12.140  18.680  0.00  0.00    +0.000 NA
ATOM     15  O   UNL     1      -0.725  13.175  19.059  0.00  0.00    +0.000 OA
ATOM     16  H   UNL     1       0.290   9.244  20.224  0.00  0.00    +0.000 HD
ENDBRANCH   1  12
BRANCH   4  17
ATOM     17  S   UNL     1       4.051   4.108  18.475  0.00  0.00    +0.000 S 
ATOM     18  O   UNL     1       3.909   3.514  19.789  0.00  0.00    +0.000 OA
ATOM     19  O   UNL     1       3.404   3.500  17.330  0.00  0.00    +0.000 OA
BRANCH  17  20
ATOM     20  N   UNL     1       5.717   4.330  18.123  0.00  0.00    +0.000 N 
ATOM     21  C   UNL     1       6.581   4.952  19.149  0.00  0.00    +0.000 C 
ATOM     22  C   UNL     1       7.196   6.282  18.742  0.00  0.00    +0.000 C 
ATOM     23  C   UNL     1       7.534   6.457  17.271  0.00  0.00    +0.000 C 
ATOM     24  C   UNL     1       6.893   5.496  16.317  0.00  0.00    +0.000 A 
ATOM     25  C   UNL     1       7.129   5.681  14.943  0.00  0.00    +0.000 A 
ATOM     26  C   UNL     1       6.655   4.766  14.008  0.00  0.00    +0.000 A 
ATOM     27  C   UNL     1       5.970   3.639  14.441  0.00  0.00    +0.000 A 
ATOM     28  C   UNL     1       5.708   3.460  15.802  0.00  0.00    +0.000 A 
ATOM     29  C   UNL     1       6.122   4.410  16.744  0.00  0.00    +0.000 A 
ENDBRANCH  17  20
ENDBRANCH   4  17
TORSDOF 3
ENDMDL
MODEL 6
REMARK VINA RESULT:      -8.3      1.186      1.266
REMARK  Name = 
REMARK  4 active torsions:
REMARK  status: ('A' for Active; 'I' for Inactive)
REMARK    1  A    between atoms: C_1  and  C_2
REMARK    2  A    between atoms: C_6  and  C_8
REMARK    3  A    between atoms: C_11  and  S_12
REMARK    4  A    between atoms: S_12  and  N_15
REMARK                            x       y       z     vdW  Elec       q    Type
REMARK                         _______ _______ _______ _____ _____    ______ ____
ROOT
ATOM      1  C   UNL     1       1.795   7.346  20.297  0.00  0.00    +0.000 A 
ATOM      2  C   UNL     1       1.732   6.067  20.864  0.00  0.00    +0.000 A 
ATOM      3  C   UNL     1       2.266   4.969  20.169  0.00  0.00    +0.000 A 
ATOM      4  C   UNL     1       2.876   5.156  18.920  0.00  0.00    +0.000 A 
ATOM      5  C   UNL     1       2.994   6.433  18.383  0.00  0.00    +0.000 A 
ATOM      6  C   UNL     1       2.437   7.516  19.058  0.00  0.00    +0.000 A 
ENDROOT
BRANCH   1  12
ATOM      7  C   UNL     1      -2.635  13.319  20.478  0.00  0.00    +0.000 C 
ATOM      8  C   UNL     1      -1.705  12.180  20.581  0.00  0.00    +0.000 A 
ATOM      9  C   UNL     1      -1.189  11.251  19.708  0.00  0.00    +0.000 A 
ATOM     10  C   UNL     1      -0.353  10.431  20.509  0.00  0.00    +0.000 A 
ATOM     11  N   UNL     1       0.366   9.333  20.045  0.00  0.00    +0.000 N 
ATOM     12  C   UNL     1       1.144   8.556  20.880  0.00  0.00    +0.000 C 
ATOM     13  O   UNL     1       1.341   8.748  22.077  0.00  0.00    +0.000 OA
ATOM     14  N   UNL     1      -0.367  10.859  21.774  0.00  0.00    +0.000 NA
ATOM     15  O   UNL     1      -1.213  11.941  21.822  0.00  0.00    +0.000 OA
ATOM     16  H   UNL     1       0.237   9.077  19.078  0.00  0.00    +0.000 HD
ENDBRANCH   1  12
BRANCH   4  17
ATOM     17  S   UNL     1       3.426   3.751  17.967  0.00  0.00    +0.000 S 
ATOM     18  O   UNL     1       3.030   2.574  18.713  0.00  0.00    +0.000 OA
ATOM     19  O   UNL     1       2.941   3.950  16.616  0.00  0.00    +0.000 OA
BRANCH  17  20
ATOM     20  N   UNL     1       5.138   3.885  17.972  0.00  0.00    +0.000 N 
ATOM     21  C   UNL     1       5.816   4.243  19.236  0.00  0.00    +0.000 C 
ATOM     22  C   UNL     1       6.567   5.565  19.203  0.00  0.00    +0.000 C 
ATOM     23  C   UNL     1       7.195   5.961  17.877  0.00  0.00    +0.000 C 
ATOM     24  C   UNL     1       6.703   5.238  16.660  0.00  0.00    +0.000 A 
ATOM     25  C   UNL     1       7.212   5.636  15.410  0.00  0.00    +0.000 A 
ATOM     26  C   UNL     1       6.882   4.942  14.251  0.00  0.00    +0.000 A 
ATOM     27  C   UNL     1       6.067   3.820  14.335  0.00  0.00    +0.000 A 
ATOM     28  C   UNL     1       5.536   3.433  15.568  0.00  0.00    +0.000 A 
ATOM     29  C   UNL     1       5.807   4.166  16.729  0.00  0.00    +0.000 A 
ENDBRANCH  17  20
ENDBRANCH   4  17
TORSDOF 3
ENDMDL
MODEL 7
REMARK VINA RESULT:      -8.3      4.671      7.034
REMARK  Name = 
REMARK  4 active torsions:
REMARK  status: ('A' for Active; 'I' for Inactive)
REMARK    1  A    between atoms: C_1  and  C_2
REMARK    2  A    between atoms: C_6  and  C_8
REMARK    3  A    between atoms: C_11  and  S_12
REMARK    4  A    between atoms: S_12  and  N_15
REMARK                            x       y       z     vdW  Elec       q    Type
REMARK                         _______ _______ _______ _____ _____    ______ ____
ROOT
ATOM      1  C   UNL     1       7.930   8.109  18.185  0.00  0.00    +0.000 A 
ATOM      2  C   UNL     1       8.203   6.907  18.849  0.00  0.00    +0.000 A 
ATOM      3  C   UNL     1       7.393   5.782  18.616  0.00  0.00    +0.000 A 
ATOM      4  C   UNL     1       6.327   5.859  17.708  0.00  0.00    +0.000 A 
ATOM      5  C   UNL     1       6.092   7.034  17.001  0.00  0.00    +0.000 A 
ATOM      6  C   UNL     1       6.875   8.156  17.257  0.00  0.00    +0.000 A 
ENDROOT
BRANCH   1  12
ATOM      7  C   UNL     1       9.213  15.426  17.792  0.00  0.00    +0.000 C 
ATOM      8  C   UNL     1       9.092  13.965  17.946  0.00  0.00    +0.000 A 
ATOM      9  C   UNL     1       8.319  12.977  17.381  0.00  0.00    +0.000 A 
ATOM     10  C   UNL     1       8.737  11.784  18.023  0.00  0.00    +0.000 A 
ATOM     11  N   UNL     1       8.204  10.521  17.779  0.00  0.00    +0.000 N 
ATOM     12  C   UNL     1       8.635   9.396  18.456  0.00  0.00    +0.000 C 
ATOM     13  O   UNL     1       9.539   9.350  19.287  0.00  0.00    +0.000 OA
ATOM     14  N   UNL     1       9.705  12.050  18.903  0.00  0.00    +0.000 NA
ATOM     15  O   UNL     1       9.923  13.406  18.862  0.00  0.00    +0.000 OA
ATOM     16  H   UNL     1       7.430  10.467  17.135  0.00  0.00    +0.000 HD
ENDBRANCH   1  12
BRANCH   4  17
ATOM     17  S   UNL     1       5.208   4.483  17.514  0.00  0.00    +0.000 S 
ATOM     18  O   UNL     1       5.328   4.053  16.136  0.00  0.00    +0.000 OA
ATOM     19  O   UNL     1       5.499   3.555  18.590  0.00  0.00    +0.000 OA
BRANCH  17  20
ATOM     20  N   UNL     1       3.654   5.166  17.769  0.00  0.00    +0.000 N 
ATOM     21  C   UNL     1       3.543   6.630  17.940  0.00  0.00    +0.000 C 
ATOM     22  C   UNL     1       3.021   7.075  19.297  0.00  0.00    +0.000 C 
ATOM     23  C   UNL     1       2.011   6.163  19.973  0.00  0.00    +0.000 C 
ATOM     24  C   UNL     1       1.917   4.763  19.450  0.00  0.00    +0.000 A 
ATOM     25  C   UNL     1       1.044   3.875  20.105  0.00  0.00    +0.000 A 
ATOM     26  C   UNL     1       0.826   2.594  19.611  0.00  0.00    +0.000 A 
ATOM     27  C   UNL     1       1.452   2.198  18.436  0.00  0.00    +0.000 A 
ATOM     28  C   UNL     1       2.341   3.063  17.792  0.00  0.00    +0.000 A 
ATOM     29  C   UNL     1       2.619   4.330  18.321  0.00  0.00    +0.000 A 
ENDBRANCH  17  20
ENDBRANCH   4  17
TORSDOF 3
ENDMDL
MODEL 8
REMARK VINA RESULT:      -8.3      0.690      1.144
REMARK  Name = 
REMARK  4 active torsions:
REMARK  status: ('A' for Active; 'I' for Inactive)
REMARK    1  A    between atoms: C_1  and  C_2
REMARK    2  A    between atoms: C_6  and  C_8
REMARK    3  A    between atoms: C_11  and  S_12
REMARK    4  A    between atoms: S_12  and  N_15
REMARK                            x       y       z     vdW  Elec       q    Type
REMARK                         _______ _______ _______ _____ _____    ______ ____
ROOT
ATOM      1  C   UNL     1       2.188   7.753  18.977  0.00  0.00    +0.000 A 
ATOM      2  C   UNL     1       2.880   7.469  17.793  0.00  0.00    +0.000 A 
ATOM      3  C   UNL     1       3.524   6.229  17.644  0.00  0.00    +0.000 A 
ATOM      4  C   UNL     1       3.458   5.275  18.668  0.00  0.00    +0.000 A 
ATOM      5  C   UNL     1       2.720   5.531  19.819  0.00  0.00    +0.000 A 
ATOM      6  C   UNL     1       2.109   6.772  19.979  0.00  0.00    +0.000 A 
ENDROOT
BRANCH   1  12
ATOM      7  C   UNL     1      -1.289  12.876  23.102  0.00  0.00    +0.000 C 
ATOM      8  C   UNL     1      -0.608  11.961  22.168  0.00  0.00    +0.000 A 
ATOM      9  C   UNL     1      -0.300  10.620  22.154  0.00  0.00    +0.000 A 
ATOM     10  C   UNL     1       0.383  10.423  20.926  0.00  0.00    +0.000 A 
ATOM     11  N   UNL     1       0.906   9.207  20.494  0.00  0.00    +0.000 N 
ATOM     12  C   UNL     1       1.585   9.081  19.297  0.00  0.00    +0.000 C 
ATOM     13  O   UNL     1       1.766   9.969  18.468  0.00  0.00    +0.000 OA
ATOM     14  N   UNL     1       0.461  11.573  20.253  0.00  0.00    +0.000 NA
ATOM     15  O   UNL     1      -0.149  12.532  21.027  0.00  0.00    +0.000 OA
ATOM     16  H   UNL     1       0.836   8.426  21.129  0.00  0.00    +0.000 HD
ENDBRANCH   1  12
BRANCH   4  17
ATOM     17  S   UNL     1       4.391   3.758  18.548  0.00  0.00    +0.000 S 
ATOM     18  O   UNL     1       4.427   3.196  19.883  0.00  0.00    +0.000 OA
ATOM     19  O   UNL     1       3.813   2.999  17.457  0.00  0.00    +0.000 OA
BRANCH  17  20
ATOM     20  N   UNL     1       5.968   4.269  18.099  0.00  0.00    +0.000 N 
ATOM     21  C   UNL     1       6.769   5.035  19.076  0.00  0.00    +0.000 C 
ATOM     22  C   UNL     1       7.114   6.452  18.647  0.00  0.00    +0.000 C 
ATOM     23  C   UNL     1       7.326   6.683  17.159  0.00  0.00    +0.000 C 
ATOM     24  C   UNL     1       6.808   5.622  16.237  0.00  0.00    +0.000 A 
ATOM     25  C   UNL     1       6.924   5.845  14.852  0.00  0.00    +0.000 A 
ATOM     26  C   UNL     1       6.562   4.860  13.939  0.00  0.00    +0.000 A 
ATOM     27  C   UNL     1       6.114   3.630  14.402  0.00  0.00    +0.000 A 
ATOM     28  C   UNL     1       5.971   3.409  15.774  0.00  0.00    +0.000 A 
ATOM     29  C   UNL     1       6.267   4.418  16.698  0.00  0.00    +0.000 A 
ENDBRANCH  17  20
ENDBRANCH   4  17
TORSDOF 3
ENDMDL
MODEL 9
REMARK VINA RESULT:      -8.2      1.574      1.749
REMARK  Name = 
REMARK  4 active torsions:
REMARK  status: ('A' for Active; 'I' for Inactive)
REMARK    1  A    between atoms: C_1  and  C_2
REMARK    2  A    between atoms: C_6  and  C_8
REMARK    3  A    between atoms: C_11  and  S_12
REMARK    4  A    between atoms: S_12  and  N_15
REMARK                            x       y       z     vdW  Elec       q    Type
REMARK                         _______ _______ _______ _____ _____    ______ ____
ROOT
ATOM      1  C   UNL     1       1.843   7.813  19.682  0.00  0.00    +0.000 A 
ATOM      2  C   UNL     1       1.816   6.677  20.501  0.00  0.00    +0.000 A 
ATOM      3  C   UNL     1       2.384   5.476  20.043  0.00  0.00    +0.000 A 
ATOM      4  C   UNL     1       2.991   5.421  18.780  0.00  0.00    +0.000 A 
ATOM      5  C   UNL     1       3.072   6.564  17.992  0.00  0.00    +0.000 A 
ATOM      6  C   UNL     1       2.481   7.745  18.432  0.00  0.00    +0.000 A 
ENDROOT
BRANCH   1  12
ATOM      7  C   UNL     1      -0.142  14.929  18.806  0.00  0.00    +0.000 C 
ATOM      8  C   UNL     1       0.179  13.524  19.115  0.00  0.00    +0.000 A 
ATOM      9  C   UNL     1       1.053  12.584  18.623  0.00  0.00    +0.000 A 
ATOM     10  C   UNL     1       0.807  11.423  19.401  0.00  0.00    +0.000 A 
ATOM     11  N   UNL     1       1.456  10.203  19.235  0.00  0.00    +0.000 N 
ATOM     12  C   UNL     1       1.155   9.097  20.008  0.00  0.00    +0.000 C 
ATOM     13  O   UNL     1       0.350   9.057  20.935  0.00  0.00    +0.000 OA
ATOM     14  N   UNL     1      -0.145  11.669  20.304  0.00  0.00    +0.000 NA
ATOM     15  O   UNL     1      -0.542  12.972  20.124  0.00  0.00    +0.000 OA
ATOM     16  H   UNL     1       2.111  10.131  18.471  0.00  0.00    +0.000 HD
ENDBRANCH   1  12
BRANCH   4  17
ATOM     17  S   UNL     1       3.585   3.867  18.133  0.00  0.00    +0.000 S 
ATOM     18  O   UNL     1       3.275   2.866  19.133  0.00  0.00    +0.000 OA
ATOM     19  O   UNL     1       3.049   3.743  16.792  0.00  0.00    +0.000 OA
BRANCH  17  20
ATOM     20  N   UNL     1       5.287   4.075  18.038  0.00  0.00    +0.000 N 
ATOM     21  C   UNL     1       6.008   4.568  19.231  0.00  0.00    +0.000 C 
ATOM     22  C   UNL     1       6.692   5.913  19.050  0.00  0.00    +0.000 C 
ATOM     23  C   UNL     1       7.235   6.223  17.664  0.00  0.00    +0.000 C 
ATOM     24  C   UNL     1       6.720   5.379  16.539  0.00  0.00    +0.000 A 
ATOM     25  C   UNL     1       7.149   5.692  15.236  0.00  0.00    +0.000 A 
ATOM     26  C   UNL     1       6.797   4.888  14.157  0.00  0.00    +0.000 A 
ATOM     27  C   UNL     1       6.041   3.743  14.375  0.00  0.00    +0.000 A 
ATOM     28  C   UNL     1       5.589   3.438  15.662  0.00  0.00    +0.000 A 
ATOM     29  C   UNL     1       5.881   4.279  16.743  0.00  0.00    +0.000 A 
ENDBRANCH  17  20
ENDBRANCH   4  17
TORSDOF 3
ENDMDL
