MODEL 1
REMARK VINA RESULT:      -8.5      0.000      0.000
REMARK  Name = 
REMARK  10 active torsions:
REMARK  status: ('A' for Active; 'I' for Inactive)
REMARK    1  A    between atoms: C_1  and  C_2
REMARK    2  A    between atoms: C_4  and  C_5
REMARK    3  A    between atoms: N_7  and  C_8
REMARK    4  A    between atoms: C_12  and  C_13
REMARK    5  A    between atoms: C_13  and  C_14
REMARK    6  A    between atoms: C_13  and  C_15
REMARK    7  A    between atoms: C_15  and  C_16
REMARK    8  A    between atoms: C_16  and  C_17
REMARK    9  A    between atoms: N_21  and  C_22
REMARK   10  A    between atoms: C_25  and  C_26
REMARK                            x       y       z     vdW  Elec       q    Type
REMARK                         _______ _______ _______ _____ _____    ______ ____
ROOT
ATOM      1  C   UNL     1       7.811   8.021  17.924  0.00  0.00    +0.000 A 
ATOM      2  C   UNL     1       8.366   7.148  18.864  0.00  0.00    +0.000 A 
ATOM      3  C   UNL     1       7.938   5.826  18.963  0.00  0.00    +0.000 A 
ATOM      4  C   UNL     1       6.925   5.361  18.135  0.00  0.00    +0.000 A 
ATOM      5  C   UNL     1       6.310   6.221  17.214  0.00  0.00    +0.000 A 
ATOM      6  C   UNL     1       6.763   7.556  17.117  0.00  0.00    +0.000 A 
ENDROOT
BRANCH   1   9
ATOM      7  C   UNL     1       9.001  10.067  18.704  0.00  0.00    +0.000 C 
ATOM      8  O   UNL     1       9.377   9.654  19.799  0.00  0.00    +0.000 OA
ATOM      9  N   UNL     1       8.271   9.353  17.764  0.00  0.00    +0.000 N 
ATOM     10  H   UNL     1       8.151   9.803  16.861  0.00  0.00    +0.000 HD
BRANCH   7  14
ATOM     11  C   UNL     1      12.264  13.256  16.760  0.00  0.00    +0.000 C 
ATOM     12  C   UNL     1      10.952  12.942  17.416  0.00  0.00    +0.000 A 
ATOM     13  C   UNL     1      10.618  11.648  17.730  0.00  0.00    +0.000 A 
ATOM     14  C   UNL     1       9.385  11.461  18.328  0.00  0.00    +0.000 A 
ATOM     15  N   UNL     1       8.513  12.453  18.609  0.00  0.00    +0.000 NA
ATOM     16  C   UNL     1       8.942  13.680  18.262  0.00  0.00    +0.000 A 
ATOM     17  N   UNL     1      10.122  13.969  17.679  0.00  0.00    +0.000 NA
BRANCH  16  18
ATOM     18  C   UNL     1       8.084  14.779  18.535  0.00  0.00    +0.000 C 
ATOM     19  C   UNL     1       7.578  15.672  19.334  0.00  0.00    +0.000 C 
ATOM     20  C   UNL     1       7.110  15.679  17.979  0.00  0.00    +0.000 C 
ENDBRANCH  16  18
ENDBRANCH   7  14
ENDBRANCH   1   9
BRANCH   5  21
ATOM     21  C   UNL     1       5.142   5.731  16.370  0.00  0.00    +0.000 C 
ATOM     22  C   UNL     1       5.624   5.105  15.051  0.00  0.00    +0.000 C 
BRANCH  21  23
ATOM     23  C   UNL     1       4.268   4.711  17.141  0.00  0.00    +0.000 C 
BRANCH  23  24
ATOM     24  C   UNL     1       3.032   5.311  17.833  0.00  0.00    +0.000 C 
BRANCH  24  25
ATOM     25  C   UNL     1       2.098   4.272  18.351  0.00  0.00    +0.000 A 
ATOM     26  N   UNL     1       1.483   3.348  17.639  0.00  0.00    +0.000 NA
ATOM     27  N   UNL     1       0.730   2.575  18.487  0.00  0.00    +0.000 NA
ATOM     28  C   UNL     1       0.912   3.031  19.702  0.00  0.00    +0.000 A 
ATOM     29  N   UNL     1       1.757   4.097  19.668  0.00  0.00    +0.000 N 
ATOM     30  C   UNL     1       2.194   4.858  20.807  0.00  0.00    +0.000 C 
ENDBRANCH  24  25
ENDBRANCH  23  24
ENDBRANCH  21  23
ENDBRANCH   5  21
TORSDOF 7
ENDMDL
MODEL 2
REMARK VINA RESULT:      -8.5      5.226      7.877
REMARK  Name = 
REMARK  10 active torsions:
REMARK  status: ('A' for Active; 'I' for Inactive)
REMARK    1  A    between atoms: C_1  and  C_2
REMARK    2  A    between atoms: C_4  and  C_5
REMARK    3  A    between atoms: N_7  and  C_8
REMARK    4  A    between atoms: C_12  and  C_13
REMARK    5  A    between atoms: C_13  and  C_14
REMARK    6  A    between atoms: C_13  and  C_15
REMARK    7  A    between atoms: C_15  and  C_16
REMARK    8  A    between atoms: C_16  and  C_17
REMARK    9  A    between atoms: N_21  and  C_22
REMARK   10  A    between atoms: C_25  and  C_26
REMARK                            x       y       z     vdW  Elec       q    Type
REMARK                         _______ _______ _______ _____ _____    ______ ____
ROOT
ATOM      1  C   UNL     1       2.882   6.660  18.423  0.00  0.00    +0.000 A 
ATOM      2  C   UNL     1       2.186   5.468  18.194  0.00  0.00    +0.000 A 
ATOM      3  C   UNL     1       2.832   4.339  17.695  0.00  0.00    +0.000 A 
ATOM      4  C   UNL     1       4.185   4.392  17.391  0.00  0.00    +0.000 A 
ATOM      5  C   UNL     1       4.905   5.583  17.558  0.00  0.00    +0.000 A 
ATOM      6  C   UNL     1       4.239   6.717  18.078  0.00  0.00    +0.000 A 
ENDROOT
BRANCH   1   9
ATOM      7  C   UNL     1       1.931   8.959  18.292  0.00  0.00    +0.000 C 
ATOM      8  O   UNL     1       2.103   9.161  17.093  0.00  0.00    +0.000 OA
ATOM      9  N   UNL     1       2.260   7.803  18.986  0.00  0.00    +0.000 N 
ATOM     10  H   UNL     1       1.936   7.755  19.948  0.00  0.00    +0.000 HD
BRANCH   7  14
ATOM     11  C   UNL     1       0.654  13.722  18.827  0.00  0.00    +0.000 C 
ATOM     12  C   UNL     1       0.703  12.303  19.313  0.00  0.00    +0.000 A 
ATOM     13  C   UNL     1       1.289  11.322  18.552  0.00  0.00    +0.000 A 
ATOM     14  C   UNL     1       1.279  10.045  19.084  0.00  0.00    +0.000 A 
ATOM     15  N   UNL     1       0.735   9.718  20.276  0.00  0.00    +0.000 NA
ATOM     16  C   UNL     1       0.190  10.755  20.938  0.00  0.00    +0.000 A 
ATOM     17  N   UNL     1       0.151  12.032  20.510  0.00  0.00    +0.000 NA
BRANCH  16  18
ATOM     18  C   UNL     1      -0.394  10.493  22.206  0.00  0.00    +0.000 C 
ATOM     19  C   UNL     1      -1.203  10.785  23.183  0.00  0.00    +0.000 C 
ATOM     20  C   UNL     1      -0.415   9.597  23.330  0.00  0.00    +0.000 C 
ENDBRANCH  16  18
ENDBRANCH   7  14
ENDBRANCH   1   9
BRANCH   5  21
ATOM     21  C   UNL     1       6.367   5.661  17.142  0.00  0.00    +0.000 C 
ATOM     22  C   UNL     1       7.266   6.080  18.317  0.00  0.00    +0.000 C 
BRANCH  21  23
ATOM     23  C   UNL     1       6.867   4.316  16.558  0.00  0.00    +0.000 C 
BRANCH  23  24
ATOM     24  C   UNL     1       6.229   3.917  15.218  0.00  0.00    +0.000 C 
BRANCH  24  25
ATOM     25  C   UNL     1       6.908   4.539  14.046  0.00  0.00    +0.000 A 
ATOM     26  N   UNL     1       7.818   5.494  14.085  0.00  0.00    +0.000 NA
ATOM     27  N   UNL     1       8.209   5.774  12.799  0.00  0.00    +0.000 NA
ATOM     28  C   UNL     1       7.542   4.976  12.001  0.00  0.00    +0.000 A 
ATOM     29  N   UNL     1       6.712   4.187  12.735  0.00  0.00    +0.000 N 
ATOM     30  C   UNL     1       5.825   3.184  12.208  0.00  0.00    +0.000 C 
ENDBRANCH  24  25
ENDBRANCH  23  24
ENDBRANCH  21  23
ENDBRANCH   5  21
TORSDOF 7
ENDMDL
MODEL 3
REMARK VINA RESULT:      -8.4      5.717      8.307
REMARK  Name = 
REMARK  10 active torsions:
REMARK  status: ('A' for Active; 'I' for Inactive)
REMARK    1  A    between atoms: C_1  and  C_2
REMARK    2  A    between atoms: C_4  and  C_5
REMARK    3  A    between atoms: N_7  and  C_8
REMARK    4  A    between atoms: C_12  and  C_13
REMARK    5  A    between atoms: C_13  and  C_14
REMARK    6  A    between atoms: C_13  and  C_15
REMARK    7  A    between atoms: C_15  and  C_16
REMARK    8  A    between atoms: C_16  and  C_17
REMARK    9  A    between atoms: N_21  and  C_22
REMARK   10  A    between atoms: C_25  and  C_26
REMARK                            x       y       z     vdW  Elec       q    Type
REMARK                         _______ _______ _______ _____ _____    ______ ____
ROOT
ATOM      1  C   UNL     1       2.462   7.234  18.784  0.00  0.00    +0.000 A 
ATOM      2  C   UNL     1       2.200   6.375  19.857  0.00  0.00    +0.000 A 
ATOM      3  C   UNL     1       3.032   5.292  20.135  0.00  0.00    +0.000 A 
ATOM      4  C   UNL     1       4.129   5.034  19.326  0.00  0.00    +0.000 A 
ATOM      5  C   UNL     1       4.395   5.842  18.211  0.00  0.00    +0.000 A 
ATOM      6  C   UNL     1       3.550   6.944  17.949  0.00  0.00    +0.000 A 
ENDROOT
BRANCH   1   9
ATOM      7  C   UNL     1       1.119   9.213  19.479  0.00  0.00    +0.000 C 
ATOM      8  O   UNL     1       1.255   9.110  20.696  0.00  0.00    +0.000 OA
ATOM      9  N   UNL     1       1.667   8.376  18.517  0.00  0.00    +0.000 N 
ATOM     10  H   UNL     1       1.557   8.677  17.553  0.00  0.00    +0.000 HD
BRANCH   7  14
ATOM     11  C   UNL     1       0.565  14.086  18.734  0.00  0.00    +0.000 C 
ATOM     12  C   UNL     1       0.074  12.671  18.650  0.00  0.00    +0.000 A 
ATOM     13  C   UNL     1       0.850  11.632  19.101  0.00  0.00    +0.000 A 
ATOM     14  C   UNL     1       0.310  10.364  18.975  0.00  0.00    +0.000 A 
ATOM     15  N   UNL     1      -0.902  10.099  18.442  0.00  0.00    +0.000 NA
ATOM     16  C   UNL     1      -1.577  11.189  18.034  0.00  0.00    +0.000 A 
ATOM     17  N   UNL     1      -1.143  12.462  18.115  0.00  0.00    +0.000 NA
BRANCH  16  18
ATOM     18  C   UNL     1      -2.866  10.992  17.471  0.00  0.00    +0.000 C 
ATOM     19  C   UNL     1      -4.080  10.525  17.512  0.00  0.00    +0.000 C 
ATOM     20  C   UNL     1      -3.702  11.240  16.328  0.00  0.00    +0.000 C 
ENDBRANCH  16  18
ENDBRANCH   7  14
ENDBRANCH   1   9
BRANCH   5  21
ATOM     21  C   UNL     1       5.548   5.504  17.276  0.00  0.00    +0.000 C 
ATOM     22  C   UNL     1       6.639   4.695  17.997  0.00  0.00    +0.000 C 
BRANCH  21  23
ATOM     23  C   UNL     1       5.061   4.725  16.029  0.00  0.00    +0.000 C 
BRANCH  23  24
ATOM     24  C   UNL     1       6.118   3.816  15.381  0.00  0.00    +0.000 C 
BRANCH  24  25
ATOM     25  C   UNL     1       6.869   4.492  14.285  0.00  0.00    +0.000 A 
ATOM     26  N   UNL     1       7.796   5.420  14.428  0.00  0.00    +0.000 NA
ATOM     27  N   UNL     1       8.256   5.769  13.183  0.00  0.00    +0.000 NA
ATOM     28  C   UNL     1       7.614   5.037  12.305  0.00  0.00    +0.000 A 
ATOM     29  N   UNL     1       6.731   4.225  12.947  0.00  0.00    +0.000 N 
ATOM     30  C   UNL     1       5.851   3.278  12.316  0.00  0.00    +0.000 C 
ENDBRANCH  24  25
ENDBRANCH  23  24
ENDBRANCH  21  23
ENDBRANCH   5  21
TORSDOF 7
ENDMDL
MODEL 4
REMARK VINA RESULT:      -8.4      1.103      1.295
REMARK  Name = 
REMARK  10 active torsions:
REMARK  status: ('A' for Active; 'I' for Inactive)
REMARK    1  A    between atoms: C_1  and  C_2
REMARK    2  A    between atoms: C_4  and  C_5
REMARK    3  A    between atoms: N_7  and  C_8
REMARK    4  A    between atoms: C_12  and  C_13
REMARK    5  A    between atoms: C_13  and  C_14
REMARK    6  A    between atoms: C_13  and  C_15
REMARK    7  A    between atoms: C_15  and  C_16
REMARK    8  A    between atoms: C_16  and  C_17
REMARK    9  A    between atoms: N_21  and  C_22
REMARK   10  A    between atoms: C_25  and  C_26
REMARK                            x       y       z     vdW  Elec       q    Type
REMARK                         _______ _______ _______ _____ _____    ______ ____
ROOT
ATOM      1  C   UNL     1       7.780   7.884  17.821  0.00  0.00    +0.000 A 
ATOM      2  C   UNL     1       8.303   7.065  18.827  0.00  0.00    +0.000 A 
ATOM      3  C   UNL     1       7.909   5.734  18.953  0.00  0.00    +0.000 A 
ATOM      4  C   UNL     1       6.962   5.206  18.087  0.00  0.00    +0.000 A 
ATOM      5  C   UNL     1       6.377   6.010  17.098  0.00  0.00    +0.000 A 
ATOM      6  C   UNL     1       6.796   7.354  16.974  0.00  0.00    +0.000 A 
ENDROOT
BRANCH   1   9
ATOM      7  C   UNL     1       8.933   9.966  18.554  0.00  0.00    +0.000 C 
ATOM      8  O   UNL     1       9.332   9.579  19.651  0.00  0.00    +0.000 OA
ATOM      9  N   UNL     1       8.208   9.222  17.634  0.00  0.00    +0.000 N 
ATOM     10  H   UNL     1       8.067   9.655  16.726  0.00  0.00    +0.000 HD
BRANCH   7  14
ATOM     11  C   UNL     1      12.251  13.274  16.925  0.00  0.00    +0.000 C 
ATOM     12  C   UNL     1      10.876  12.902  17.395  0.00  0.00    +0.000 A 
ATOM     13  C   UNL     1      10.579  11.606  17.736  0.00  0.00    +0.000 A 
ATOM     14  C   UNL     1       9.282  11.362  18.152  0.00  0.00    +0.000 A 
ATOM     15  N   UNL     1       8.316  12.303  18.234  0.00  0.00    +0.000 NA
ATOM     16  C   UNL     1       8.716  13.537  17.878  0.00  0.00    +0.000 A 
ATOM     17  N   UNL     1       9.952  13.878  17.463  0.00  0.00    +0.000 NA
BRANCH  16  18
ATOM     18  C   UNL     1       7.759  14.584  17.947  0.00  0.00    +0.000 C 
ATOM     19  C   UNL     1       7.419  15.819  18.179  0.00  0.00    +0.000 C 
ATOM     20  C   UNL     1       6.373  14.926  17.776  0.00  0.00    +0.000 C 
ENDBRANCH  16  18
ENDBRANCH   7  14
ENDBRANCH   1   9
BRANCH   5  21
ATOM     21  C   UNL     1       5.277   5.451  16.207  0.00  0.00    +0.000 C 
ATOM     22  C   UNL     1       5.806   5.111  14.804  0.00  0.00    +0.000 C 
BRANCH  21  23
ATOM     23  C   UNL     1       4.618   4.197  16.833  0.00  0.00    +0.000 C 
BRANCH  23  24
ATOM     24  C   UNL     1       3.492   4.491  17.838  0.00  0.00    +0.000 C 
BRANCH  24  25
ATOM     25  C   UNL     1       3.560   3.628  19.051  0.00  0.00    +0.000 A 
ATOM     26  N   UNL     1       4.604   2.934  19.460  0.00  0.00    +0.000 NA
ATOM     27  N   UNL     1       4.269   2.290  20.625  0.00  0.00    +0.000 NA
ATOM     28  C   UNL     1       3.032   2.614  20.913  0.00  0.00    +0.000 A 
ATOM     29  N   UNL     1       2.544   3.447  19.955  0.00  0.00    +0.000 N 
ATOM     30  C   UNL     1       1.223   4.016  19.931  0.00  0.00    +0.000 C 
ENDBRANCH  24  25
ENDBRANCH  23  24
ENDBRANCH  21  23
ENDBRANCH   5  21
TORSDOF 7
ENDMDL
MODEL 5
REMARK VINA RESULT:      -8.3      7.309     10.332
REMARK  Name = 
REMARK  10 active torsions:
REMARK  status: ('A' for Active; 'I' for Inactive)
REMARK    1  A    between atoms: C_1  and  C_2
REMARK    2  A    between atoms: C_4  and  C_5
REMARK    3  A    between atoms: N_7  and  C_8
REMARK    4  A    between atoms: C_12  and  C_13
REMARK    5  A    between atoms: C_13  and  C_14
REMARK    6  A    between atoms: C_13  and  C_15
REMARK    7  A    between atoms: C_15  and  C_16
REMARK    8  A    between atoms: C_16  and  C_17
REMARK    9  A    between atoms: N_21  and  C_22
REMARK   10  A    between atoms: C_25  and  C_26
REMARK                            x       y       z     vdW  Elec       q    Type
REMARK                         _______ _______ _______ _____ _____    ______ ____
ROOT
ATOM      1  C   UNL     1       0.080  10.143  19.379  0.00  0.00    +0.000 A 
ATOM      2  C   UNL     1       0.412  11.265  20.146  0.00  0.00    +0.000 A 
ATOM      3  C   UNL     1      -0.424  12.379  20.197  0.00  0.00    +0.000 A 
ATOM      4  C   UNL     1      -1.598  12.398  19.458  0.00  0.00    +0.000 A 
ATOM      5  C   UNL     1      -1.940  11.314  18.637  0.00  0.00    +0.000 A 
ATOM      6  C   UNL     1      -1.088  10.186  18.606  0.00  0.00    +0.000 A 
ENDROOT
BRANCH   1   9
ATOM      7  C   UNL     1       1.823   8.667  18.384  0.00  0.00    +0.000 C 
ATOM      8  O   UNL     1       2.117   9.359  17.411  0.00  0.00    +0.000 OA
ATOM      9  N   UNL     1       0.884   8.976  19.358  0.00  0.00    +0.000 N 
ATOM     10  H   UNL     1       0.855   8.352  20.159  0.00  0.00    +0.000 HD
BRANCH   7  14
ATOM     11  C   UNL     1       5.580   5.663  17.173  0.00  0.00    +0.000 C 
ATOM     12  C   UNL     1       4.339   5.980  17.954  0.00  0.00    +0.000 A 
ATOM     13  C   UNL     1       3.694   7.181  17.788  0.00  0.00    +0.000 A 
ATOM     14  C   UNL     1       2.562   7.380  18.558  0.00  0.00    +0.000 A 
ATOM     15  N   UNL     1       2.071   6.485  19.442  0.00  0.00    +0.000 NA
ATOM     16  C   UNL     1       2.779   5.344  19.523  0.00  0.00    +0.000 A 
ATOM     17  N   UNL     1       3.889   5.051  18.818  0.00  0.00    +0.000 NA
BRANCH  16  18
ATOM     18  C   UNL     1       2.319   4.347  20.425  0.00  0.00    +0.000 C 
ATOM     19  C   UNL     1       2.481   3.556  21.445  0.00  0.00    +0.000 C 
ATOM     20  C   UNL     1       1.217   3.493  20.774  0.00  0.00    +0.000 C 
ENDBRANCH  16  18
ENDBRANCH   7  14
ENDBRANCH   1   9
BRANCH   5  21
ATOM     21  C   UNL     1      -3.184  11.375  17.762  0.00  0.00    +0.000 C 
ATOM     22  C   UNL     1      -3.476  10.018  17.102  0.00  0.00    +0.000 C 
BRANCH  21  23
ATOM     23  C   UNL     1      -4.424  11.841  18.566  0.00  0.00    +0.000 C 
BRANCH  23  24
ATOM     24  C   UNL     1      -5.764  11.269  18.075  0.00  0.00    +0.000 C 
BRANCH  24  25
ATOM     25  C   UNL     1      -6.584  10.690  19.177  0.00  0.00    +0.000 A 
ATOM     26  N   UNL     1      -6.694   9.412  19.481  0.00  0.00    +0.000 NA
ATOM     27  N   UNL     1      -7.523   9.294  20.569  0.00  0.00    +0.000 NA
ATOM     28  C   UNL     1      -7.890  10.503  20.918  0.00  0.00    +0.000 A 
ATOM     29  N   UNL     1      -7.331  11.411  20.074  0.00  0.00    +0.000 N 
ATOM     30  C   UNL     1      -7.502  12.837  20.143  0.00  0.00    +0.000 C 
ENDBRANCH  24  25
ENDBRANCH  23  24
ENDBRANCH  21  23
ENDBRANCH   5  21
TORSDOF 7
ENDMDL
MODEL 6
REMARK VINA RESULT:      -8.3      5.066      7.673
REMARK  Name = 
REMARK  10 active torsions:
REMARK  status: ('A' for Active; 'I' for Inactive)
REMARK    1  A    between atoms: C_1  and  C_2
REMARK    2  A    between atoms: C_4  and  C_5
REMARK    3  A    between atoms: N_7  and  C_8
REMARK    4  A    between atoms: C_12  and  C_13
REMARK    5  A    between atoms: C_13  and  C_14
REMARK    6  A    between atoms: C_13  and  C_15
REMARK    7  A    between atoms: C_15  and  C_16
REMARK    8  A    between atoms: C_16  and  C_17
REMARK    9  A    between atoms: N_21  and  C_22
REMARK   10  A    between atoms: C_25  and  C_26
REMARK                            x       y       z     vdW  Elec       q    Type
REMARK                         _______ _______ _______ _____ _____    ______ ____
ROOT
ATOM      1  C   UNL     1       2.735   7.208  18.019  0.00  0.00    +0.000 A 
ATOM      2  C   UNL     1       2.199   6.029  18.547  0.00  0.00    +0.000 A 
ATOM      3  C   UNL     1       2.949   4.855  18.599  0.00  0.00    +0.000 A 
ATOM      4  C   UNL     1       4.243   4.836  18.099  0.00  0.00    +0.000 A 
ATOM      5  C   UNL     1       4.796   5.985  17.515  0.00  0.00    +0.000 A 
ATOM      6  C   UNL     1       4.029   7.171  17.480  0.00  0.00    +0.000 A 
ENDROOT
BRANCH   1   9
ATOM      7  C   UNL     1       1.409   9.010  19.114  0.00  0.00    +0.000 C 
ATOM      8  O   UNL     1       1.422   8.575  20.264  0.00  0.00    +0.000 OA
ATOM      9  N   UNL     1       2.014   8.429  18.009  0.00  0.00    +0.000 N 
ATOM     10  H   UNL     1       2.011   8.984  17.158  0.00  0.00    +0.000 HD
BRANCH   7  14
ATOM     11  C   UNL     1      -2.681  11.502  17.823  0.00  0.00    +0.000 C 
ATOM     12  C   UNL     1      -1.244  11.450  18.252  0.00  0.00    +0.000 A 
ATOM     13  C   UNL     1      -0.626  10.246  18.482  0.00  0.00    +0.000 A 
ATOM     14  C   UNL     1       0.699  10.304  18.879  0.00  0.00    +0.000 A 
ATOM     15  N   UNL     1       1.396  11.447  19.052  0.00  0.00    +0.000 NA
ATOM     16  C   UNL     1       0.694  12.566  18.797  0.00  0.00    +0.000 A 
ATOM     17  N   UNL     1      -0.594  12.618  18.404  0.00  0.00    +0.000 NA
BRANCH  16  18
ATOM     18  C   UNL     1       1.362  13.810  18.946  0.00  0.00    +0.000 C 
ATOM     19  C   UNL     1       1.945  14.869  18.463  0.00  0.00    +0.000 C 
ATOM     20  C   UNL     1       1.868  14.770  19.890  0.00  0.00    +0.000 C 
ENDBRANCH  16  18
ENDBRANCH   7  14
ENDBRANCH   1   9
BRANCH   5  21
ATOM     21  C   UNL     1       6.183   5.935  16.890  0.00  0.00    +0.000 C 
ATOM     22  C   UNL     1       7.227   6.634  17.776  0.00  0.00    +0.000 C 
BRANCH  21  23
ATOM     23  C   UNL     1       6.631   4.479  16.608  0.00  0.00    +0.000 C 
BRANCH  23  24
ATOM     24  C   UNL     1       6.164   3.908  15.259  0.00  0.00    +0.000 C 
BRANCH  24  25
ATOM     25  C   UNL     1       6.865   4.524  14.097  0.00  0.00    +0.000 A 
ATOM     26  N   UNL     1       7.798   5.455  14.150  0.00  0.00    +0.000 NA
ATOM     27  N   UNL     1       8.203   5.738  12.869  0.00  0.00    +0.000 NA
ATOM     28  C   UNL     1       7.520   4.965  12.060  0.00  0.00    +0.000 A 
ATOM     29  N   UNL     1       6.666   4.190  12.782  0.00  0.00    +0.000 N 
ATOM     30  C   UNL     1       5.758   3.215  12.241  0.00  0.00    +0.000 C 
ENDBRANCH  24  25
ENDBRANCH  23  24
ENDBRANCH  21  23
ENDBRANCH   5  21
TORSDOF 7
ENDMDL
MODEL 7
REMARK VINA RESULT:      -8.2      5.846      9.382
REMARK  Name = 
REMARK  10 active torsions:
REMARK  status: ('A' for Active; 'I' for Inactive)
REMARK    1  A    between atoms: C_1  and  C_2
REMARK    2  A    between atoms: C_4  and  C_5
REMARK    3  A    between atoms: N_7  and  C_8
REMARK    4  A    between atoms: C_12  and  C_13
REMARK    5  A    between atoms: C_13  and  C_14
REMARK    6  A    between atoms: C_13  and  C_15
REMARK    7  A    between atoms: C_15  and  C_16
REMARK    8  A    between atoms: C_16  and  C_17
REMARK    9  A    between atoms: N_21  and  C_22
REMARK   10  A    between atoms: C_25  and  C_26
REMARK                            x       y       z     vdW  Elec       q    Type
REMARK                         _______ _______ _______ _____ _____    ______ ____
ROOT
ATOM      1  C   UNL     1       1.311   8.446  20.799  0.00  0.00    +0.000 A 
ATOM      2  C   UNL     1       0.703   8.253  22.043  0.00  0.00    +0.000 A 
ATOM      3  C   UNL     1      -0.218   9.169  22.548  0.00  0.00    +0.000 A 
ATOM      4  C   UNL     1      -0.527  10.312  21.824  0.00  0.00    +0.000 A 
ATOM      5  C   UNL     1       0.100  10.566  20.596  0.00  0.00    +0.000 A 
ATOM      6  C   UNL     1       1.022   9.622  20.091  0.00  0.00    +0.000 A 
ENDROOT
BRANCH   1   9
ATOM      7  C   UNL     1       2.022   6.123  20.247  0.00  0.00    +0.000 C 
ATOM      8  O   UNL     1       1.061   5.520  20.717  0.00  0.00    +0.000 OA
ATOM      9  N   UNL     1       2.204   7.499  20.237  0.00  0.00    +0.000 N 
ATOM     10  H   UNL     1       2.995   7.839  19.697  0.00  0.00    +0.000 HD
BRANCH   7  14
ATOM     11  C   UNL     1       3.502   1.926  18.057  0.00  0.00    +0.000 C 
ATOM     12  C   UNL     1       3.762   3.309  18.578  0.00  0.00    +0.000 A 
ATOM     13  C   UNL     1       2.753   4.042  19.151  0.00  0.00    +0.000 A 
ATOM     14  C   UNL     1       3.092   5.308  19.595  0.00  0.00    +0.000 A 
ATOM     15  N   UNL     1       4.325   5.849  19.495  0.00  0.00    +0.000 NA
ATOM     16  C   UNL     1       5.236   5.044  18.919  0.00  0.00    +0.000 A 
ATOM     17  N   UNL     1       5.010   3.799  18.457  0.00  0.00    +0.000 NA
BRANCH  16  18
ATOM     18  C   UNL     1       6.561   5.539  18.786  0.00  0.00    +0.000 C 
ATOM     19  C   UNL     1       7.780   5.694  19.215  0.00  0.00    +0.000 C 
ATOM     20  C   UNL     1       7.460   6.290  17.952  0.00  0.00    +0.000 C 
ENDBRANCH  16  18
ENDBRANCH   7  14
ENDBRANCH   1   9
BRANCH   5  21
ATOM     21  C   UNL     1      -0.176  11.862  19.847  0.00  0.00    +0.000 C 
ATOM     22  C   UNL     1       1.096  12.715  19.708  0.00  0.00    +0.000 C 
BRANCH  21  23
ATOM     23  C   UNL     1      -0.778  11.594  18.445  0.00  0.00    +0.000 C 
BRANCH  23  24
ATOM     24  C   UNL     1      -2.254  11.163  18.447  0.00  0.00    +0.000 C 
BRANCH  24  25
ATOM     25  C   UNL     1      -2.738  10.752  17.098  0.00  0.00    +0.000 A 
ATOM     26  N   UNL     1      -2.104   9.973  16.243  0.00  0.00    +0.000 NA
ATOM     27  N   UNL     1      -2.891   9.821  15.129  0.00  0.00    +0.000 NA
ATOM     28  C   UNL     1      -3.996  10.497  15.330  0.00  0.00    +0.000 A 
ATOM     29  N   UNL     1      -3.945  11.101  16.549  0.00  0.00    +0.000 N 
ATOM     30  C   UNL     1      -4.976  11.926  17.119  0.00  0.00    +0.000 C 
ENDBRANCH  24  25
ENDBRANCH  23  24
ENDBRANCH  21  23
ENDBRANCH   5  21
TORSDOF 7
ENDMDL
MODEL 8
REMARK VINA RESULT:      -8.2      7.111     10.001
REMARK  Name = 
REMARK  10 active torsions:
REMARK  status: ('A' for Active; 'I' for Inactive)
REMARK    1  A    between atoms: C_1  and  C_2
REMARK    2  A    between atoms: C_4  and  C_5
REMARK    3  A    between atoms: N_7  and  C_8
REMARK    4  A    between atoms: C_12  and  C_13
REMARK    5  A    between atoms: C_13  and  C_14
REMARK    6  A    between atoms: C_13  and  C_15
REMARK    7  A    between atoms: C_15  and  C_16
REMARK    8  A    between atoms: C_16  and  C_17
REMARK    9  A    between atoms: N_21  and  C_22
REMARK   10  A    between atoms: C_25  and  C_26
REMARK                            x       y       z     vdW  Elec       q    Type
REMARK                         _______ _______ _______ _____ _____    ______ ____
ROOT
ATOM      1  C   UNL     1       0.428  10.073  18.743  0.00  0.00    +0.000 A 
ATOM      2  C   UNL     1       0.847  11.332  19.185  0.00  0.00    +0.000 A 
ATOM      3  C   UNL     1       0.061  12.466  18.987  0.00  0.00    +0.000 A 
ATOM      4  C   UNL     1      -1.150  12.361  18.318  0.00  0.00    +0.000 A 
ATOM      5  C   UNL     1      -1.580  11.125  17.815  0.00  0.00    +0.000 A 
ATOM      6  C   UNL     1      -0.779   9.982  18.035  0.00  0.00    +0.000 A 
ENDROOT
BRANCH   1   9
ATOM      7  C   UNL     1       2.160   8.385  18.145  0.00  0.00    +0.000 C 
ATOM      8  O   UNL     1       2.539   8.878  17.085  0.00  0.00    +0.000 OA
ATOM      9  N   UNL     1       1.180   8.896  18.985  0.00  0.00    +0.000 N 
ATOM     10  H   UNL     1       1.078   8.430  19.882  0.00  0.00    +0.000 HD
BRANCH   7  14
ATOM     11  C   UNL     1       2.289   4.388  21.079  0.00  0.00    +0.000 C 
ATOM     12  C   UNL     1       2.870   5.259  20.005  0.00  0.00    +0.000 A 
ATOM     13  C   UNL     1       2.218   6.396  19.596  0.00  0.00    +0.000 A 
ATOM     14  C   UNL     1       2.831   7.129  18.596  0.00  0.00    +0.000 A 
ATOM     15  N   UNL     1       4.002   6.795  18.011  0.00  0.00    +0.000 NA
ATOM     16  C   UNL     1       4.555   5.664  18.489  0.00  0.00    +0.000 A 
ATOM     17  N   UNL     1       4.042   4.883  19.459  0.00  0.00    +0.000 NA
BRANCH  16  18
ATOM     18  C   UNL     1       5.794   5.252  17.932  0.00  0.00    +0.000 C 
ATOM     19  C   UNL     1       7.095   5.262  17.884  0.00  0.00    +0.000 C 
ATOM     20  C   UNL     1       6.420   4.448  16.916  0.00  0.00    +0.000 C 
ENDBRANCH  16  18
ENDBRANCH   7  14
ENDBRANCH   1   9
BRANCH   5  21
ATOM     21  C   UNL     1      -2.867  11.032  17.007  0.00  0.00    +0.000 C 
ATOM     22  C   UNL     1      -2.663  10.223  15.715  0.00  0.00    +0.000 C 
BRANCH  21  23
ATOM     23  C   UNL     1      -4.017  10.408  17.836  0.00  0.00    +0.000 C 
BRANCH  23  24
ATOM     24  C   UNL     1      -5.355  11.160  17.754  0.00  0.00    +0.000 C 
BRANCH  24  25
ATOM     25  C   UNL     1      -6.215  10.944  18.952  0.00  0.00    +0.000 A 
ATOM     26  N   UNL     1      -6.782   9.809  19.313  0.00  0.00    +0.000 NA
ATOM     27  N   UNL     1      -7.473  10.020  20.481  0.00  0.00    +0.000 NA
ATOM     28  C   UNL     1      -7.302  11.275  20.818  0.00  0.00    +0.000 A 
ATOM     29  N   UNL     1      -6.525  11.896  19.889  0.00  0.00    +0.000 N 
ATOM     30  C   UNL     1      -6.119  13.275  19.922  0.00  0.00    +0.000 C 
ENDBRANCH  24  25
ENDBRANCH  23  24
ENDBRANCH  21  23
ENDBRANCH   5  21
TORSDOF 7
ENDMDL
MODEL 9
REMARK VINA RESULT:      -8.1      4.934      9.821
REMARK  Name = 
REMARK  10 active torsions:
REMARK  status: ('A' for Active; 'I' for Inactive)
REMARK    1  A    between atoms: C_1  and  C_2
REMARK    2  A    between atoms: C_4  and  C_5
REMARK    3  A    between atoms: N_7  and  C_8
REMARK    4  A    between atoms: C_12  and  C_13
REMARK    5  A    between atoms: C_13  and  C_14
REMARK    6  A    between atoms: C_13  and  C_15
REMARK    7  A    between atoms: C_15  and  C_16
REMARK    8  A    between atoms: C_16  and  C_17
REMARK    9  A    between atoms: N_21  and  C_22
REMARK   10  A    between atoms: C_25  and  C_26
REMARK                            x       y       z     vdW  Elec       q    Type
REMARK                         _______ _______ _______ _____ _____    ______ ____
ROOT
ATOM      1  C   UNL     1       1.400   8.449  20.632  0.00  0.00    +0.000 A 
ATOM      2  C   UNL     1       1.027   8.627  21.968  0.00  0.00    +0.000 A 
ATOM      3  C   UNL     1       0.093   9.594  22.335  0.00  0.00    +0.000 A 
ATOM      4  C   UNL     1      -0.466  10.419  21.369  0.00  0.00    +0.000 A 
ATOM      5  C   UNL     1      -0.079  10.305  20.026  0.00  0.00    +0.000 A 
ATOM      6  C   UNL     1       0.860   9.311  19.668  0.00  0.00    +0.000 A 
ENDROOT
BRANCH   1   9
ATOM      7  C   UNL     1       2.023   6.074  20.212  0.00  0.00    +0.000 C 
ATOM      8  O   UNL     1       0.957   5.546  20.520  0.00  0.00    +0.000 OA
ATOM      9  N   UNL     1       2.303   7.433  20.228  0.00  0.00    +0.000 N 
ATOM     10  H   UNL     1       3.194   7.707  19.824  0.00  0.00    +0.000 HD
BRANCH   7  14
ATOM     11  C   UNL     1       3.651   1.562  18.949  0.00  0.00    +0.000 C 
ATOM     12  C   UNL     1       3.864   3.030  19.170  0.00  0.00    +0.000 A 
ATOM     13  C   UNL     1       2.828   3.834  19.576  0.00  0.00    +0.000 A 
ATOM     14  C   UNL     1       3.123   5.175  19.747  0.00  0.00    +0.000 A 
ATOM     15  N   UNL     1       4.339   5.723  19.537  0.00  0.00    +0.000 NA
ATOM     16  C   UNL     1       5.280   4.845  19.144  0.00  0.00    +0.000 A 
ATOM     17  N   UNL     1       5.097   3.524  18.952  0.00  0.00    +0.000 NA
BRANCH  16  18
ATOM     18  C   UNL     1       6.590   5.343  18.914  0.00  0.00    +0.000 C 
ATOM     19  C   UNL     1       7.747   5.771  19.327  0.00  0.00    +0.000 C 
ATOM     20  C   UNL     1       7.543   5.732  17.909  0.00  0.00    +0.000 C 
ENDBRANCH  16  18
ENDBRANCH   7  14
ENDBRANCH   1   9
BRANCH   5  21
ATOM     21  C   UNL     1      -0.629  11.268  18.984  0.00  0.00    +0.000 C 
ATOM     22  C   UNL     1      -2.162  11.191  18.900  0.00  0.00    +0.000 C 
BRANCH  21  23
ATOM     23  C   UNL     1      -0.197  12.728  19.272  0.00  0.00    +0.000 C 
BRANCH  23  24
ATOM     24  C   UNL     1       1.173  13.122  18.696  0.00  0.00    +0.000 C 
BRANCH  24  25
ATOM     25  C   UNL     1       2.139  13.556  19.746  0.00  0.00    +0.000 A 
ATOM     26  N   UNL     1       2.237  13.068  20.968  0.00  0.00    +0.000 NA
ATOM     27  N   UNL     1       3.259  13.718  21.613  0.00  0.00    +0.000 NA
ATOM     28  C   UNL     1       3.774  14.579  20.770  0.00  0.00    +0.000 A 
ATOM     29  N   UNL     1       3.103  14.518  19.588  0.00  0.00    +0.000 N 
ATOM     30  C   UNL     1       3.384  15.311  18.422  0.00  0.00    +0.000 C 
ENDBRANCH  24  25
ENDBRANCH  23  24
ENDBRANCH  21  23
ENDBRANCH   5  21
TORSDOF 7
ENDMDL
