MODEL 1
REMARK VINA RESULT:      -8.6      0.000      0.000
REMARK  Name = 
REMARK  7 active torsions:
REMARK  status: ('A' for Active; 'I' for Inactive)
REMARK    1  A    between atoms: C_1  and  C_2
REMARK    2  A    between atoms: C_2  and  C_3
REMARK    3  A    between atoms: C_2  and  C_10
REMARK    4  A    between atoms: C_3  and  C_4
REMARK    5  A    between atoms: N_8  and  C_9
REMARK    6  A    between atoms: C_14  and  N_15
REMARK    7  A    between atoms: C_21  and  C_22
REMARK                            x       y       z     vdW  Elec       q    Type
REMARK                         _______ _______ _______ _____ _____    ______ ____
ROOT
ATOM      1  C   UNL     1       4.223   4.604  16.738  0.00  0.00    +0.000 A 
ATOM      2  C   UNL     1       3.390   3.474  16.789  0.00  0.00    +0.000 A 
ATOM      3  C   UNL     1       2.189   3.498  17.491  0.00  0.00    +0.000 A 
ATOM      4  C   UNL     1       1.815   4.640  18.191  0.00  0.00    +0.000 A 
ATOM      5  C   UNL     1       2.618   5.787  18.186  0.00  0.00    +0.000 A 
ATOM      6  C   UNL     1       3.797   5.762  17.421  0.00  0.00    +0.000 A 
ENDROOT
BRANCH   5   7
ATOM      7  N   UNL     1       2.296   6.907  19.000  0.00  0.00    +0.000 N 
ATOM      8  C   UNL     1       1.963   6.789  20.417  0.00  0.00    +0.000 C 
ATOM      9  C   UNL     1       1.463   8.154  20.759  0.00  0.00    +0.000 A 
ATOM     10  C   UNL     1       0.982   8.669  21.945  0.00  0.00    +0.000 A 
ATOM     11  C   UNL     1       0.548   9.989  21.917  0.00  0.00    +0.000 A 
ATOM     12  N   UNL     1       0.544  10.777  20.805  0.00  0.00    +0.000 NA
ATOM     13  C   UNL     1       1.012  10.250  19.638  0.00  0.00    +0.000 A 
ATOM     14  C   UNL     1       1.499   8.963  19.628  0.00  0.00    +0.000 A 
ATOM     15  C   UNL     1       2.085   8.199  18.533  0.00  0.00    +0.000 C 
ATOM     16  O   UNL     1       2.340   8.719  17.462  0.00  0.00    +0.000 OA
BRANCH  13  17
ATOM     17  C   UNL     1       0.926  11.036  18.345  0.00  0.00    +0.000 C 
ATOM     18  F   UNL     1      -0.156  11.869  18.317  0.00  0.00    +0.000 F 
ATOM     19  F   UNL     1       2.002  11.847  18.128  0.00  0.00    +0.000 F 
ENDBRANCH  13  17
ENDBRANCH   5   7
BRANCH   1  21
ATOM     20  C   UNL     1       5.444   4.134  14.563  0.00  0.00    +0.000 C 
ATOM     21  C   UNL     1       5.593   4.497  16.051  0.00  0.00    +0.000 C 
BRANCH  21  22
ATOM     22  C   UNL     1       6.504   5.738  16.225  0.00  0.00    +0.000 C 
BRANCH  22  23
ATOM     23  C   UNL     1       7.236   5.759  17.526  0.00  0.00    +0.000 A 
ATOM     24  N   UNL     1       7.436   4.714  18.307  0.00  0.00    +0.000 NA
ATOM     25  N   UNL     1       8.091   5.137  19.437  0.00  0.00    +0.000 NA
ATOM     26  C   UNL     1       8.273   6.431  19.328  0.00  0.00    +0.000 A 
ATOM     27  N   UNL     1       7.757   6.866  18.146  0.00  0.00    +0.000 N 
ATOM     28  C   UNL     1       7.760   8.230  17.691  0.00  0.00    +0.000 C 
ENDBRANCH  22  23
ENDBRANCH  21  22
ENDBRANCH   1  21
TORSDOF 5
ENDMDL
MODEL 2
REMARK VINA RESULT:      -8.6      2.559      3.716
REMARK  Name = 
REMARK  7 active torsions:
REMARK  status: ('A' for Active; 'I' for Inactive)
REMARK    1  A    between atoms: C_1  and  C_2
REMARK    2  A    between atoms: C_2  and  C_3
REMARK    3  A    between atoms: C_2  and  C_10
REMARK    4  A    between atoms: C_3  and  C_4
REMARK    5  A    between atoms: N_8  and  C_9
REMARK    6  A    between atoms: C_14  and  N_15
REMARK    7  A    between atoms: C_21  and  C_22
REMARK                            x       y       z     vdW  Elec       q    Type
REMARK                         _______ _______ _______ _____ _____    ______ ____
ROOT
ATOM      1  C   UNL     1       4.515   4.990  17.144  0.00  0.00    +0.000 A 
ATOM      2  C   UNL     1       3.870   3.781  17.454  0.00  0.00    +0.000 A 
ATOM      3  C   UNL     1       2.624   3.770  18.072  0.00  0.00    +0.000 A 
ATOM      4  C   UNL     1       2.014   4.967  18.429  0.00  0.00    +0.000 A 
ATOM      5  C   UNL     1       2.622   6.198  18.159  0.00  0.00    +0.000 A 
ATOM      6  C   UNL     1       3.852   6.190  17.480  0.00  0.00    +0.000 A 
ENDROOT
BRANCH   5   7
ATOM      7  N   UNL     1       2.056   7.412  18.634  0.00  0.00    +0.000 N 
ATOM      8  C   UNL     1       1.999   8.630  17.830  0.00  0.00    +0.000 C 
ATOM      9  C   UNL     1       1.572   9.666  18.818  0.00  0.00    +0.000 A 
ATOM     10  C   UNL     1       1.357  11.020  18.671  0.00  0.00    +0.000 A 
ATOM     11  C   UNL     1       1.002  11.719  19.818  0.00  0.00    +0.000 A 
ATOM     12  N   UNL     1       0.885  11.162  21.056  0.00  0.00    +0.000 NA
ATOM     13  C   UNL     1       1.112   9.825  21.187  0.00  0.00    +0.000 A 
ATOM     14  C   UNL     1       1.418   9.081  20.071  0.00  0.00    +0.000 A 
ATOM     15  C   UNL     1       1.658   7.649  19.944  0.00  0.00    +0.000 C 
ATOM     16  O   UNL     1       1.467   6.889  20.876  0.00  0.00    +0.000 OA
BRANCH  13  17
ATOM     17  C   UNL     1       1.110   9.170  22.555  0.00  0.00    +0.000 C 
ATOM     18  F   UNL     1       2.323   9.266  23.176  0.00  0.00    +0.000 F 
ATOM     19  F   UNL     1       0.222   9.730  23.426  0.00  0.00    +0.000 F 
ENDBRANCH  13  17
ENDBRANCH   5   7
BRANCH   1  21
ATOM     20  C   UNL     1       6.978   4.695  17.677  0.00  0.00    +0.000 C 
ATOM     21  C   UNL     1       5.940   4.957  16.571  0.00  0.00    +0.000 C 
BRANCH  21  22
ATOM     22  C   UNL     1       6.140   3.978  15.386  0.00  0.00    +0.000 C 
BRANCH  22  23
ATOM     23  C   UNL     1       6.940   4.558  14.267  0.00  0.00    +0.000 A 
ATOM     24  N   UNL     1       7.849   5.505  14.389  0.00  0.00    +0.000 NA
ATOM     25  N   UNL     1       8.321   5.816  13.138  0.00  0.00    +0.000 NA
ATOM     26  C   UNL     1       7.688   5.059  12.276  0.00  0.00    +0.000 A 
ATOM     27  N   UNL     1       6.813   4.251  12.936  0.00  0.00    +0.000 N 
ATOM     28  C   UNL     1       5.934   3.297  12.316  0.00  0.00    +0.000 C 
ENDBRANCH  22  23
ENDBRANCH  21  22
ENDBRANCH   1  21
TORSDOF 5
ENDMDL
MODEL 3
REMARK VINA RESULT:      -8.4      1.954      2.974
REMARK  Name = 
REMARK  7 active torsions:
REMARK  status: ('A' for Active; 'I' for Inactive)
REMARK    1  A    between atoms: C_1  and  C_2
REMARK    2  A    between atoms: C_2  and  C_3
REMARK    3  A    between atoms: C_2  and  C_10
REMARK    4  A    between atoms: C_3  and  C_4
REMARK    5  A    between atoms: N_8  and  C_9
REMARK    6  A    between atoms: C_14  and  N_15
REMARK    7  A    between atoms: C_21  and  C_22
REMARK                            x       y       z     vdW  Elec       q    Type
REMARK                         _______ _______ _______ _____ _____    ______ ____
ROOT
ATOM      1  C   UNL     1       4.204   5.661  17.117  0.00  0.00    +0.000 A 
ATOM      2  C   UNL     1       3.680   4.375  17.326  0.00  0.00    +0.000 A 
ATOM      3  C   UNL     1       2.579   4.173  18.152  0.00  0.00    +0.000 A 
ATOM      4  C   UNL     1       2.003   5.249  18.818  0.00  0.00    +0.000 A 
ATOM      5  C   UNL     1       2.499   6.549  18.658  0.00  0.00    +0.000 A 
ATOM      6  C   UNL     1       3.573   6.739  17.773  0.00  0.00    +0.000 A 
ENDROOT
BRANCH   5   7
ATOM      7  N   UNL     1       1.989   7.626  19.433  0.00  0.00    +0.000 N 
ATOM      8  C   UNL     1       1.664   7.499  20.851  0.00  0.00    +0.000 C 
ATOM      9  C   UNL     1       0.944   8.773  21.147  0.00  0.00    +0.000 A 
ATOM     10  C   UNL     1       0.373   9.238  22.313  0.00  0.00    +0.000 A 
ATOM     11  C   UNL     1      -0.271  10.468  22.240  0.00  0.00    +0.000 A 
ATOM     12  N   UNL     1      -0.392  11.210  21.103  0.00  0.00    +0.000 NA
ATOM     13  C   UNL     1       0.169  10.731  19.956  0.00  0.00    +0.000 A 
ATOM     14  C   UNL     1       0.859   9.541  19.991  0.00  0.00    +0.000 A 
ATOM     15  C   UNL     1       1.575   8.850  18.925  0.00  0.00    +0.000 C 
ATOM     16  O   UNL     1       1.752   9.372  17.839  0.00  0.00    +0.000 OA
BRANCH  13  17
ATOM     17  C   UNL     1      -0.031  11.453  18.639  0.00  0.00    +0.000 C 
ATOM     18  F   UNL     1      -1.236  11.161  18.067  0.00  0.00    +0.000 F 
ATOM     19  F   UNL     1      -0.013  12.812  18.753  0.00  0.00    +0.000 F 
ENDBRANCH  13  17
ENDBRANCH   5   7
BRANCH   1  21
ATOM     20  C   UNL     1       6.616   6.449  17.138  0.00  0.00    +0.000 C 
ATOM     21  C   UNL     1       5.491   5.824  16.294  0.00  0.00    +0.000 C 
BRANCH  21  22
ATOM     22  C   UNL     1       5.982   4.531  15.595  0.00  0.00    +0.000 C 
BRANCH  22  23
ATOM     23  C   UNL     1       6.823   4.792  14.389  0.00  0.00    +0.000 A 
ATOM     24  N   UNL     1       7.870   5.593  14.347  0.00  0.00    +0.000 NA
ATOM     25  N   UNL     1       8.342   5.621  13.058  0.00  0.00    +0.000 NA
ATOM     26  C   UNL     1       7.573   4.842  12.338  0.00  0.00    +0.000 A 
ATOM     27  N   UNL     1       6.607   4.297  13.128  0.00  0.00    +0.000 N 
ATOM     28  C   UNL     1       5.574   3.403  12.681  0.00  0.00    +0.000 C 
ENDBRANCH  22  23
ENDBRANCH  21  22
ENDBRANCH   1  21
TORSDOF 5
ENDMDL
MODEL 4
REMARK VINA RESULT:      -8.4      1.936      3.010
REMARK  Name = 
REMARK  7 active torsions:
REMARK  status: ('A' for Active; 'I' for Inactive)
REMARK    1  A    between atoms: C_1  and  C_2
REMARK    2  A    between atoms: C_2  and  C_3
REMARK    3  A    between atoms: C_2  and  C_10
REMARK    4  A    between atoms: C_3  and  C_4
REMARK    5  A    between atoms: N_8  and  C_9
REMARK    6  A    between atoms: C_14  and  N_15
REMARK    7  A    between atoms: C_21  and  C_22
REMARK                            x       y       z     vdW  Elec       q    Type
REMARK                         _______ _______ _______ _____ _____    ______ ____
ROOT
ATOM      1  C   UNL     1       4.473   4.927  16.997  0.00  0.00    +0.000 A 
ATOM      2  C   UNL     1       3.660   3.785  16.905  0.00  0.00    +0.000 A 
ATOM      3  C   UNL     1       2.393   3.758  17.477  0.00  0.00    +0.000 A 
ATOM      4  C   UNL     1       1.927   4.857  18.190  0.00  0.00    +0.000 A 
ATOM      5  C   UNL     1       2.705   6.013  18.327  0.00  0.00    +0.000 A 
ATOM      6  C   UNL     1       3.957   6.043  17.689  0.00  0.00    +0.000 A 
ENDROOT
BRANCH   5   7
ATOM      7  N   UNL     1       2.279   7.086  19.156  0.00  0.00    +0.000 N 
ATOM      8  C   UNL     1       1.975   6.919  20.575  0.00  0.00    +0.000 C 
ATOM      9  C   UNL     1       1.343   8.223  20.939  0.00  0.00    +0.000 A 
ATOM     10  C   UNL     1       0.825   8.673  22.135  0.00  0.00    +0.000 A 
ATOM     11  C   UNL     1       0.259   9.942  22.127  0.00  0.00    +0.000 A 
ATOM     12  N   UNL     1       0.163  10.737  21.025  0.00  0.00    +0.000 NA
ATOM     13  C   UNL     1       0.670  10.273  19.847  0.00  0.00    +0.000 A 
ATOM     14  C   UNL     1       1.284   9.043  19.817  0.00  0.00    +0.000 A 
ATOM     15  C   UNL     1       1.933   8.354  18.708  0.00  0.00    +0.000 C 
ATOM     16  O   UNL     1       2.122   8.909  17.641  0.00  0.00    +0.000 OA
BRANCH  13  17
ATOM     17  C   UNL     1       0.490  11.061  18.565  0.00  0.00    +0.000 C 
ATOM     18  F   UNL     1       1.684  11.438  18.018  0.00  0.00    +0.000 F 
ATOM     19  F   UNL     1      -0.145  10.363  17.580  0.00  0.00    +0.000 F 
ENDBRANCH  13  17
ENDBRANCH   5   7
BRANCH   1  21
ATOM     20  C   UNL     1       6.922   4.613  17.583  0.00  0.00    +0.000 C 
ATOM     21  C   UNL     1       5.909   4.874  16.454  0.00  0.00    +0.000 C 
BRANCH  21  22
ATOM     22  C   UNL     1       6.123   3.882  15.283  0.00  0.00    +0.000 C 
BRANCH  22  23
ATOM     23  C   UNL     1       6.860   4.477  14.129  0.00  0.00    +0.000 A 
ATOM     24  N   UNL     1       7.748   5.448  14.209  0.00  0.00    +0.000 NA
ATOM     25  N   UNL     1       8.159   5.765  12.938  0.00  0.00    +0.000 NA
ATOM     26  C   UNL     1       7.511   4.987  12.107  0.00  0.00    +0.000 A 
ATOM     27  N   UNL     1       6.686   4.160  12.806  0.00  0.00    +0.000 N 
ATOM     28  C   UNL     1       5.808   3.179  12.227  0.00  0.00    +0.000 C 
ENDBRANCH  22  23
ENDBRANCH  21  22
ENDBRANCH   1  21
TORSDOF 5
ENDMDL
MODEL 5
REMARK VINA RESULT:      -8.3      3.881      8.658
REMARK  Name = 
REMARK  7 active torsions:
REMARK  status: ('A' for Active; 'I' for Inactive)
REMARK    1  A    between atoms: C_1  and  C_2
REMARK    2  A    between atoms: C_2  and  C_3
REMARK    3  A    between atoms: C_2  and  C_10
REMARK    4  A    between atoms: C_3  and  C_4
REMARK    5  A    between atoms: N_8  and  C_9
REMARK    6  A    between atoms: C_14  and  N_15
REMARK    7  A    between atoms: C_21  and  C_22
REMARK                            x       y       z     vdW  Elec       q    Type
REMARK                         _______ _______ _______ _____ _____    ______ ____
ROOT
ATOM      1  C   UNL     1       0.141  10.195  19.890  0.00  0.00    +0.000 A 
ATOM      2  C   UNL     1      -0.183  10.074  21.252  0.00  0.00    +0.000 A 
ATOM      3  C   UNL     1       0.357   9.056  22.031  0.00  0.00    +0.000 A 
ATOM      4  C   UNL     1       1.201   8.114  21.456  0.00  0.00    +0.000 A 
ATOM      5  C   UNL     1       1.542   8.179  20.099  0.00  0.00    +0.000 A 
ATOM      6  C   UNL     1       1.034   9.250  19.344  0.00  0.00    +0.000 A 
ENDROOT
BRANCH   5   7
ATOM      7  N   UNL     1       2.304   7.147  19.487  0.00  0.00    +0.000 N 
ATOM      8  C   UNL     1       3.239   7.393  18.393  0.00  0.00    +0.000 C 
ATOM      9  C   UNL     1       3.586   6.016  17.931  0.00  0.00    +0.000 A 
ATOM     10  C   UNL     1       4.412   5.585  16.914  0.00  0.00    +0.000 A 
ATOM     11  C   UNL     1       4.485   4.212  16.714  0.00  0.00    +0.000 A 
ATOM     12  N   UNL     1       3.782   3.290  17.429  0.00  0.00    +0.000 NA
ATOM     13  C   UNL     1       2.961   3.732  18.423  0.00  0.00    +0.000 A 
ATOM     14  C   UNL     1       2.894   5.079  18.692  0.00  0.00    +0.000 A 
ATOM     15  C   UNL     1       2.136   5.787  19.716  0.00  0.00    +0.000 C 
ATOM     16  O   UNL     1       1.538   5.187  20.591  0.00  0.00    +0.000 OA
BRANCH  13  17
ATOM     17  C   UNL     1       2.068   2.765  19.175  0.00  0.00    +0.000 C 
ATOM     18  F   UNL     1       0.779   2.793  18.724  0.00  0.00    +0.000 F 
ATOM     19  F   UNL     1       2.455   1.462  19.059  0.00  0.00    +0.000 F 
ENDBRANCH  13  17
ENDBRANCH   5   7
BRANCH   1  21
ATOM     20  C   UNL     1       0.382  12.421  18.694  0.00  0.00    +0.000 C 
ATOM     21  C   UNL     1      -0.569  11.260  19.040  0.00  0.00    +0.000 C 
BRANCH  21  22
ATOM     22  C   UNL     1      -1.260  10.717  17.765  0.00  0.00    +0.000 C 
BRANCH  22  23
ATOM     23  C   UNL     1      -2.682  11.152  17.631  0.00  0.00    +0.000 A 
ATOM     24  N   UNL     1      -3.432  11.624  18.607  0.00  0.00    +0.000 NA
ATOM     25  N   UNL     1      -4.692  11.855  18.114  0.00  0.00    +0.000 NA
ATOM     26  C   UNL     1      -4.690  11.514  16.848  0.00  0.00    +0.000 A 
ATOM     27  N   UNL     1      -3.452  11.069  16.498  0.00  0.00    +0.000 N 
ATOM     28  C   UNL     1      -3.078  10.596  15.193  0.00  0.00    +0.000 C 
ENDBRANCH  22  23
ENDBRANCH  21  22
ENDBRANCH   1  21
TORSDOF 5
ENDMDL
MODEL 6
REMARK VINA RESULT:      -8.2      1.957      2.695
REMARK  Name = 
REMARK  7 active torsions:
REMARK  status: ('A' for Active; 'I' for Inactive)
REMARK    1  A    between atoms: C_1  and  C_2
REMARK    2  A    between atoms: C_2  and  C_3
REMARK    3  A    between atoms: C_2  and  C_10
REMARK    4  A    between atoms: C_3  and  C_4
REMARK    5  A    between atoms: N_8  and  C_9
REMARK    6  A    between atoms: C_14  and  N_15
REMARK    7  A    between atoms: C_21  and  C_22
REMARK                            x       y       z     vdW  Elec       q    Type
REMARK                         _______ _______ _______ _____ _____    ______ ____
ROOT
ATOM      1  C   UNL     1       4.711   4.334  17.541  0.00  0.00    +0.000 A 
ATOM      2  C   UNL     1       4.664   3.408  18.597  0.00  0.00    +0.000 A 
ATOM      3  C   UNL     1       3.836   3.613  19.695  0.00  0.00    +0.000 A 
ATOM      4  C   UNL     1       3.066   4.768  19.780  0.00  0.00    +0.000 A 
ATOM      5  C   UNL     1       3.090   5.730  18.763  0.00  0.00    +0.000 A 
ATOM      6  C   UNL     1       3.887   5.475  17.634  0.00  0.00    +0.000 A 
ENDROOT
BRANCH   5   7
ATOM      7  N   UNL     1       2.399   6.963  18.909  0.00  0.00    +0.000 N 
ATOM      8  C   UNL     1       2.446   8.023  17.905  0.00  0.00    +0.000 C 
ATOM      9  C   UNL     1       1.803   9.176  18.602  0.00  0.00    +0.000 A 
ATOM     10  C   UNL     1       1.567  10.468  18.182  0.00  0.00    +0.000 A 
ATOM     11  C   UNL     1       0.979  11.323  19.107  0.00  0.00    +0.000 A 
ATOM     12  N   UNL     1       0.656  10.974  20.384  0.00  0.00    +0.000 NA
ATOM     13  C   UNL     1       0.906   9.696  20.788  0.00  0.00    +0.000 A 
ATOM     14  C   UNL     1       1.442   8.800  19.892  0.00  0.00    +0.000 A 
ATOM     15  C   UNL     1       1.756   7.387  20.065  0.00  0.00    +0.000 C 
ATOM     16  O   UNL     1       1.425   6.782  21.069  0.00  0.00    +0.000 OA
BRANCH  13  17
ATOM     17  C   UNL     1       0.676   9.282  22.227  0.00  0.00    +0.000 C 
ATOM     18  F   UNL     1       1.836   9.250  22.948  0.00  0.00    +0.000 F 
ATOM     19  F   UNL     1      -0.145  10.128  22.914  0.00  0.00    +0.000 F 
ENDBRANCH  13  17
ENDBRANCH   5   7
BRANCH   1  21
ATOM     20  C   UNL     1       5.331   4.933  15.154  0.00  0.00    +0.000 C 
ATOM     21  C   UNL     1       5.726   4.128  16.405  0.00  0.00    +0.000 C 
BRANCH  21  22
ATOM     22  C   UNL     1       7.200   4.405  16.795  0.00  0.00    +0.000 C 
BRANCH  22  23
ATOM     23  C   UNL     1       7.447   5.815  17.216  0.00  0.00    +0.000 A 
ATOM     24  N   UNL     1       7.513   6.854  16.406  0.00  0.00    +0.000 NA
ATOM     25  N   UNL     1       7.814   7.967  17.152  0.00  0.00    +0.000 NA
ATOM     26  C   UNL     1       7.932   7.586  18.401  0.00  0.00    +0.000 A 
ATOM     27  N   UNL     1       7.708   6.247  18.492  0.00  0.00    +0.000 N 
ATOM     28  C   UNL     1       7.767   5.476  19.704  0.00  0.00    +0.000 C 
ENDBRANCH  22  23
ENDBRANCH  21  22
ENDBRANCH   1  21
TORSDOF 5
ENDMDL
MODEL 7
REMARK VINA RESULT:      -8.1      3.315      8.417
REMARK  Name = 
REMARK  7 active torsions:
REMARK  status: ('A' for Active; 'I' for Inactive)
REMARK    1  A    between atoms: C_1  and  C_2
REMARK    2  A    between atoms: C_2  and  C_3
REMARK    3  A    between atoms: C_2  and  C_10
REMARK    4  A    between atoms: C_3  and  C_4
REMARK    5  A    between atoms: N_8  and  C_9
REMARK    6  A    between atoms: C_14  and  N_15
REMARK    7  A    between atoms: C_21  and  C_22
REMARK                            x       y       z     vdW  Elec       q    Type
REMARK                         _______ _______ _______ _____ _____    ______ ____
ROOT
ATOM      1  C   UNL     1       0.039  10.497  20.024  0.00  0.00    +0.000 A 
ATOM      2  C   UNL     1      -0.077  10.545  21.423  0.00  0.00    +0.000 A 
ATOM      3  C   UNL     1       0.538   9.592  22.228  0.00  0.00    +0.000 A 
ATOM      4  C   UNL     1       1.251   8.548  21.648  0.00  0.00    +0.000 A 
ATOM      5  C   UNL     1       1.382   8.445  20.258  0.00  0.00    +0.000 A 
ATOM      6  C   UNL     1       0.803   9.451  19.466  0.00  0.00    +0.000 A 
ENDROOT
BRANCH   5   7
ATOM      7  N   UNL     1       2.004   7.313  19.666  0.00  0.00    +0.000 N 
ATOM      8  C   UNL     1       2.083   6.013  20.328  0.00  0.00    +0.000 C 
ATOM      9  C   UNL     1       3.021   5.247  19.453  0.00  0.00    +0.000 A 
ATOM     10  C   UNL     1       3.508   3.961  19.560  0.00  0.00    +0.000 A 
ATOM     11  C   UNL     1       4.416   3.560  18.586  0.00  0.00    +0.000 A 
ATOM     12  N   UNL     1       4.863   4.355  17.574  0.00  0.00    +0.000 NA
ATOM     13  C   UNL     1       4.381   5.627  17.489  0.00  0.00    +0.000 A 
ATOM     14  C   UNL     1       3.443   6.053  18.401  0.00  0.00    +0.000 A 
ATOM     15  C   UNL     1       2.752   7.333  18.495  0.00  0.00    +0.000 C 
ATOM     16  O   UNL     1       2.854   8.175  17.621  0.00  0.00    +0.000 OA
BRANCH  13  17
ATOM     17  C   UNL     1       4.925   6.593  16.456  0.00  0.00    +0.000 C 
ATOM     18  F   UNL     1       6.128   7.122  16.826  0.00  0.00    +0.000 F 
ATOM     19  F   UNL     1       5.151   6.019  15.239  0.00  0.00    +0.000 F 
ENDBRANCH  13  17
ENDBRANCH   5   7
BRANCH   1  21
ATOM     20  C   UNL     1       0.097  12.734  18.825  0.00  0.00    +0.000 C 
ATOM     21  C   UNL     1      -0.754  11.498  19.169  0.00  0.00    +0.000 C 
BRANCH  21  22
ATOM     22  C   UNL     1      -1.392  10.897  17.891  0.00  0.00    +0.000 C 
BRANCH  22  23
ATOM     23  C   UNL     1      -2.824  11.278  17.708  0.00  0.00    +0.000 A 
ATOM     24  N   UNL     1      -3.625  11.719  18.659  0.00  0.00    +0.000 NA
ATOM     25  N   UNL     1      -4.875  11.903  18.122  0.00  0.00    +0.000 NA
ATOM     26  C   UNL     1      -4.816  11.565  16.858  0.00  0.00    +0.000 A 
ATOM     27  N   UNL     1      -3.551  11.169  16.550  0.00  0.00    +0.000 N 
ATOM     28  C   UNL     1      -3.114  10.713  15.258  0.00  0.00    +0.000 C 
ENDBRANCH  22  23
ENDBRANCH  21  22
ENDBRANCH   1  21
TORSDOF 5
ENDMDL
MODEL 8
REMARK VINA RESULT:      -8.1      4.473      9.405
REMARK  Name = 
REMARK  7 active torsions:
REMARK  status: ('A' for Active; 'I' for Inactive)
REMARK    1  A    between atoms: C_1  and  C_2
REMARK    2  A    between atoms: C_2  and  C_3
REMARK    3  A    between atoms: C_2  and  C_10
REMARK    4  A    between atoms: C_3  and  C_4
REMARK    5  A    between atoms: N_8  and  C_9
REMARK    6  A    between atoms: C_14  and  N_15
REMARK    7  A    between atoms: C_21  and  C_22
REMARK                            x       y       z     vdW  Elec       q    Type
REMARK                         _______ _______ _______ _____ _____    ______ ____
ROOT
ATOM      1  C   UNL     1      -1.538  10.955  18.326  0.00  0.00    +0.000 A 
ATOM      2  C   UNL     1      -1.502  11.818  19.435  0.00  0.00    +0.000 A 
ATOM      3  C   UNL     1      -0.460  11.762  20.355  0.00  0.00    +0.000 A 
ATOM      4  C   UNL     1       0.548  10.816  20.208  0.00  0.00    +0.000 A 
ATOM      5  C   UNL     1       0.550   9.921  19.130  0.00  0.00    +0.000 A 
ATOM      6  C   UNL     1      -0.479  10.034  18.180  0.00  0.00    +0.000 A 
ENDROOT
BRANCH   5   7
ATOM      7  N   UNL     1       1.510   8.877  19.049  0.00  0.00    +0.000 N 
ATOM      8  C   UNL     1       2.410   8.713  17.910  0.00  0.00    +0.000 C 
ATOM      9  C   UNL     1       3.026   7.375  18.159  0.00  0.00    +0.000 A 
ATOM     10  C   UNL     1       3.946   6.654  17.427  0.00  0.00    +0.000 A 
ATOM     11  C   UNL     1       4.285   5.400  17.921  0.00  0.00    +0.000 A 
ATOM     12  N   UNL     1       3.752   4.843  19.044  0.00  0.00    +0.000 NA
ATOM     13  C   UNL     1       2.836   5.564  19.751  0.00  0.00    +0.000 A 
ATOM     14  C   UNL     1       2.506   6.831  19.328  0.00  0.00    +0.000 A 
ATOM     15  C   UNL     1       1.599   7.804  19.927  0.00  0.00    +0.000 C 
ATOM     16  O   UNL     1       1.104   7.619  21.023  0.00  0.00    +0.000 OA
BRANCH  13  17
ATOM     17  C   UNL     1       2.124   4.954  20.942  0.00  0.00    +0.000 C 
ATOM     18  F   UNL     1       0.847   4.573  20.642  0.00  0.00    +0.000 F 
ATOM     19  F   UNL     1       2.727   3.826  21.418  0.00  0.00    +0.000 F 
ENDBRANCH  13  17
ENDBRANCH   5   7
BRANCH   1  21
ATOM     20  C   UNL     1      -2.564  10.035  16.196  0.00  0.00    +0.000 C 
ATOM     21  C   UNL     1      -2.765  10.970  17.402  0.00  0.00    +0.000 C 
BRANCH  21  22
ATOM     22  C   UNL     1      -4.112  10.675  18.108  0.00  0.00    +0.000 C 
BRANCH  22  23
ATOM     23  C   UNL     1      -5.091  11.797  18.010  0.00  0.00    +0.000 A 
ATOM     24  N   UNL     1      -5.600  12.271  16.889  0.00  0.00    +0.000 NA
ATOM     25  N   UNL     1      -6.411  13.336  17.198  0.00  0.00    +0.000 NA
ATOM     26  C   UNL     1      -6.377  13.496  18.498  0.00  0.00    +0.000 A 
ATOM     27  N   UNL     1      -5.565  12.554  19.052  0.00  0.00    +0.000 N 
ATOM     28  C   UNL     1      -5.274  12.429  20.454  0.00  0.00    +0.000 C 
ENDBRANCH  22  23
ENDBRANCH  21  22
ENDBRANCH   1  21
TORSDOF 5
ENDMDL
MODEL 9
REMARK VINA RESULT:      -8.0      3.755      9.021
REMARK  Name = 
REMARK  7 active torsions:
REMARK  status: ('A' for Active; 'I' for Inactive)
REMARK    1  A    between atoms: C_1  and  C_2
REMARK    2  A    between atoms: C_2  and  C_3
REMARK    3  A    between atoms: C_2  and  C_10
REMARK    4  A    between atoms: C_3  and  C_4
REMARK    5  A    between atoms: N_8  and  C_9
REMARK    6  A    between atoms: C_14  and  N_15
REMARK    7  A    between atoms: C_21  and  C_22
REMARK                            x       y       z     vdW  Elec       q    Type
REMARK                         _______ _______ _______ _____ _____    ______ ____
ROOT
ATOM      1  C   UNL     1       0.060  10.039  20.815  0.00  0.00    +0.000 A 
ATOM      2  C   UNL     1       0.153  11.104  19.903  0.00  0.00    +0.000 A 
ATOM      3  C   UNL     1       0.873  10.976  18.720  0.00  0.00    +0.000 A 
ATOM      4  C   UNL     1       1.549   9.793  18.442  0.00  0.00    +0.000 A 
ATOM      5  C   UNL     1       1.504   8.708  19.326  0.00  0.00    +0.000 A 
ATOM      6  C   UNL     1       0.721   8.838  20.486  0.00  0.00    +0.000 A 
ENDROOT
BRANCH   5   7
ATOM      7  N   UNL     1       2.294   7.549  19.100  0.00  0.00    +0.000 N 
ATOM      8  C   UNL     1       3.178   7.403  17.947  0.00  0.00    +0.000 C 
ATOM      9  C   UNL     1       3.577   5.965  18.009  0.00  0.00    +0.000 A 
ATOM     10  C   UNL     1       4.388   5.216  17.183  0.00  0.00    +0.000 A 
ATOM     11  C   UNL     1       4.521   3.870  17.499  0.00  0.00    +0.000 A 
ATOM     12  N   UNL     1       3.889   3.255  18.538  0.00  0.00    +0.000 NA
ATOM     13  C   UNL     1       3.082   4.006  19.339  0.00  0.00    +0.000 A 
ATOM     14  C   UNL     1       2.958   5.354  19.095  0.00  0.00    +0.000 A 
ATOM     15  C   UNL     1       2.201   6.366  19.823  0.00  0.00    +0.000 C 
ATOM     16  O   UNL     1       1.664   6.113  20.885  0.00  0.00    +0.000 OA
BRANCH  13  17
ATOM     17  C   UNL     1       2.264   3.358  20.438  0.00  0.00    +0.000 C 
ATOM     18  F   UNL     1       1.428   2.390  19.958  0.00  0.00    +0.000 F 
ATOM     19  F   UNL     1       3.021   2.734  21.386  0.00  0.00    +0.000 F 
ENDBRANCH  13  17
ENDBRANCH   5   7
BRANCH   1  21
ATOM     20  C   UNL     1       0.060   9.491  23.293  0.00  0.00    +0.000 C 
ATOM     21  C   UNL     1      -0.645  10.262  22.162  0.00  0.00    +0.000 C 
BRANCH  21  22
ATOM     22  C   UNL     1      -0.844  11.749  22.551  0.00  0.00    +0.000 C 
BRANCH  22  23
ATOM     23  C   UNL     1      -2.279  12.141  22.678  0.00  0.00    +0.000 A 
ATOM     24  N   UNL     1      -3.076  11.811  23.675  0.00  0.00    +0.000 NA
ATOM     25  N   UNL     1      -4.330  12.301  23.408  0.00  0.00    +0.000 NA
ATOM     26  C   UNL     1      -4.277  12.915  22.252  0.00  0.00    +0.000 A 
ATOM     27  N   UNL     1      -3.012  12.844  21.755  0.00  0.00    +0.000 N 
ATOM     28  C   UNL     1      -2.581  13.393  20.498  0.00  0.00    +0.000 C 
ENDBRANCH  22  23
ENDBRANCH  21  22
ENDBRANCH   1  21
TORSDOF 5
ENDMDL
