MODEL 1
REMARK VINA RESULT:      -9.4      0.000      0.000
REMARK  Name = 
REMARK  3 active torsions:
REMARK  status: ('A' for Active; 'I' for Inactive)
REMARK    1  A    between atoms: C_1  and  N_2
REMARK    2  A    between atoms: C_3  and  C_4
REMARK    3  A    between atoms: C_12  and  C_13
REMARK                            x       y       z     vdW  Elec       q    Type
REMARK                         _______ _______ _______ _____ _____    ______ ____
ROOT
ATOM      1  C   UNL     1       2.351   7.888  18.869  0.00  0.00    +0.000 C 
ATOM      2  O   UNL     1       2.916   8.525  17.981  0.00  0.00    +0.000 OA
ATOM      3  N   UNL     1       2.608   6.531  19.009  0.00  0.00    +0.000 N 
ATOM      4  C   UNL     1       2.142   5.652  20.017  0.00  0.00    +0.000 C 
ATOM      5  C   UNL     1       2.898   4.375  19.717  0.00  0.00    +0.000 C 
ATOM      6  C   UNL     1       1.922   3.230  19.890  0.00  0.00    +0.000 C 
ATOM      7  O   UNL     1       2.610   2.141  19.330  0.00  0.00    +0.000 OA
ATOM      8  C   UNL     1       3.686   2.740  18.598  0.00  0.00    +0.000 C 
ATOM      9  C   UNL     1       3.333   4.286  18.197  0.00  0.00    +0.000 C 
ATOM     10  C   UNL     1       3.673   5.862  18.294  0.00  0.00    +0.000 C 
ENDROOT
BRANCH   1  13
ATOM     11  C   UNL     1       0.259  10.083  18.196  0.00  0.00    +0.000 C 
ATOM     12  N   UNL     1       0.545   9.542  19.509  0.00  0.00    +0.000 N 
ATOM     13  C   UNL     1       1.436   8.522  19.817  0.00  0.00    +0.000 A 
ATOM     14  C   UNL     1       1.219   8.244  21.159  0.00  0.00    +0.000 A 
ATOM     15  C   UNL     1       0.383   9.239  21.716  0.00  0.00    +0.000 A 
ATOM     16  C   UNL     1      -0.058   9.512  23.025  0.00  0.00    +0.000 A 
ATOM     17  C   UNL     1      -0.910  10.595  23.242  0.00  0.00    +0.000 A 
ATOM     18  C   UNL     1      -1.325  11.395  22.181  0.00  0.00    +0.000 A 
ATOM     19  C   UNL     1      -0.888  11.143  20.875  0.00  0.00    +0.000 A 
ATOM     20  C   UNL     1      -0.030  10.050  20.667  0.00  0.00    +0.000 A 
ENDBRANCH   1  13
BRANCH   9  21
ATOM     21  C   UNL     1       4.566   4.176  17.290  0.00  0.00    +0.000 A 
ATOM     22  N   UNL     1       4.710   4.081  15.981  0.00  0.00    +0.000 NA
ATOM     23  N   UNL     1       6.074   4.102  15.746  0.00  0.00    +0.000 NA
ATOM     24  C   UNL     1       6.656   4.224  16.916  0.00  0.00    +0.000 A 
ATOM     25  N   UNL     1       7.943   4.375  17.242  0.00  0.00    +0.000 N 
ATOM     26  O   UNL     1       5.770   4.259  17.947  0.00  0.00    +0.000 OA
ATOM     27  H   UNL     1       8.558   4.655  16.487  0.00  0.00    +0.000 HD
ATOM     28  H   UNL     1       8.129   4.858  18.116  0.00  0.00    +0.000 HD
ENDBRANCH   9  21
TORSDOF 2
ENDMDL
MODEL 2
REMARK VINA RESULT:      -9.4      1.312      1.437
REMARK  Name = 
REMARK  3 active torsions:
REMARK  status: ('A' for Active; 'I' for Inactive)
REMARK    1  A    between atoms: C_1  and  N_2
REMARK    2  A    between atoms: C_3  and  C_4
REMARK    3  A    between atoms: C_12  and  C_13
REMARK                            x       y       z     vdW  Elec       q    Type
REMARK                         _______ _______ _______ _____ _____    ______ ____
ROOT
ATOM      1  C   UNL     1       2.111   8.441  18.347  0.00  0.00    +0.000 C 
ATOM      2  O   UNL     1       2.282   9.117  17.334  0.00  0.00    +0.000 OA
ATOM      3  N   UNL     1       2.749   7.214  18.469  0.00  0.00    +0.000 N 
ATOM      4  C   UNL     1       2.762   6.341  19.584  0.00  0.00    +0.000 C 
ATOM      5  C   UNL     1       3.754   5.279  19.161  0.00  0.00    +0.000 C 
ATOM      6  C   UNL     1       3.183   3.943  19.588  0.00  0.00    +0.000 C 
ATOM      7  O   UNL     1       4.007   3.020  18.922  0.00  0.00    +0.000 OA
ATOM      8  C   UNL     1       4.701   3.805  17.945  0.00  0.00    +0.000 C 
ATOM      9  C   UNL     1       3.867   5.165  17.586  0.00  0.00    +0.000 C 
ATOM     10  C   UNL     1       3.780   6.777  17.552  0.00  0.00    +0.000 C 
ENDROOT
BRANCH   1  13
ATOM     11  C   UNL     1      -0.194  10.515  18.161  0.00  0.00    +0.000 C 
ATOM     12  N   UNL     1       0.289   9.873  19.367  0.00  0.00    +0.000 N 
ATOM     13  C   UNL     1       1.280   8.903  19.458  0.00  0.00    +0.000 A 
ATOM     14  C   UNL     1       1.250   8.478  20.779  0.00  0.00    +0.000 A 
ATOM     15  C   UNL     1       0.424   9.343  21.533  0.00  0.00    +0.000 A 
ATOM     16  C   UNL     1       0.132   9.451  22.906  0.00  0.00    +0.000 A 
ATOM     17  C   UNL     1      -0.759  10.436  23.335  0.00  0.00    +0.000 A 
ATOM     18  C   UNL     1      -1.356  11.299  22.421  0.00  0.00    +0.000 A 
ATOM     19  C   UNL     1      -1.069  11.211  21.054  0.00  0.00    +0.000 A 
ATOM     20  C   UNL     1      -0.171  10.217  20.632  0.00  0.00    +0.000 A 
ENDBRANCH   1  13
BRANCH   9  21
ATOM     21  C   UNL     1       4.863   5.293  16.426  0.00  0.00    +0.000 A 
ATOM     22  N   UNL     1       5.689   6.255  16.056  0.00  0.00    +0.000 NA
ATOM     23  N   UNL     1       6.399   5.753  14.979  0.00  0.00    +0.000 NA
ATOM     24  C   UNL     1       5.969   4.528  14.782  0.00  0.00    +0.000 A 
ATOM     25  N   UNL     1       6.378   3.583  13.930  0.00  0.00    +0.000 N 
ATOM     26  O   UNL     1       4.983   4.167  15.647  0.00  0.00    +0.000 OA
ATOM     27  H   UNL     1       7.288   3.732  13.512  0.00  0.00    +0.000 HD
ATOM     28  H   UNL     1       6.216   2.623  14.217  0.00  0.00    +0.000 HD
ENDBRANCH   9  21
TORSDOF 2
ENDMDL
MODEL 3
REMARK VINA RESULT:      -8.7      1.437      1.752
REMARK  Name = 
REMARK  3 active torsions:
REMARK  status: ('A' for Active; 'I' for Inactive)
REMARK    1  A    between atoms: C_1  and  N_2
REMARK    2  A    between atoms: C_3  and  C_4
REMARK    3  A    between atoms: C_12  and  C_13
REMARK                            x       y       z     vdW  Elec       q    Type
REMARK                         _______ _______ _______ _____ _____    ______ ____
ROOT
ATOM      1  C   UNL     1       1.773   9.326  18.344  0.00  0.00    +0.000 C 
ATOM      2  O   UNL     1       2.205   9.866  17.327  0.00  0.00    +0.000 OA
ATOM      3  N   UNL     1       2.242   8.069  18.703  0.00  0.00    +0.000 N 
ATOM      4  C   UNL     1       1.950   7.329  19.876  0.00  0.00    +0.000 C 
ATOM      5  C   UNL     1       2.884   6.143  19.758  0.00  0.00    +0.000 C 
ATOM      6  C   UNL     1       2.103   4.919  20.187  0.00  0.00    +0.000 C 
ATOM      7  O   UNL     1       2.932   3.859  19.786  0.00  0.00    +0.000 OA
ATOM      8  C   UNL     1       3.879   4.465  18.897  0.00  0.00    +0.000 C 
ATOM      9  C   UNL     1       3.278   5.844  18.254  0.00  0.00    +0.000 C 
ATOM     10  C   UNL     1       3.374   7.444  18.054  0.00  0.00    +0.000 C 
ENDROOT
BRANCH   1  13
ATOM     11  C   UNL     1      -1.128  10.125  17.577  0.00  0.00    +0.000 C 
ATOM     12  N   UNL     1      -0.473  10.381  18.843  0.00  0.00    +0.000 N 
ATOM     13  C   UNL     1       0.804   9.981  19.220  0.00  0.00    +0.000 A 
ATOM     14  C   UNL     1       0.900  10.300  20.568  0.00  0.00    +0.000 A 
ATOM     15  C   UNL     1      -0.205  11.097  20.943  0.00  0.00    +0.000 A 
ATOM     16  C   UNL     1      -0.550  11.780  22.124  0.00  0.00    +0.000 A 
ATOM     17  C   UNL     1      -1.752  12.487  22.174  0.00  0.00    +0.000 A 
ATOM     18  C   UNL     1      -2.603  12.517  21.072  0.00  0.00    +0.000 A 
ATOM     19  C   UNL     1      -2.270  11.851  19.886  0.00  0.00    +0.000 A 
ATOM     20  C   UNL     1      -1.058  11.143  19.847  0.00  0.00    +0.000 A 
ENDBRANCH   1  13
BRANCH   9  21
ATOM     21  C   UNL     1       4.483   5.753  17.309  0.00  0.00    +0.000 A 
ATOM     22  N   UNL     1       4.808   6.403  16.206  0.00  0.00    +0.000 NA
ATOM     23  N   UNL     1       6.062   5.940  15.848  0.00  0.00    +0.000 NA
ATOM     24  C   UNL     1       6.414   5.062  16.758  0.00  0.00    +0.000 A 
ATOM     25  N   UNL     1       7.555   4.386  16.928  0.00  0.00    +0.000 N 
ATOM     26  O   UNL     1       5.460   4.873  17.708  0.00  0.00    +0.000 OA
ATOM     27  H   UNL     1       8.356   4.743  16.423  0.00  0.00    +0.000 HD
ATOM     28  H   UNL     1       7.768   4.103  17.880  0.00  0.00    +0.000 HD
ENDBRANCH   9  21
TORSDOF 2
ENDMDL
MODEL 4
REMARK VINA RESULT:      -8.7      2.465      7.909
REMARK  Name = 
REMARK  3 active torsions:
REMARK  status: ('A' for Active; 'I' for Inactive)
REMARK    1  A    between atoms: C_1  and  N_2
REMARK    2  A    between atoms: C_3  and  C_4
REMARK    3  A    between atoms: C_12  and  C_13
REMARK                            x       y       z     vdW  Elec       q    Type
REMARK                         _______ _______ _______ _____ _____    ______ ____
ROOT
ATOM      1  C   UNL     1       2.124   7.803  19.135  0.00  0.00    +0.000 C 
ATOM      2  O   UNL     1       2.390   8.248  18.019  0.00  0.00    +0.000 OA
ATOM      3  N   UNL     1       1.349   8.557  20.007  0.00  0.00    +0.000 N 
ATOM      4  C   UNL     1       0.854   8.185  21.280  0.00  0.00    +0.000 C 
ATOM      5  C   UNL     1      -0.044   9.350  21.638  0.00  0.00    +0.000 C 
ATOM      6  C   UNL     1       0.190   9.657  23.103  0.00  0.00    +0.000 C 
ATOM      7  O   UNL     1      -0.450  10.896  23.272  0.00  0.00    +0.000 OA
ATOM      8  C   UNL     1      -0.672  11.366  21.937  0.00  0.00    +0.000 C 
ATOM      9  C   UNL     1       0.383  10.680  20.891  0.00  0.00    +0.000 C 
ATOM     10  C   UNL     1       0.657   9.758  19.594  0.00  0.00    +0.000 C 
ENDROOT
BRANCH   1  13
ATOM     11  C   UNL     1       4.673   6.322  18.159  0.00  0.00    +0.000 C 
ATOM     12  N   UNL     1       3.681   5.808  19.079  0.00  0.00    +0.000 N 
ATOM     13  C   UNL     1       2.566   6.478  19.568  0.00  0.00    +0.000 A 
ATOM     14  C   UNL     1       2.039   5.643  20.543  0.00  0.00    +0.000 A 
ATOM     15  C   UNL     1       2.679   4.384  20.480  0.00  0.00    +0.000 A 
ATOM     16  C   UNL     1       2.470   3.158  21.138  0.00  0.00    +0.000 A 
ATOM     17  C   UNL     1       3.307   2.079  20.848  0.00  0.00    +0.000 A 
ATOM     18  C   UNL     1       4.340   2.213  19.924  0.00  0.00    +0.000 A 
ATOM     19  C   UNL     1       4.555   3.423  19.254  0.00  0.00    +0.000 A 
ATOM     20  C   UNL     1       3.706   4.502  19.552  0.00  0.00    +0.000 A 
ENDBRANCH   1  13
BRANCH   9  21
ATOM     21  C   UNL     1      -0.131  11.740  19.908  0.00  0.00    +0.000 A 
ATOM     22  N   UNL     1       0.082  13.038  19.799  0.00  0.00    +0.000 NA
ATOM     23  N   UNL     1      -0.590  13.439  18.657  0.00  0.00    +0.000 NA
ATOM     24  C   UNL     1      -1.144  12.362  18.148  0.00  0.00    +0.000 A 
ATOM     25  N   UNL     1      -1.828  12.182  17.015  0.00  0.00    +0.000 N 
ATOM     26  O   UNL     1      -0.915  11.247  18.893  0.00  0.00    +0.000 OA
ATOM     27  H   UNL     1      -1.737  12.917  16.325  0.00  0.00    +0.000 HD
ATOM     28  H   UNL     1      -1.797  11.247  16.619  0.00  0.00    +0.000 HD
ENDBRANCH   9  21
TORSDOF 2
ENDMDL
MODEL 5
REMARK VINA RESULT:      -8.7      1.541      1.921
REMARK  Name = 
REMARK  3 active torsions:
REMARK  status: ('A' for Active; 'I' for Inactive)
REMARK    1  A    between atoms: C_1  and  N_2
REMARK    2  A    between atoms: C_3  and  C_4
REMARK    3  A    between atoms: C_12  and  C_13
REMARK                            x       y       z     vdW  Elec       q    Type
REMARK                         _______ _______ _______ _____ _____    ______ ____
ROOT
ATOM      1  C   UNL     1       1.645   9.037  18.483  0.00  0.00    +0.000 C 
ATOM      2  O   UNL     1       2.147   9.448  17.438  0.00  0.00    +0.000 OA
ATOM      3  N   UNL     1       1.964   7.766  18.943  0.00  0.00    +0.000 N 
ATOM      4  C   UNL     1       1.576   7.154  20.160  0.00  0.00    +0.000 C 
ATOM      5  C   UNL     1       2.373   5.866  20.149  0.00  0.00    +0.000 C 
ATOM      6  C   UNL     1       1.453   4.772  20.649  0.00  0.00    +0.000 C 
ATOM      7  O   UNL     1       2.163   3.599  20.345  0.00  0.00    +0.000 OA
ATOM      8  C   UNL     1       3.183   4.028  19.435  0.00  0.00    +0.000 C 
ATOM      9  C   UNL     1       2.750   5.413  18.680  0.00  0.00    +0.000 C 
ATOM     10  C   UNL     1       3.027   6.972  18.365  0.00  0.00    +0.000 C 
ENDROOT
BRANCH   1  13
ATOM     11  C   UNL     1      -1.194   9.981  17.650  0.00  0.00    +0.000 C 
ATOM     12  N   UNL     1      -0.502  10.319  18.877  0.00  0.00    +0.000 N 
ATOM     13  C   UNL     1       0.743   9.860  19.288  0.00  0.00    +0.000 A 
ATOM     14  C   UNL     1       0.885  10.314  20.592  0.00  0.00    +0.000 A 
ATOM     15  C   UNL     1      -0.147  11.234  20.884  0.00  0.00    +0.000 A 
ATOM     16  C   UNL     1      -0.419  12.066  21.986  0.00  0.00    +0.000 A 
ATOM     17  C   UNL     1      -1.560  12.870  21.965  0.00  0.00    +0.000 A 
ATOM     18  C   UNL     1      -2.422  12.849  20.872  0.00  0.00    +0.000 A 
ATOM     19  C   UNL     1      -2.161  12.035  19.764  0.00  0.00    +0.000 A 
ATOM     20  C   UNL     1      -1.010  11.230  19.795  0.00  0.00    +0.000 A 
ENDBRANCH   1  13
BRANCH   9  21
ATOM     21  C   UNL     1       3.949   5.118  17.769  0.00  0.00    +0.000 A 
ATOM     22  N   UNL     1       4.701   4.046  17.598  0.00  0.00    +0.000 NA
ATOM     23  N   UNL     1       5.576   4.356  16.571  0.00  0.00    +0.000 NA
ATOM     24  C   UNL     1       5.285   5.576  16.183  0.00  0.00    +0.000 A 
ATOM     25  N   UNL     1       5.768   6.315  15.180  0.00  0.00    +0.000 N 
ATOM     26  O   UNL     1       4.277   6.135  16.906  0.00  0.00    +0.000 OA
ATOM     27  H   UNL     1       6.279   5.808  14.468  0.00  0.00    +0.000 HD
ATOM     28  H   UNL     1       5.143   7.022  14.805  0.00  0.00    +0.000 HD
ENDBRANCH   9  21
TORSDOF 2
ENDMDL
MODEL 6
REMARK VINA RESULT:      -8.5      1.445      1.707
REMARK  Name = 
REMARK  3 active torsions:
REMARK  status: ('A' for Active; 'I' for Inactive)
REMARK    1  A    between atoms: C_1  and  N_2
REMARK    2  A    between atoms: C_3  and  C_4
REMARK    3  A    between atoms: C_12  and  C_13
REMARK                            x       y       z     vdW  Elec       q    Type
REMARK                         _______ _______ _______ _____ _____    ______ ____
ROOT
ATOM      1  C   UNL     1       1.802   8.854  18.545  0.00  0.00    +0.000 C 
ATOM      2  O   UNL     1       2.148   9.226  17.424  0.00  0.00    +0.000 OA
ATOM      3  N   UNL     1       2.152   7.583  18.984  0.00  0.00    +0.000 N 
ATOM      4  C   UNL     1       1.940   7.011  20.261  0.00  0.00    +0.000 C 
ATOM      5  C   UNL     1       2.686   5.697  20.162  0.00  0.00    +0.000 C 
ATOM      6  C   UNL     1       1.823   4.645  20.827  0.00  0.00    +0.000 C 
ATOM      7  O   UNL     1       2.442   3.443  20.447  0.00  0.00    +0.000 OA
ATOM      8  C   UNL     1       3.320   3.818  19.379  0.00  0.00    +0.000 C 
ATOM      9  C   UNL     1       2.816   5.200  18.664  0.00  0.00    +0.000 C 
ATOM     10  C   UNL     1       3.087   6.742  18.269  0.00  0.00    +0.000 C 
ENDROOT
BRANCH   1  13
ATOM     11  C   UNL     1       1.834  11.959  18.532  0.00  0.00    +0.000 C 
ATOM     12  N   UNL     1       1.131  11.111  19.473  0.00  0.00    +0.000 N 
ATOM     13  C   UNL     1       1.062   9.724  19.458  0.00  0.00    +0.000 A 
ATOM     14  C   UNL     1       0.135   9.396  20.437  0.00  0.00    +0.000 A 
ATOM     15  C   UNL     1      -0.174  10.548  21.197  0.00  0.00    +0.000 A 
ATOM     16  C   UNL     1      -0.944  10.767  22.354  0.00  0.00    +0.000 A 
ATOM     17  C   UNL     1      -1.058  12.063  22.859  0.00  0.00    +0.000 A 
ATOM     18  C   UNL     1      -0.423  13.128  22.227  0.00  0.00    +0.000 A 
ATOM     19  C   UNL     1       0.354  12.926  21.080  0.00  0.00    +0.000 A 
ATOM     20  C   UNL     1       0.463  11.618  20.581  0.00  0.00    +0.000 A 
ENDBRANCH   1  13
BRANCH   9  21
ATOM     21  C   UNL     1       3.850   4.845  17.587  0.00  0.00    +0.000 A 
ATOM     22  N   UNL     1       4.267   3.695  17.091  0.00  0.00    +0.000 NA
ATOM     23  N   UNL     1       5.153   4.018  16.077  0.00  0.00    +0.000 NA
ATOM     24  C   UNL     1       5.198   5.329  16.019  0.00  0.00    +0.000 A 
ATOM     25  N   UNL     1       5.828   6.147  15.171  0.00  0.00    +0.000 N 
ATOM     26  O   UNL     1       4.414   5.927  16.955  0.00  0.00    +0.000 OA
ATOM     27  H   UNL     1       6.151   5.723  14.309  0.00  0.00    +0.000 HD
ATOM     28  H   UNL     1       5.410   7.063  15.040  0.00  0.00    +0.000 HD
ENDBRANCH   9  21
TORSDOF 2
ENDMDL
MODEL 7
REMARK VINA RESULT:      -8.5      1.475      1.776
REMARK  Name = 
REMARK  3 active torsions:
REMARK  status: ('A' for Active; 'I' for Inactive)
REMARK    1  A    between atoms: C_1  and  N_2
REMARK    2  A    between atoms: C_3  and  C_4
REMARK    3  A    between atoms: C_12  and  C_13
REMARK                            x       y       z     vdW  Elec       q    Type
REMARK                         _______ _______ _______ _____ _____    ______ ____
ROOT
ATOM      1  C   UNL     1       1.760   9.215  18.453  0.00  0.00    +0.000 C 
ATOM      2  O   UNL     1       2.034   9.679  17.347  0.00  0.00    +0.000 OA
ATOM      3  N   UNL     1       2.230   7.956  18.804  0.00  0.00    +0.000 N 
ATOM      4  C   UNL     1       2.111   7.296  20.051  0.00  0.00    +0.000 C 
ATOM      5  C   UNL     1       2.961   6.058  19.850  0.00  0.00    +0.000 C 
ATOM      6  C   UNL     1       2.213   4.900  20.477  0.00  0.00    +0.000 C 
ATOM      7  O   UNL     1       2.917   3.779  20.007  0.00  0.00    +0.000 OA
ATOM      8  C   UNL     1       3.723   4.288  18.937  0.00  0.00    +0.000 C 
ATOM      9  C   UNL     1       3.080   5.661  18.322  0.00  0.00    +0.000 C 
ATOM     10  C   UNL     1       3.207   7.241  18.013  0.00  0.00    +0.000 C 
ENDROOT
BRANCH   1  13
ATOM     11  C   UNL     1       1.641  12.308  18.712  0.00  0.00    +0.000 C 
ATOM     12  N   UNL     1       0.983  11.348  19.574  0.00  0.00    +0.000 N 
ATOM     13  C   UNL     1       0.982   9.965  19.438  0.00  0.00    +0.000 A 
ATOM     14  C   UNL     1       0.075   9.508  20.384  0.00  0.00    +0.000 A 
ATOM     15  C   UNL     1      -0.286  10.573  21.242  0.00  0.00    +0.000 A 
ATOM     16  C   UNL     1      -1.061  10.652  22.414  0.00  0.00    +0.000 A 
ATOM     17  C   UNL     1      -1.237  11.892  23.030  0.00  0.00    +0.000 A 
ATOM     18  C   UNL     1      -0.656  13.038  22.493  0.00  0.00    +0.000 A 
ATOM     19  C   UNL     1       0.125  12.975  21.334  0.00  0.00    +0.000 A 
ATOM     20  C   UNL     1       0.296  11.722  20.722  0.00  0.00    +0.000 A 
ENDBRANCH   1  13
BRANCH   9  21
ATOM     21  C   UNL     1       4.101   5.458  17.195  0.00  0.00    +0.000 A 
ATOM     22  N   UNL     1       4.766   6.301  16.427  0.00  0.00    +0.000 NA
ATOM     23  N   UNL     1       5.610   5.524  15.651  0.00  0.00    +0.000 NA
ATOM     24  C   UNL     1       5.411   4.277  16.012  0.00  0.00    +0.000 A 
ATOM     25  N   UNL     1       6.023   3.149  15.638  0.00  0.00    +0.000 N 
ATOM     26  O   UNL     1       4.457   4.149  16.972  0.00  0.00    +0.000 OA
ATOM     27  H   UNL     1       6.915   3.267  15.173  0.00  0.00    +0.000 HD
ATOM     28  H   UNL     1       6.015   2.392  16.314  0.00  0.00    +0.000 HD
ENDBRANCH   9  21
TORSDOF 2
ENDMDL
MODEL 8
REMARK VINA RESULT:      -8.4      2.324      8.329
REMARK  Name = 
REMARK  3 active torsions:
REMARK  status: ('A' for Active; 'I' for Inactive)
REMARK    1  A    between atoms: C_1  and  N_2
REMARK    2  A    between atoms: C_3  and  C_4
REMARK    3  A    between atoms: C_12  and  C_13
REMARK                            x       y       z     vdW  Elec       q    Type
REMARK                         _______ _______ _______ _____ _____    ______ ____
ROOT
ATOM      1  C   UNL     1       3.166   5.879  19.532  0.00  0.00    +0.000 C 
ATOM      2  O   UNL     1       3.062   5.293  20.609  0.00  0.00    +0.000 OA
ATOM      3  N   UNL     1       2.557   7.115  19.363  0.00  0.00    +0.000 N 
ATOM      4  C   UNL     1       2.640   7.986  18.249  0.00  0.00    +0.000 C 
ATOM      5  C   UNL     1       1.913   9.220  18.739  0.00  0.00    +0.000 C 
ATOM      6  C   UNL     1       1.055   9.714  17.593  0.00  0.00    +0.000 C 
ATOM      7  O   UNL     1       0.223  10.664  18.208  0.00  0.00    +0.000 OA
ATOM      8  C   UNL     1       0.377  10.415  19.611  0.00  0.00    +0.000 C 
ATOM      9  C   UNL     1       0.872   8.880  19.883  0.00  0.00    +0.000 C 
ATOM     10  C   UNL     1       1.977   7.856  20.462  0.00  0.00    +0.000 C 
ENDROOT
BRANCH   1  13
ATOM     11  C   UNL     1       6.257   5.599  19.443  0.00  0.00    +0.000 C 
ATOM     12  N   UNL     1       5.334   5.266  18.378  0.00  0.00    +0.000 N 
ATOM     13  C   UNL     1       3.947   5.333  18.423  0.00  0.00    +0.000 A 
ATOM     14  C   UNL     1       3.517   4.744  17.242  0.00  0.00    +0.000 A 
ATOM     15  C   UNL     1       4.625   4.542  16.387  0.00  0.00    +0.000 A 
ATOM     16  C   UNL     1       4.754   4.098  15.058  0.00  0.00    +0.000 A 
ATOM     17  C   UNL     1       6.027   3.998  14.495  0.00  0.00    +0.000 A 
ATOM     18  C   UNL     1       7.158   4.328  15.238  0.00  0.00    +0.000 A 
ATOM     19  C   UNL     1       7.046   4.780  16.558  0.00  0.00    +0.000 A 
ATOM     20  C   UNL     1       5.760   4.878  17.114  0.00  0.00    +0.000 A 
ENDBRANCH   1  13
BRANCH   9  21
ATOM     21  C   UNL     1       0.532   9.187  21.347  0.00  0.00    +0.000 A 
ATOM     22  N   UNL     1       1.148   8.922  22.484  0.00  0.00    +0.000 NA
ATOM     23  N   UNL     1       0.397   9.532  23.475  0.00  0.00    +0.000 NA
ATOM     24  C   UNL     1      -0.604  10.132  22.873  0.00  0.00    +0.000 A 
ATOM     25  N   UNL     1      -1.566  10.925  23.354  0.00  0.00    +0.000 N 
ATOM     26  O   UNL     1      -0.600   9.946  21.526  0.00  0.00    +0.000 OA
ATOM     27  H   UNL     1      -1.399  11.309  24.276  0.00  0.00    +0.000 HD
ATOM     28  H   UNL     1      -1.961  11.595  22.701  0.00  0.00    +0.000 HD
ENDBRANCH   9  21
TORSDOF 2
ENDMDL
MODEL 9
REMARK VINA RESULT:      -8.3      2.395      7.941
REMARK  Name = 
REMARK  3 active torsions:
REMARK  status: ('A' for Active; 'I' for Inactive)
REMARK    1  A    between atoms: C_1  and  N_2
REMARK    2  A    between atoms: C_3  and  C_4
REMARK    3  A    between atoms: C_12  and  C_13
REMARK                            x       y       z     vdW  Elec       q    Type
REMARK                         _______ _______ _______ _____ _____    ______ ____
ROOT
ATOM      1  C   UNL     1       2.206   8.044  18.462  0.00  0.00    +0.000 C 
ATOM      2  O   UNL     1       2.465   8.694  17.451  0.00  0.00    +0.000 OA
ATOM      3  N   UNL     1       1.535   8.652  19.515  0.00  0.00    +0.000 N 
ATOM      4  C   UNL     1       1.060   8.057  20.709  0.00  0.00    +0.000 C 
ATOM      5  C   UNL     1       0.281   9.184  21.353  0.00  0.00    +0.000 C 
ATOM      6  C   UNL     1       0.599   9.155  22.833  0.00  0.00    +0.000 C 
ATOM      7  O   UNL     1       0.075  10.374  23.293  0.00  0.00    +0.000 OA
ATOM      8  C   UNL     1      -0.158  11.133  22.099  0.00  0.00    +0.000 C 
ATOM      9  C   UNL     1       0.791  10.606  20.876  0.00  0.00    +0.000 C 
ATOM     10  C   UNL     1       0.932   9.962  19.402  0.00  0.00    +0.000 C 
ENDROOT
BRANCH   1  13
ATOM     11  C   UNL     1       4.569   6.611  17.045  0.00  0.00    +0.000 C 
ATOM     12  N   UNL     1       3.578   5.992  17.899  0.00  0.00    +0.000 N 
ATOM     13  C   UNL     1       2.549   6.628  18.584  0.00  0.00    +0.000 A 
ATOM     14  C   UNL     1       1.996   5.648  19.397  0.00  0.00    +0.000 A 
ATOM     15  C   UNL     1       2.519   4.386  19.035  0.00  0.00    +0.000 A 
ATOM     16  C   UNL     1       2.232   3.068  19.438  0.00  0.00    +0.000 A 
ATOM     17  C   UNL     1       2.958   2.014  18.880  0.00  0.00    +0.000 A 
ATOM     18  C   UNL     1       3.956   2.260  17.940  0.00  0.00    +0.000 A 
ATOM     19  C   UNL     1       4.246   3.564  17.523  0.00  0.00    +0.000 A 
ATOM     20  C   UNL     1       3.510   4.617  18.090  0.00  0.00    +0.000 A 
ENDBRANCH   1  13
BRANCH   9  21
ATOM     21  C   UNL     1       0.332  11.886  20.166  0.00  0.00    +0.000 A 
ATOM     22  N   UNL     1       0.484  13.168  20.443  0.00  0.00    +0.000 NA
ATOM     23  N   UNL     1      -0.078  13.856  19.382  0.00  0.00    +0.000 NA
ATOM     24  C   UNL     1      -0.513  12.952  18.534  0.00  0.00    +0.000 A 
ATOM     25  N   UNL     1      -1.056  13.079  17.320  0.00  0.00    +0.000 N 
ATOM     26  O   UNL     1      -0.307  11.679  18.967  0.00  0.00    +0.000 OA
ATOM     27  H   UNL     1      -0.929  13.980  16.875  0.00  0.00    +0.000 HD
ATOM     28  H   UNL     1      -0.930  12.293  16.690  0.00  0.00    +0.000 HD
ENDBRANCH   9  21
TORSDOF 2
ENDMDL
