MODEL 1
REMARK VINA RESULT:      -8.9      0.000      0.000
REMARK  Name = 
REMARK  5 active torsions:
REMARK  status: ('A' for Active; 'I' for Inactive)
REMARK    1  A    between atoms: C_2  and  C_17
REMARK    2  A    between atoms: N_3  and  C_4
REMARK    3  A    between atoms: C_4  and  C_5
REMARK    4  A    between atoms: C_8  and  C_9
REMARK    5  A    between atoms: C_9  and  N_10
REMARK                            x       y       z     vdW  Elec       q    Type
REMARK                         _______ _______ _______ _____ _____    ______ ____
ROOT
ATOM      1  O   UNL     1       8.270   6.744  18.843  0.00  0.00    +0.000 OA
ATOM      2  C   UNL     1       8.008   7.642  18.051  0.00  0.00    +0.000 C 
ATOM      3  N   UNL     1       7.353   7.427  16.866  0.00  0.00    +0.000 N 
ATOM      4  H   UNL     1       7.188   8.198  16.238  0.00  0.00    +0.000 HD
ENDROOT
BRANCH   2   5
ATOM      5  C   UNL     1       8.409   9.013  18.296  0.00  0.00    +0.000 A 
ATOM      6  C   UNL     1       8.247  10.184  17.574  0.00  0.00    +0.000 A 
ATOM      7  C   UNL     1       8.974  11.219  18.228  0.00  0.00    +0.000 A 
ATOM      8  C   UNL     1       9.240  12.569  17.927  0.00  0.00    +0.000 A 
ATOM      9  C   UNL     1      10.078  13.296  18.777  0.00  0.00    +0.000 A 
ATOM     10 CL   UNL     1      10.470  14.927  18.381  0.00  0.00    +0.000 Cl
ATOM     11  C   UNL     1      10.620  12.720  19.924  0.00  0.00    +0.000 A 
ATOM     12  C   UNL     1      10.336  11.393  20.261  0.00  0.00    +0.000 A 
ATOM     13  C   UNL     1       9.522  10.667  19.384  0.00  0.00    +0.000 A 
ATOM     14  N   UNL     1       9.113   9.355  19.433  0.00  0.00    +0.000 N 
ATOM     15  H   UNL     1       9.355   8.693  20.157  0.00  0.00    +0.000 HD
ENDBRANCH   2   5
BRANCH   3  16
ATOM     16  C   UNL     1       6.956   6.109  16.425  0.00  0.00    +0.000 C 
BRANCH  16  17
ATOM     17  C   UNL     1       5.602   5.731  16.968  0.00  0.00    +0.000 A 
ATOM     18  C   UNL     1       5.250   4.390  17.167  0.00  0.00    +0.000 A 
ATOM     19  C   UNL     1       4.000   4.052  17.699  0.00  0.00    +0.000 A 
ATOM     20  C   UNL     1       3.075   5.050  18.039  0.00  0.00    +0.000 A 
ATOM     21  C   UNL     1       3.431   6.391  17.846  0.00  0.00    +0.000 A 
ATOM     22  C   UNL     1       4.679   6.727  17.316  0.00  0.00    +0.000 A 
BRANCH  20  23
ATOM     23  C   UNL     1       1.720   4.688  18.593  0.00  0.00    +0.000 C 
BRANCH  23  24
ATOM     24  N   UNL     1       1.805   3.952  19.842  0.00  0.00    +0.000 N 
ATOM     25  C   UNL     1       1.201   2.756  20.123  0.00  0.00    +0.000 A 
ATOM     26  C   UNL     1       1.438   2.544  21.461  0.00  0.00    +0.000 A 
ATOM     27  N   UNL     1       2.168   3.575  21.995  0.00  0.00    +0.000 NA
ATOM     28  C   UNL     1       2.375   4.406  20.998  0.00  0.00    +0.000 A 
ENDBRANCH  23  24
ENDBRANCH  20  23
ENDBRANCH  16  17
ENDBRANCH   3  16
TORSDOF 5
ENDMDL
MODEL 2
REMARK VINA RESULT:      -8.8      0.420      1.200
REMARK  Name = 
REMARK  5 active torsions:
REMARK  status: ('A' for Active; 'I' for Inactive)
REMARK    1  A    between atoms: C_2  and  C_17
REMARK    2  A    between atoms: N_3  and  C_4
REMARK    3  A    between atoms: C_4  and  C_5
REMARK    4  A    between atoms: C_8  and  C_9
REMARK    5  A    between atoms: C_9  and  N_10
REMARK                            x       y       z     vdW  Elec       q    Type
REMARK                         _______ _______ _______ _____ _____    ______ ____
ROOT
ATOM      1  O   UNL     1       8.284   6.764  18.905  0.00  0.00    +0.000 OA
ATOM      2  C   UNL     1       8.038   7.647  18.092  0.00  0.00    +0.000 C 
ATOM      3  N   UNL     1       7.415   7.410  16.894  0.00  0.00    +0.000 N 
ATOM      4  H   UNL     1       7.263   8.170  16.250  0.00  0.00    +0.000 HD
ENDROOT
BRANCH   2   5
ATOM      5  C   UNL     1       8.425   9.024  18.326  0.00  0.00    +0.000 A 
ATOM      6  C   UNL     1       8.299  10.178  17.571  0.00  0.00    +0.000 A 
ATOM      7  C   UNL     1       8.991  11.230  18.236  0.00  0.00    +0.000 A 
ATOM      8  C   UNL     1       9.270  12.573  17.918  0.00  0.00    +0.000 A 
ATOM      9  C   UNL     1      10.065  13.320  18.792  0.00  0.00    +0.000 A 
ATOM     10 CL   UNL     1      10.475  14.942  18.379  0.00  0.00    +0.000 Cl
ATOM     11  C   UNL     1      10.549  12.772  19.978  0.00  0.00    +0.000 A 
ATOM     12  C   UNL     1      10.250  11.452  20.330  0.00  0.00    +0.000 A 
ATOM     13  C   UNL     1       9.481  10.705  19.430  0.00  0.00    +0.000 A 
ATOM     14  N   UNL     1       9.071   9.394  19.488  0.00  0.00    +0.000 N 
ATOM     15  H   UNL     1       9.277   8.749  20.239  0.00  0.00    +0.000 HD
ENDBRANCH   2   5
BRANCH   3  16
ATOM     16  C   UNL     1       7.037   6.083  16.464  0.00  0.00    +0.000 C 
BRANCH  16  17
ATOM     17  C   UNL     1       5.655   5.721  16.946  0.00  0.00    +0.000 A 
ATOM     18  C   UNL     1       4.720   6.710  17.276  0.00  0.00    +0.000 A 
ATOM     19  C   UNL     1       3.432   6.362  17.694  0.00  0.00    +0.000 A 
ATOM     20  C   UNL     1       3.052   5.016  17.797  0.00  0.00    +0.000 A 
ATOM     21  C   UNL     1       3.986   4.026  17.461  0.00  0.00    +0.000 A 
ATOM     22  C   UNL     1       5.272   4.376  17.041  0.00  0.00    +0.000 A 
BRANCH  20  23
ATOM     23  C   UNL     1       1.670   4.638  18.267  0.00  0.00    +0.000 C 
BRANCH  23  24
ATOM     24  N   UNL     1       1.674   4.035  19.588  0.00  0.00    +0.000 N 
ATOM     25  C   UNL     1       2.201   4.580  20.728  0.00  0.00    +0.000 A 
ATOM     26  C   UNL     1       2.110   3.584  21.672  0.00  0.00    +0.000 A 
ATOM     27  N   UNL     1       1.544   2.456  21.136  0.00  0.00    +0.000 NA
ATOM     28  C   UNL     1       1.290   2.757  19.882  0.00  0.00    +0.000 A 
ENDBRANCH  23  24
ENDBRANCH  20  23
ENDBRANCH  16  17
ENDBRANCH   3  16
TORSDOF 5
ENDMDL
MODEL 3
REMARK VINA RESULT:      -8.3      1.084      1.607
REMARK  Name = 
REMARK  5 active torsions:
REMARK  status: ('A' for Active; 'I' for Inactive)
REMARK    1  A    between atoms: C_2  and  C_17
REMARK    2  A    between atoms: N_3  and  C_4
REMARK    3  A    between atoms: C_4  and  C_5
REMARK    4  A    between atoms: C_8  and  C_9
REMARK    5  A    between atoms: C_9  and  N_10
REMARK                            x       y       z     vdW  Elec       q    Type
REMARK                         _______ _______ _______ _____ _____    ______ ____
ROOT
ATOM      1  O   UNL     1       8.579   7.267  18.914  0.00  0.00    +0.000 OA
ATOM      2  C   UNL     1       8.203   8.226  18.249  0.00  0.00    +0.000 C 
ATOM      3  N   UNL     1       7.297   8.119  17.226  0.00  0.00    +0.000 N 
ATOM      4  H   UNL     1       7.045   8.936  16.693  0.00  0.00    +0.000 HD
ENDROOT
BRANCH   2   5
ATOM      5  C   UNL     1       8.725   9.559  18.476  0.00  0.00    +0.000 A 
ATOM      6  C   UNL     1       8.749  10.705  17.699  0.00  0.00    +0.000 A 
ATOM      7  C   UNL     1       9.523  11.691  18.374  0.00  0.00    +0.000 A 
ATOM      8  C   UNL     1       9.954  12.991  18.046  0.00  0.00    +0.000 A 
ATOM      9  C   UNL     1      10.791  13.668  18.938  0.00  0.00    +0.000 A 
ATOM     10 CL   UNL     1      11.384  15.230  18.517  0.00  0.00    +0.000 Cl
ATOM     11  C   UNL     1      11.170  13.095  20.151  0.00  0.00    +0.000 A 
ATOM     12  C   UNL     1      10.720  11.821  20.512  0.00  0.00    +0.000 A 
ATOM     13  C   UNL     1       9.911  11.141  19.594  0.00  0.00    +0.000 A 
ATOM     14  N   UNL     1       9.363   9.882  19.657  0.00  0.00    +0.000 N 
ATOM     15  H   UNL     1       9.472   9.233  20.425  0.00  0.00    +0.000 HD
ENDBRANCH   2   5
BRANCH   3  16
ATOM     16  C   UNL     1       6.741   6.851  16.810  0.00  0.00    +0.000 C 
BRANCH  16  17
ATOM     17  C   UNL     1       5.511   6.501  17.609  0.00  0.00    +0.000 A 
ATOM     18  C   UNL     1       4.281   7.119  17.352  0.00  0.00    +0.000 A 
ATOM     19  C   UNL     1       3.140   6.765  18.080  0.00  0.00    +0.000 A 
ATOM     20  C   UNL     1       3.207   5.788  19.085  0.00  0.00    +0.000 A 
ATOM     21  C   UNL     1       4.437   5.166  19.337  0.00  0.00    +0.000 A 
ATOM     22  C   UNL     1       5.575   5.520  18.607  0.00  0.00    +0.000 A 
BRANCH  20  23
ATOM     23  C   UNL     1       1.984   5.420  19.885  0.00  0.00    +0.000 C 
BRANCH  23  24
ATOM     24  N   UNL     1       1.509   4.078  19.597  0.00  0.00    +0.000 N 
ATOM     25  C   UNL     1       1.474   3.024  20.470  0.00  0.00    +0.000 A 
ATOM     26  C   UNL     1       1.105   1.942  19.705  0.00  0.00    +0.000 A 
ATOM     27  N   UNL     1       0.915   2.312  18.398  0.00  0.00    +0.000 NA
ATOM     28  C   UNL     1       1.164   3.602  18.363  0.00  0.00    +0.000 A 
ENDBRANCH  23  24
ENDBRANCH  20  23
ENDBRANCH  16  17
ENDBRANCH   3  16
TORSDOF 5
ENDMDL
MODEL 4
REMARK VINA RESULT:      -8.0      1.104      1.273
REMARK  Name = 
REMARK  5 active torsions:
REMARK  status: ('A' for Active; 'I' for Inactive)
REMARK    1  A    between atoms: C_2  and  C_17
REMARK    2  A    between atoms: N_3  and  C_4
REMARK    3  A    between atoms: C_4  and  C_5
REMARK    4  A    between atoms: C_8  and  C_9
REMARK    5  A    between atoms: C_9  and  N_10
REMARK                            x       y       z     vdW  Elec       q    Type
REMARK                         _______ _______ _______ _____ _____    ______ ____
ROOT
ATOM      1  O   UNL     1       8.603   7.354  18.999  0.00  0.00    +0.000 OA
ATOM      2  C   UNL     1       8.276   8.298  18.291  0.00  0.00    +0.000 C 
ATOM      3  N   UNL     1       7.455   8.167  17.200  0.00  0.00    +0.000 N 
ATOM      4  H   UNL     1       7.241   8.974  16.635  0.00  0.00    +0.000 HD
ENDROOT
BRANCH   2   5
ATOM      5  C   UNL     1       8.769   9.639  18.536  0.00  0.00    +0.000 A 
ATOM      6  C   UNL     1       8.727  10.807  17.793  0.00  0.00    +0.000 A 
ATOM      7  C   UNL     1       9.502  11.795  18.464  0.00  0.00    +0.000 A 
ATOM      8  C   UNL     1       9.882  13.116  18.157  0.00  0.00    +0.000 A 
ATOM      9  C   UNL     1      10.737  13.791  19.033  0.00  0.00    +0.000 A 
ATOM     10 CL   UNL     1      11.268  15.381  18.634  0.00  0.00    +0.000 Cl
ATOM     11  C   UNL     1      11.185  13.195  20.210  0.00  0.00    +0.000 A 
ATOM     12  C   UNL     1      10.787  11.898  20.551  0.00  0.00    +0.000 A 
ATOM     13  C   UNL     1       9.958  11.221  19.649  0.00  0.00    +0.000 A 
ATOM     14  N   UNL     1       9.449   9.946  19.697  0.00  0.00    +0.000 N 
ATOM     15  H   UNL     1       9.609   9.278  20.439  0.00  0.00    +0.000 HD
ENDBRANCH   2   5
BRANCH   3  16
ATOM     16  C   UNL     1       6.942   6.888  16.763  0.00  0.00    +0.000 C 
BRANCH  16  17
ATOM     17  C   UNL     1       5.706   6.499  17.533  0.00  0.00    +0.000 A 
ATOM     18  C   UNL     1       5.767   5.570  18.580  0.00  0.00    +0.000 A 
ATOM     19  C   UNL     1       4.618   5.238  19.306  0.00  0.00    +0.000 A 
ATOM     20  C   UNL     1       3.382   5.826  18.998  0.00  0.00    +0.000 A 
ATOM     21  C   UNL     1       3.323   6.760  17.955  0.00  0.00    +0.000 A 
ATOM     22  C   UNL     1       4.472   7.091  17.231  0.00  0.00    +0.000 A 
BRANCH  20  23
ATOM     23  C   UNL     1       2.139   5.454  19.766  0.00  0.00    +0.000 C 
BRANCH  23  24
ATOM     24  N   UNL     1       1.758   4.066  19.576  0.00  0.00    +0.000 N 
ATOM     25  C   UNL     1       1.125   3.540  18.483  0.00  0.00    +0.000 A 
ATOM     26  C   UNL     1       0.835   2.241  18.831  0.00  0.00    +0.000 A 
ATOM     27  N   UNL     1       1.276   1.968  20.101  0.00  0.00    +0.000 NA
ATOM     28  C   UNL     1       1.828   3.084  20.524  0.00  0.00    +0.000 A 
ENDBRANCH  23  24
ENDBRANCH  20  23
ENDBRANCH  16  17
ENDBRANCH   3  16
TORSDOF 5
ENDMDL
MODEL 5
REMARK VINA RESULT:      -8.0      0.774      1.293
REMARK  Name = 
REMARK  5 active torsions:
REMARK  status: ('A' for Active; 'I' for Inactive)
REMARK    1  A    between atoms: C_2  and  C_17
REMARK    2  A    between atoms: N_3  and  C_4
REMARK    3  A    between atoms: C_4  and  C_5
REMARK    4  A    between atoms: C_8  and  C_9
REMARK    5  A    between atoms: C_9  and  N_10
REMARK                            x       y       z     vdW  Elec       q    Type
REMARK                         _______ _______ _______ _____ _____    ______ ____
ROOT
ATOM      1  O   UNL     1       8.159   6.800  18.884  0.00  0.00    +0.000 OA
ATOM      2  C   UNL     1       7.993   7.677  18.045  0.00  0.00    +0.000 C 
ATOM      3  N   UNL     1       7.405   7.448  16.828  0.00  0.00    +0.000 N 
ATOM      4  H   UNL     1       7.319   8.201  16.163  0.00  0.00    +0.000 HD
ENDROOT
BRANCH   2   5
ATOM      5  C   UNL     1       8.446   9.036  18.266  0.00  0.00    +0.000 A 
ATOM      6  C   UNL     1       9.251   9.613  19.234  0.00  0.00    +0.000 A 
ATOM      7  C   UNL     1       9.245  11.024  19.043  0.00  0.00    +0.000 A 
ATOM      8  C   UNL     1       9.800  12.110  19.747  0.00  0.00    +0.000 A 
ATOM      9  C   UNL     1       9.523  13.408  19.308  0.00  0.00    +0.000 A 
ATOM     10 CL   UNL     1      10.136  14.747  20.202  0.00  0.00    +0.000 Cl
ATOM     11  C   UNL     1       8.746  13.639  18.176  0.00  0.00    +0.000 A 
ATOM     12  C   UNL     1       8.218  12.572  17.441  0.00  0.00    +0.000 A 
ATOM     13  C   UNL     1       8.474  11.278  17.910  0.00  0.00    +0.000 A 
ATOM     14  N   UNL     1       8.060  10.060  17.426  0.00  0.00    +0.000 N 
ATOM     15  H   UNL     1       7.479   9.921  16.611  0.00  0.00    +0.000 HD
ENDBRANCH   2   5
BRANCH   3  16
ATOM     16  C   UNL     1       6.971   6.134  16.409  0.00  0.00    +0.000 C 
BRANCH  16  17
ATOM     17  C   UNL     1       5.617   5.793  16.978  0.00  0.00    +0.000 A 
ATOM     18  C   UNL     1       5.246   4.464  17.220  0.00  0.00    +0.000 A 
ATOM     19  C   UNL     1       3.998   4.163  17.775  0.00  0.00    +0.000 A 
ATOM     20  C   UNL     1       3.093   5.185  18.097  0.00  0.00    +0.000 A 
ATOM     21  C   UNL     1       3.467   6.514  17.861  0.00  0.00    +0.000 A 
ATOM     22  C   UNL     1       4.715   6.814  17.307  0.00  0.00    +0.000 A 
BRANCH  20  23
ATOM     23  C   UNL     1       1.739   4.861  18.676  0.00  0.00    +0.000 C 
BRANCH  23  24
ATOM     24  N   UNL     1       1.823   4.037  19.869  0.00  0.00    +0.000 N 
ATOM     25  C   UNL     1       1.266   2.799  20.042  0.00  0.00    +0.000 A 
ATOM     26  C   UNL     1       1.477   2.497  21.368  0.00  0.00    +0.000 A 
ATOM     27  N   UNL     1       2.145   3.515  21.998  0.00  0.00    +0.000 NA
ATOM     28  C   UNL     1       2.341   4.427  21.072  0.00  0.00    +0.000 A 
ENDBRANCH  23  24
ENDBRANCH  20  23
ENDBRANCH  16  17
ENDBRANCH   3  16
TORSDOF 5
ENDMDL
MODEL 6
REMARK VINA RESULT:      -7.9      7.508      9.892
REMARK  Name = 
REMARK  5 active torsions:
REMARK  status: ('A' for Active; 'I' for Inactive)
REMARK    1  A    between atoms: C_2  and  C_17
REMARK    2  A    between atoms: N_3  and  C_4
REMARK    3  A    between atoms: C_4  and  C_5
REMARK    4  A    between atoms: C_8  and  C_9
REMARK    5  A    between atoms: C_9  and  N_10
REMARK                            x       y       z     vdW  Elec       q    Type
REMARK                         _______ _______ _______ _____ _____    ______ ____
ROOT
ATOM      1  O   UNL     1       2.328  10.271  17.869  0.00  0.00    +0.000 OA
ATOM      2  C   UNL     1       1.613   9.442  18.419  0.00  0.00    +0.000 C 
ATOM      3  N   UNL     1       0.387   9.746  18.954  0.00  0.00    +0.000 N 
ATOM      4  H   UNL     1      -0.147   9.030  19.421  0.00  0.00    +0.000 HD
ENDROOT
BRANCH   2   5
ATOM      5  C   UNL     1       2.033   8.064  18.581  0.00  0.00    +0.000 A 
ATOM      6  C   UNL     1       2.453   7.097  17.682  0.00  0.00    +0.000 A 
ATOM      7  C   UNL     1       2.604   5.867  18.383  0.00  0.00    +0.000 A 
ATOM      8  C   UNL     1       2.921   4.551  17.994  0.00  0.00    +0.000 A 
ATOM      9  C   UNL     1       2.909   3.542  18.961  0.00  0.00    +0.000 A 
ATOM     10 CL   UNL     1       3.224   1.916  18.486  0.00  0.00    +0.000 Cl
ATOM     11  C   UNL     1       2.625   3.822  20.296  0.00  0.00    +0.000 A 
ATOM     12  C   UNL     1       2.346   5.129  20.709  0.00  0.00    +0.000 A 
ATOM     13  C   UNL     1       2.329   6.125  19.725  0.00  0.00    +0.000 A 
ATOM     14  N   UNL     1       2.051   7.467  19.825  0.00  0.00    +0.000 N 
ATOM     15  H   UNL     1       1.810   7.953  20.678  0.00  0.00    +0.000 HD
ENDBRANCH   2   5
BRANCH   3  16
ATOM     16  C   UNL     1      -0.148  11.089  18.955  0.00  0.00    +0.000 C 
BRANCH  16  17
ATOM     17  C   UNL     1      -1.630  11.091  18.684  0.00  0.00    +0.000 A 
ATOM     18  C   UNL     1      -2.480  12.013  19.310  0.00  0.00    +0.000 A 
ATOM     19  C   UNL     1      -3.850  12.024  19.029  0.00  0.00    +0.000 A 
ATOM     20  C   UNL     1      -4.401  11.110  18.119  0.00  0.00    +0.000 A 
ATOM     21  C   UNL     1      -3.550  10.193  17.488  0.00  0.00    +0.000 A 
ATOM     22  C   UNL     1      -2.181  10.184  17.769  0.00  0.00    +0.000 A 
BRANCH  20  23
ATOM     23  C   UNL     1      -5.881  11.107  17.830  0.00  0.00    +0.000 C 
BRANCH  23  24
ATOM     24  N   UNL     1      -6.676  10.734  18.986  0.00  0.00    +0.000 N 
ATOM     25  C   UNL     1      -7.274  11.590  19.871  0.00  0.00    +0.000 A 
ATOM     26  C   UNL     1      -7.768  10.781  20.869  0.00  0.00    +0.000 A 
ATOM     27  N   UNL     1      -7.488   9.464  20.610  0.00  0.00    +0.000 NA
ATOM     28  C   UNL     1      -6.832   9.466  19.471  0.00  0.00    +0.000 A 
ENDBRANCH  23  24
ENDBRANCH  20  23
ENDBRANCH  16  17
ENDBRANCH   3  16
TORSDOF 5
ENDMDL
MODEL 7
REMARK VINA RESULT:      -7.9      7.309      9.715
REMARK  Name = 
REMARK  5 active torsions:
REMARK  status: ('A' for Active; 'I' for Inactive)
REMARK    1  A    between atoms: C_2  and  C_17
REMARK    2  A    between atoms: N_3  and  C_4
REMARK    3  A    between atoms: C_4  and  C_5
REMARK    4  A    between atoms: C_8  and  C_9
REMARK    5  A    between atoms: C_9  and  N_10
REMARK                            x       y       z     vdW  Elec       q    Type
REMARK                         _______ _______ _______ _____ _____    ______ ____
ROOT
ATOM      1  O   UNL     1       2.198   9.801  17.426  0.00  0.00    +0.000 OA
ATOM      2  C   UNL     1       1.737   9.135  18.345  0.00  0.00    +0.000 C 
ATOM      3  N   UNL     1       0.800   9.617  19.222  0.00  0.00    +0.000 N 
ATOM      4  H   UNL     1       0.476   9.035  19.978  0.00  0.00    +0.000 HD
ENDROOT
BRANCH   2   5
ATOM      5  C   UNL     1       2.183   7.780  18.600  0.00  0.00    +0.000 A 
ATOM      6  C   UNL     1       2.797   6.826  17.804  0.00  0.00    +0.000 A 
ATOM      7  C   UNL     1       2.876   5.610  18.540  0.00  0.00    +0.000 A 
ATOM      8  C   UNL     1       3.315   4.308  18.234  0.00  0.00    +0.000 A 
ATOM      9  C   UNL     1       3.177   3.306  19.199  0.00  0.00    +0.000 A 
ATOM     10 CL   UNL     1       3.643   1.693  18.812  0.00  0.00    +0.000 Cl
ATOM     11  C   UNL     1       2.650   3.583  20.459  0.00  0.00    +0.000 A 
ATOM     12  C   UNL     1       2.245   4.879  20.795  0.00  0.00    +0.000 A 
ATOM     13  C   UNL     1       2.357   5.865  19.808  0.00  0.00    +0.000 A 
ATOM     14  N   UNL     1       2.007   7.194  19.837  0.00  0.00    +0.000 N 
ATOM     15  H   UNL     1       1.598   7.675  20.626  0.00  0.00    +0.000 HD
ENDBRANCH   2   5
BRANCH   3  16
ATOM     16  C   UNL     1       0.308  10.975  19.165  0.00  0.00    +0.000 C 
BRANCH  16  17
ATOM     17  C   UNL     1      -1.143  11.019  18.757  0.00  0.00    +0.000 A 
ATOM     18  C   UNL     1      -1.653  10.134  17.799  0.00  0.00    +0.000 A 
ATOM     19  C   UNL     1      -3.007  10.165  17.450  0.00  0.00    +0.000 A 
ATOM     20  C   UNL     1      -3.879  11.086  18.049  0.00  0.00    +0.000 A 
ATOM     21  C   UNL     1      -3.369  11.967  19.012  0.00  0.00    +0.000 A 
ATOM     22  C   UNL     1      -2.016  11.934  19.360  0.00  0.00    +0.000 A 
BRANCH  20  23
ATOM     23  C   UNL     1      -5.335  11.135  17.659  0.00  0.00    +0.000 C 
BRANCH  23  24
ATOM     24  N   UNL     1      -6.223  10.882  18.779  0.00  0.00    +0.000 N 
ATOM     25  C   UNL     1      -6.726  11.816  19.645  0.00  0.00    +0.000 A 
ATOM     26  C   UNL     1      -7.373  11.088  20.616  0.00  0.00    +0.000 A 
ATOM     27  N   UNL     1      -7.277   9.744  20.362  0.00  0.00    +0.000 NA
ATOM     28  C   UNL     1      -6.582   9.650  19.250  0.00  0.00    +0.000 A 
ENDBRANCH  23  24
ENDBRANCH  20  23
ENDBRANCH  16  17
ENDBRANCH   3  16
TORSDOF 5
ENDMDL
MODEL 8
REMARK VINA RESULT:      -7.9      7.383     10.001
REMARK  Name = 
REMARK  5 active torsions:
REMARK  status: ('A' for Active; 'I' for Inactive)
REMARK    1  A    between atoms: C_2  and  C_17
REMARK    2  A    between atoms: N_3  and  C_4
REMARK    3  A    between atoms: C_4  and  C_5
REMARK    4  A    between atoms: C_8  and  C_9
REMARK    5  A    between atoms: C_9  and  N_10
REMARK                            x       y       z     vdW  Elec       q    Type
REMARK                         _______ _______ _______ _____ _____    ______ ____
ROOT
ATOM      1  O   UNL     1       1.210   9.023  21.553  0.00  0.00    +0.000 OA
ATOM      2  C   UNL     1       1.420   8.621  20.415  0.00  0.00    +0.000 C 
ATOM      3  N   UNL     1       1.190   9.380  19.297  0.00  0.00    +0.000 N 
ATOM      4  H   UNL     1       1.354   8.988  18.383  0.00  0.00    +0.000 HD
ENDROOT
BRANCH   2   5
ATOM      5  C   UNL     1       1.902   7.277  20.161  0.00  0.00    +0.000 A 
ATOM      6  C   UNL     1       2.526   6.691  19.072  0.00  0.00    +0.000 A 
ATOM      7  C   UNL     1       2.646   5.294  19.321  0.00  0.00    +0.000 A 
ATOM      8  C   UNL     1       3.111   4.202  18.563  0.00  0.00    +0.000 A 
ATOM      9  C   UNL     1       3.011   2.917  19.104  0.00  0.00    +0.000 A 
ATOM     10 CL   UNL     1       3.509   1.564  18.159  0.00  0.00    +0.000 Cl
ATOM     11  C   UNL     1       2.498   2.707  20.382  0.00  0.00    +0.000 A 
ATOM     12  C   UNL     1       2.067   3.783  21.165  0.00  0.00    +0.000 A 
ATOM     13  C   UNL     1       2.141   5.061  20.598  0.00  0.00    +0.000 A 
ATOM     14  N   UNL     1       1.760   6.281  21.106  0.00  0.00    +0.000 N 
ATOM     15  H   UNL     1       1.352   6.434  22.018  0.00  0.00    +0.000 HD
ENDBRANCH   2   5
BRANCH   3  16
ATOM     16  C   UNL     1       0.631  10.711  19.363  0.00  0.00    +0.000 C 
BRANCH  16  17
ATOM     17  C   UNL     1      -0.672  10.800  18.611  0.00  0.00    +0.000 A 
ATOM     18  C   UNL     1      -0.978   9.897  17.584  0.00  0.00    +0.000 A 
ATOM     19  C   UNL     1      -2.203   9.971  16.912  0.00  0.00    +0.000 A 
ATOM     20  C   UNL     1      -3.146  10.953  17.249  0.00  0.00    +0.000 A 
ATOM     21  C   UNL     1      -2.842  11.851  18.281  0.00  0.00    +0.000 A 
ATOM     22  C   UNL     1      -1.618  11.775  18.952  0.00  0.00    +0.000 A 
BRANCH  20  23
ATOM     23  C   UNL     1      -4.458  11.047  16.512  0.00  0.00    +0.000 C 
BRANCH  23  24
ATOM     24  N   UNL     1      -5.536  11.543  17.349  0.00  0.00    +0.000 N 
ATOM     25  C   UNL     1      -6.100  10.895  18.415  0.00  0.00    +0.000 A 
ATOM     26  C   UNL     1      -7.171  11.677  18.780  0.00  0.00    +0.000 A 
ATOM     27  N   UNL     1      -7.269  12.777  17.967  0.00  0.00    +0.000 NA
ATOM     28  C   UNL     1      -6.272  12.671  17.117  0.00  0.00    +0.000 A 
ENDBRANCH  23  24
ENDBRANCH  20  23
ENDBRANCH  16  17
ENDBRANCH   3  16
TORSDOF 5
ENDMDL
MODEL 9
REMARK VINA RESULT:      -7.9      7.368     10.079
REMARK  Name = 
REMARK  5 active torsions:
REMARK  status: ('A' for Active; 'I' for Inactive)
REMARK    1  A    between atoms: C_2  and  C_17
REMARK    2  A    between atoms: N_3  and  C_4
REMARK    3  A    between atoms: C_4  and  C_5
REMARK    4  A    between atoms: C_8  and  C_9
REMARK    5  A    between atoms: C_9  and  N_10
REMARK                            x       y       z     vdW  Elec       q    Type
REMARK                         _______ _______ _______ _____ _____    ______ ____
ROOT
ATOM      1  O   UNL     1       1.379   8.983  21.776  0.00  0.00    +0.000 OA
ATOM      2  C   UNL     1       1.410   8.581  20.619  0.00  0.00    +0.000 C 
ATOM      3  N   UNL     1       0.988   9.333  19.553  0.00  0.00    +0.000 N 
ATOM      4  H   UNL     1       1.008   8.942  18.625  0.00  0.00    +0.000 HD
ENDROOT
BRANCH   2   5
ATOM      5  C   UNL     1       1.868   7.246  20.290  0.00  0.00    +0.000 A 
ATOM      6  C   UNL     1       2.544   6.725  19.199  0.00  0.00    +0.000 A 
ATOM      7  C   UNL     1       2.607   5.310  19.343  0.00  0.00    +0.000 A 
ATOM      8  C   UNL     1       3.089   4.264  18.532  0.00  0.00    +0.000 A 
ATOM      9  C   UNL     1       2.917   2.945  18.962  0.00  0.00    +0.000 A 
ATOM     10 CL   UNL     1       3.437   1.654  17.945  0.00  0.00    +0.000 Cl
ATOM     11  C   UNL     1       2.317   2.655  20.184  0.00  0.00    +0.000 A 
ATOM     12  C   UNL     1       1.867   3.682  21.022  0.00  0.00    +0.000 A 
ATOM     13  C   UNL     1       2.015   4.996  20.564  0.00  0.00    +0.000 A 
ATOM     14  N   UNL     1       1.637   6.185  21.142  0.00  0.00    +0.000 N 
ATOM     15  H   UNL     1       1.175   6.281  22.036  0.00  0.00    +0.000 HD
ENDBRANCH   2   5
BRANCH   3  16
ATOM     16  C   UNL     1       0.423  10.655  19.710  0.00  0.00    +0.000 C 
BRANCH  16  17
ATOM     17  C   UNL     1      -0.850  10.807  18.917  0.00  0.00    +0.000 A 
ATOM     18  C   UNL     1      -1.798  11.784  19.249  0.00  0.00    +0.000 A 
ATOM     19  C   UNL     1      -2.962  11.935  18.488  0.00  0.00    +0.000 A 
ATOM     20  C   UNL     1      -3.205  11.109  17.381  0.00  0.00    +0.000 A 
ATOM     21  C   UNL     1      -2.253  10.136  17.046  0.00  0.00    +0.000 A 
ATOM     22  C   UNL     1      -1.090   9.988  17.806  0.00  0.00    +0.000 A 
BRANCH  20  23
ATOM     23  C   UNL     1      -4.468  11.256  16.571  0.00  0.00    +0.000 C 
BRANCH  23  24
ATOM     24  N   UNL     1      -5.639  11.486  17.399  0.00  0.00    +0.000 N 
ATOM     25  C   UNL     1      -6.412  12.616  17.417  0.00  0.00    +0.000 A 
ATOM     26  C   UNL     1      -7.290  12.428  18.459  0.00  0.00    +0.000 A 
ATOM     27  N   UNL     1      -7.072  11.218  19.067  0.00  0.00    +0.000 NA
ATOM     28  C   UNL     1      -6.074  10.673  18.407  0.00  0.00    +0.000 A 
ENDBRANCH  23  24
ENDBRANCH  20  23
ENDBRANCH  16  17
ENDBRANCH   3  16
TORSDOF 5
ENDMDL
