MODEL 1
REMARK VINA RESULT:      -9.1      0.000      0.000
REMARK  Name = 
REMARK  5 active torsions:
REMARK  status: ('A' for Active; 'I' for Inactive)
REMARK    1  A    between atoms: C_2  and  C_3
REMARK    2  A    between atoms: C_3  and  N_4
REMARK    3  A    between atoms: N_4  and  C_5
REMARK    4  A    between atoms: C_8  and  S_9
REMARK    5  A    between atoms: S_9  and  N_12
REMARK                            x       y       z     vdW  Elec       q    Type
REMARK                         _______ _______ _______ _____ _____    ______ ____
ROOT
ATOM      1  C   UNL     1       1.732   7.075  20.519  0.00  0.00    +0.000 A 
ATOM      2  C   UNL     1       2.349   7.208  19.269  0.00  0.00    +0.000 A 
ATOM      3  C   UNL     1       2.702   6.089  18.508  0.00  0.00    +0.000 A 
ATOM      4  C   UNL     1       2.479   4.813  19.020  0.00  0.00    +0.000 A 
ATOM      5  C   UNL     1       1.841   4.658  20.255  0.00  0.00    +0.000 A 
ATOM      6  C   UNL     1       1.493   5.783  21.006  0.00  0.00    +0.000 A 
ENDROOT
BRANCH   4   7
ATOM      7  S   UNL     1       2.940   3.377  18.068  0.00  0.00    +0.000 S 
ATOM      8  O   UNL     1       2.991   2.250  18.972  0.00  0.00    +0.000 OA
ATOM      9  O   UNL     1       2.090   3.350  16.892  0.00  0.00    +0.000 OA
BRANCH   7  10
ATOM     10  N   UNL     1       4.541   3.739  17.568  0.00  0.00    +0.000 NA
ATOM     11  C   UNL     1       4.695   4.286  16.202  0.00  0.00    +0.000 C 
ATOM     12  C   UNL     1       5.981   3.804  15.531  0.00  0.00    +0.000 C 
ATOM     13  C   UNL     1       7.208   4.639  15.875  0.00  0.00    +0.000 C 
ATOM     14  C   UNL     1       7.608   4.564  17.340  0.00  0.00    +0.000 C 
ATOM     15  C   UNL     1       6.556   5.165  18.265  0.00  0.00    +0.000 C 
ATOM     16  C   UNL     1       5.448   4.195  18.651  0.00  0.00    +0.000 C 
ENDBRANCH   7  10
ENDBRANCH   4   7
BRANCH   1  17
ATOM     17  N   UNL     1       1.525   8.242  21.273  0.00  0.00    +0.000 N 
ATOM     18  H   UNL     1       1.959   8.120  22.191  0.00  0.00    +0.000 HD
BRANCH  17  19
ATOM     19  C   UNL     1       0.148   8.723  21.435  0.00  0.00    +0.000 C 
BRANCH  19  21
ATOM     20  O   UNL     1      -0.074   9.886  19.302  0.00  0.00    +0.000 OA
ATOM     21  C   UNL     1      -0.238   9.916  20.521  0.00  0.00    +0.000 C 
ATOM     22  N   UNL     1      -0.814  11.005  21.180  0.00  0.00    +0.000 N 
ATOM     23  C   UNL     1      -1.001  11.029  22.642  0.00  0.00    +0.000 C 
ATOM     24  C   UNL     1      -1.454  12.385  23.171  0.00  0.00    +0.000 C 
ATOM     25  C   UNL     1      -2.740  12.682  22.454  0.00  0.00    +0.000 A 
ATOM     26  C   UNL     1      -3.936  12.909  23.134  0.00  0.00    +0.000 A 
ATOM     27  C   UNL     1      -5.117  13.041  22.409  0.00  0.00    +0.000 A 
ATOM     28  C   UNL     1      -5.093  13.000  21.013  0.00  0.00    +0.000 A 
ATOM     29  C   UNL     1      -3.895  12.777  20.328  0.00  0.00    +0.000 A 
ATOM     30  C   UNL     1      -2.720  12.561  21.048  0.00  0.00    +0.000 A 
ATOM     31  C   UNL     1      -1.432  12.095  20.396  0.00  0.00    +0.000 C 
ENDBRANCH  19  21
ENDBRANCH  17  19
ENDBRANCH   1  17
TORSDOF 5
ENDMDL
MODEL 2
REMARK VINA RESULT:      -8.9      1.765      2.784
REMARK  Name = 
REMARK  5 active torsions:
REMARK  status: ('A' for Active; 'I' for Inactive)
REMARK    1  A    between atoms: C_2  and  C_3
REMARK    2  A    between atoms: C_3  and  N_4
REMARK    3  A    between atoms: N_4  and  C_5
REMARK    4  A    between atoms: C_8  and  S_9
REMARK    5  A    between atoms: S_9  and  N_12
REMARK                            x       y       z     vdW  Elec       q    Type
REMARK                         _______ _______ _______ _____ _____    ______ ____
ROOT
ATOM      1  C   UNL     1       1.699   7.035  20.507  0.00  0.00    +0.000 A 
ATOM      2  C   UNL     1       2.231   7.185  19.220  0.00  0.00    +0.000 A 
ATOM      3  C   UNL     1       2.595   6.076  18.449  0.00  0.00    +0.000 A 
ATOM      4  C   UNL     1       2.471   4.796  18.985  0.00  0.00    +0.000 A 
ATOM      5  C   UNL     1       1.920   4.624  20.259  0.00  0.00    +0.000 A 
ATOM      6  C   UNL     1       1.559   5.739  21.020  0.00  0.00    +0.000 A 
ENDROOT
BRANCH   4   7
ATOM      7  S   UNL     1       2.948   3.375  18.020  0.00  0.00    +0.000 S 
ATOM      8  O   UNL     1       2.987   2.234  18.909  0.00  0.00    +0.000 OA
ATOM      9  O   UNL     1       2.117   3.363  16.832  0.00  0.00    +0.000 OA
BRANCH   7  10
ATOM     10  N   UNL     1       4.557   3.745  17.550  0.00  0.00    +0.000 NA
ATOM     11  C   UNL     1       4.732   4.295  16.188  0.00  0.00    +0.000 C 
ATOM     12  C   UNL     1       6.033   3.820  15.539  0.00  0.00    +0.000 C 
ATOM     13  C   UNL     1       7.249   4.661  15.905  0.00  0.00    +0.000 C 
ATOM     14  C   UNL     1       7.623   4.586  17.378  0.00  0.00    +0.000 C 
ATOM     15  C   UNL     1       6.551   5.180  18.284  0.00  0.00    +0.000 C 
ATOM     16  C   UNL     1       5.442   4.204  18.650  0.00  0.00    +0.000 C 
ENDBRANCH   7  10
ENDBRANCH   4   7
BRANCH   1  17
ATOM     17  N   UNL     1       1.478   8.199  21.260  0.00  0.00    +0.000 N 
ATOM     18  H   UNL     1       2.018   8.136  22.127  0.00  0.00    +0.000 HD
BRANCH  17  19
ATOM     19  C   UNL     1       0.091   8.568  21.567  0.00  0.00    +0.000 C 
BRANCH  19  21
ATOM     20  O   UNL     1       0.179  10.000  23.540  0.00  0.00    +0.000 OA
ATOM     21  C   UNL     1      -0.074   9.904  22.340  0.00  0.00    +0.000 C 
ATOM     22  N   UNL     1      -0.496  10.988  21.567  0.00  0.00    +0.000 N 
ATOM     23  C   UNL     1      -0.799  10.857  20.130  0.00  0.00    +0.000 C 
ATOM     24  C   UNL     1      -1.434  12.106  19.531  0.00  0.00    +0.000 C 
ATOM     25  C   UNL     1      -0.449  13.212  19.779  0.00  0.00    +0.000 A 
ATOM     26  C   UNL     1       0.103  13.963  18.743  0.00  0.00    +0.000 A 
ATOM     27  C   UNL     1       1.112  14.878  19.027  0.00  0.00    +0.000 A 
ATOM     28  C   UNL     1       1.528  15.079  20.346  0.00  0.00    +0.000 A 
ATOM     29  C   UNL     1       0.974  14.329  21.388  0.00  0.00    +0.000 A 
ATOM     30  C   UNL     1       0.021  13.352  21.102  0.00  0.00    +0.000 A 
ATOM     31  C   UNL     1      -0.464  12.352  22.135  0.00  0.00    +0.000 C 
ENDBRANCH  19  21
ENDBRANCH  17  19
ENDBRANCH   1  17
TORSDOF 5
ENDMDL
MODEL 3
REMARK VINA RESULT:      -8.9      0.846      1.330
REMARK  Name = 
REMARK  5 active torsions:
REMARK  status: ('A' for Active; 'I' for Inactive)
REMARK    1  A    between atoms: C_2  and  C_3
REMARK    2  A    between atoms: C_3  and  N_4
REMARK    3  A    between atoms: N_4  and  C_5
REMARK    4  A    between atoms: C_8  and  S_9
REMARK    5  A    between atoms: S_9  and  N_12
REMARK                            x       y       z     vdW  Elec       q    Type
REMARK                         _______ _______ _______ _____ _____    ______ ____
ROOT
ATOM      1  C   UNL     1       1.734   8.215  19.833  0.00  0.00    +0.000 A 
ATOM      2  C   UNL     1       1.593   7.121  20.695  0.00  0.00    +0.000 A 
ATOM      3  C   UNL     1       1.928   5.825  20.289  0.00  0.00    +0.000 A 
ATOM      4  C   UNL     1       2.370   5.607  18.985  0.00  0.00    +0.000 A 
ATOM      5  C   UNL     1       2.542   6.690  18.116  0.00  0.00    +0.000 A 
ATOM      6  C   UNL     1       2.203   7.980  18.533  0.00  0.00    +0.000 A 
ENDROOT
BRANCH   4   7
ATOM      7  S   UNL     1       2.785   3.958  18.449  0.00  0.00    +0.000 S 
ATOM      8  O   UNL     1       2.744   3.096  19.609  0.00  0.00    +0.000 OA
ATOM      9  O   UNL     1       1.975   3.670  17.280  0.00  0.00    +0.000 OA
BRANCH   7  10
ATOM     10  N   UNL     1       4.419   4.110  17.949  0.00  0.00    +0.000 NA
ATOM     11  C   UNL     1       4.641   4.503  16.540  0.00  0.00    +0.000 C 
ATOM     12  C   UNL     1       5.880   3.834  15.945  0.00  0.00    +0.000 C 
ATOM     13  C   UNL     1       7.180   4.574  16.231  0.00  0.00    +0.000 C 
ATOM     14  C   UNL     1       7.555   4.606  17.705  0.00  0.00    +0.000 C 
ATOM     15  C   UNL     1       6.558   5.395  18.545  0.00  0.00    +0.000 C 
ATOM     16  C   UNL     1       5.355   4.581  19.001  0.00  0.00    +0.000 C 
ENDBRANCH   7  10
ENDBRANCH   4   7
BRANCH   1  17
ATOM     17  N   UNL     1       1.257   9.460  20.275  0.00  0.00    +0.000 N 
ATOM     18  H   UNL     1       1.901   9.826  20.981  0.00  0.00    +0.000 HD
BRANCH  17  19
ATOM     19  C   UNL     1      -0.121   9.531  20.776  0.00  0.00    +0.000 C 
BRANCH  19  21
ATOM     20  O   UNL     1      -1.269  10.707  18.973  0.00  0.00    +0.000 OA
ATOM     21  C   UNL     1      -0.978  10.673  20.168  0.00  0.00    +0.000 C 
ATOM     22  N   UNL     1      -1.419  11.633  21.081  0.00  0.00    +0.000 N 
ATOM     23  C   UNL     1      -1.060  11.583  22.510  0.00  0.00    +0.000 C 
ATOM     24  C   UNL     1      -1.473  12.830  23.281  0.00  0.00    +0.000 C 
ATOM     25  C   UNL     1      -2.960  12.937  23.099  0.00  0.00    +0.000 A 
ATOM     26  C   UNL     1      -3.843  12.946  24.178  0.00  0.00    +0.000 A 
ATOM     27  C   UNL     1      -5.213  12.906  23.936  0.00  0.00    +0.000 A 
ATOM     28  C   UNL     1      -5.697  12.912  22.625  0.00  0.00    +0.000 A 
ATOM     29  C   UNL     1      -4.814  12.906  21.542  0.00  0.00    +0.000 A 
ATOM     30  C   UNL     1      -3.439  12.863  21.774  0.00  0.00    +0.000 A 
ATOM     31  C   UNL     1      -2.427  12.632  20.667  0.00  0.00    +0.000 C 
ENDBRANCH  19  21
ENDBRANCH  17  19
ENDBRANCH   1  17
TORSDOF 5
ENDMDL
MODEL 4
REMARK VINA RESULT:      -8.7      1.516      2.015
REMARK  Name = 
REMARK  5 active torsions:
REMARK  status: ('A' for Active; 'I' for Inactive)
REMARK    1  A    between atoms: C_2  and  C_3
REMARK    2  A    between atoms: C_3  and  N_4
REMARK    3  A    between atoms: N_4  and  C_5
REMARK    4  A    between atoms: C_8  and  S_9
REMARK    5  A    between atoms: S_9  and  N_12
REMARK                            x       y       z     vdW  Elec       q    Type
REMARK                         _______ _______ _______ _____ _____    ______ ____
ROOT
ATOM      1  C   UNL     1       1.638   8.302  19.733  0.00  0.00    +0.000 A 
ATOM      2  C   UNL     1       2.136   7.943  18.475  0.00  0.00    +0.000 A 
ATOM      3  C   UNL     1       2.508   6.625  18.187  0.00  0.00    +0.000 A 
ATOM      4  C   UNL     1       2.427   5.655  19.184  0.00  0.00    +0.000 A 
ATOM      5  C   UNL     1       1.909   5.988  20.440  0.00  0.00    +0.000 A 
ATOM      6  C   UNL     1       1.540   7.307  20.716  0.00  0.00    +0.000 A 
ENDROOT
BRANCH   4   7
ATOM      7  S   UNL     1       2.914   3.976  18.836  0.00  0.00    +0.000 S 
ATOM      8  O   UNL     1       3.011   3.277  20.099  0.00  0.00    +0.000 OA
ATOM      9  O   UNL     1       2.049   3.487  17.780  0.00  0.00    +0.000 OA
BRANCH   7  10
ATOM     10  N   UNL     1       4.498   4.154  18.199  0.00  0.00    +0.000 NA
ATOM     11  C   UNL     1       4.594   4.431  16.748  0.00  0.00    +0.000 C 
ATOM     12  C   UNL     1       5.816   3.766  16.116  0.00  0.00    +0.000 C 
ATOM     13  C   UNL     1       7.096   4.584  16.235  0.00  0.00    +0.000 C 
ATOM     14  C   UNL     1       7.578   4.760  17.666  0.00  0.00    +0.000 C 
ATOM     15  C   UNL     1       6.608   5.576  18.514  0.00  0.00    +0.000 C 
ATOM     16  C   UNL     1       5.485   4.754  19.130  0.00  0.00    +0.000 C 
ENDBRANCH   7  10
ENDBRANCH   4   7
BRANCH   1  17
ATOM     17  N   UNL     1       1.407   9.665  19.979  0.00  0.00    +0.000 N 
ATOM     18  H   UNL     1       1.997   9.961  20.761  0.00  0.00    +0.000 HD
BRANCH  17  19
ATOM     19  C   UNL     1       0.024  10.099  20.209  0.00  0.00    +0.000 C 
BRANCH  19  21
ATOM     20  O   UNL     1      -0.495   9.982  17.828  0.00  0.00    +0.000 OA
ATOM     21  C   UNL     1      -0.766  10.468  18.925  0.00  0.00    +0.000 C 
ATOM     22  N   UNL     1      -1.822  11.363  19.116  0.00  0.00    +0.000 N 
ATOM     23  C   UNL     1      -2.132  11.942  20.436  0.00  0.00    +0.000 C 
ATOM     24  C   UNL     1      -3.185  13.042  20.380  0.00  0.00    +0.000 C 
ATOM     25  C   UNL     1      -4.398  12.402  19.768  0.00  0.00    +0.000 A 
ATOM     26  C   UNL     1      -5.627  12.358  20.426  0.00  0.00    +0.000 A 
ATOM     27  C   UNL     1      -6.673  11.630  19.866  0.00  0.00    +0.000 A 
ATOM     28  C   UNL     1      -6.507  10.996  18.632  0.00  0.00    +0.000 A 
ATOM     29  C   UNL     1      -5.277  11.041  17.970  0.00  0.00    +0.000 A 
ATOM     30  C   UNL     1      -4.199  11.699  18.561  0.00  0.00    +0.000 A 
ATOM     31  C   UNL     1      -2.784  11.607  18.021  0.00  0.00    +0.000 C 
ENDBRANCH  19  21
ENDBRANCH  17  19
ENDBRANCH   1  17
TORSDOF 5
ENDMDL
MODEL 5
REMARK VINA RESULT:      -8.6      4.071     10.743
REMARK  Name = 
REMARK  5 active torsions:
REMARK  status: ('A' for Active; 'I' for Inactive)
REMARK    1  A    between atoms: C_2  and  C_3
REMARK    2  A    between atoms: C_3  and  N_4
REMARK    3  A    between atoms: N_4  and  C_5
REMARK    4  A    between atoms: C_8  and  S_9
REMARK    5  A    between atoms: S_9  and  N_12
REMARK                            x       y       z     vdW  Elec       q    Type
REMARK                         _______ _______ _______ _____ _____    ______ ____
ROOT
ATOM      1  C   UNL     1      -1.561  10.413  17.778  0.00  0.00    +0.000 A 
ATOM      2  C   UNL     1      -2.593   9.920  16.970  0.00  0.00    +0.000 A 
ATOM      3  C   UNL     1      -3.909  10.376  17.110  0.00  0.00    +0.000 A 
ATOM      4  C   UNL     1      -4.212  11.305  18.103  0.00  0.00    +0.000 A 
ATOM      5  C   UNL     1      -3.192  11.828  18.904  0.00  0.00    +0.000 A 
ATOM      6  C   UNL     1      -1.881  11.366  18.755  0.00  0.00    +0.000 A 
ENDROOT
BRANCH   4   7
ATOM      7  S   UNL     1      -5.887  11.881  18.303  0.00  0.00    +0.000 S 
ATOM      8  O   UNL     1      -6.067  13.019  17.428  0.00  0.00    +0.000 OA
ATOM      9  O   UNL     1      -6.755  10.723  18.204  0.00  0.00    +0.000 OA
BRANCH   7  10
ATOM     10  N   UNL     1      -5.916  12.441  19.925  0.00  0.00    +0.000 NA
ATOM     11  C   UNL     1      -5.726  13.895  20.121  0.00  0.00    +0.000 C 
ATOM     12  C   UNL     1      -4.943  14.206  21.396  0.00  0.00    +0.000 C 
ATOM     13  C   UNL     1      -5.804  14.271  22.651  0.00  0.00    +0.000 C 
ATOM     14  C   UNL     1      -6.440  12.941  23.025  0.00  0.00    +0.000 C 
ATOM     15  C   UNL     1      -7.444  12.458  21.985  0.00  0.00    +0.000 C 
ATOM     16  C   UNL     1      -6.815  11.686  20.833  0.00  0.00    +0.000 C 
ENDBRANCH   7  10
ENDBRANCH   4   7
BRANCH   1  17
ATOM     17  N   UNL     1      -0.297   9.813  17.660  0.00  0.00    +0.000 N 
ATOM     18  H   UNL     1      -0.401   8.803  17.778  0.00  0.00    +0.000 HD
BRANCH  17  19
ATOM     19  C   UNL     1       0.782  10.304  18.526  0.00  0.00    +0.000 C 
BRANCH  19  21
ATOM     20  O   UNL     1       0.713   9.639  20.872  0.00  0.00    +0.000 OA
ATOM     21  C   UNL     1       1.114   9.390  19.736  0.00  0.00    +0.000 C 
ATOM     22  N   UNL     1       1.869   8.256  19.432  0.00  0.00    +0.000 N 
ATOM     23  C   UNL     1       2.347   7.972  18.066  0.00  0.00    +0.000 C 
ATOM     24  C   UNL     1       3.318   6.800  17.997  0.00  0.00    +0.000 C 
ATOM     25  C   UNL     1       2.569   5.628  18.564  0.00  0.00    +0.000 A 
ATOM     26  C   UNL     1       2.351   4.460  17.835  0.00  0.00    +0.000 A 
ATOM     27  C   UNL     1       1.532   3.468  18.365  0.00  0.00    +0.000 A 
ATOM     28  C   UNL     1       0.979   3.620  19.639  0.00  0.00    +0.000 A 
ATOM     29  C   UNL     1       1.198   4.789  20.374  0.00  0.00    +0.000 A 
ATOM     30  C   UNL     1       1.950   5.823  19.817  0.00  0.00    +0.000 A 
ATOM     31  C   UNL     1       2.049   7.198  20.450  0.00  0.00    +0.000 C 
ENDBRANCH  19  21
ENDBRANCH  17  19
ENDBRANCH   1  17
TORSDOF 5
ENDMDL
MODEL 6
REMARK VINA RESULT:      -8.5      1.676      2.705
REMARK  Name = 
REMARK  5 active torsions:
REMARK  status: ('A' for Active; 'I' for Inactive)
REMARK    1  A    between atoms: C_2  and  C_3
REMARK    2  A    between atoms: C_3  and  N_4
REMARK    3  A    between atoms: N_4  and  C_5
REMARK    4  A    between atoms: C_8  and  S_9
REMARK    5  A    between atoms: S_9  and  N_12
REMARK                            x       y       z     vdW  Elec       q    Type
REMARK                         _______ _______ _______ _____ _____    ______ ____
ROOT
ATOM      1  C   UNL     1       1.805   7.744  20.218  0.00  0.00    +0.000 A 
ATOM      2  C   UNL     1       1.711   6.551  20.945  0.00  0.00    +0.000 A 
ATOM      3  C   UNL     1       2.041   5.319  20.371  0.00  0.00    +0.000 A 
ATOM      4  C   UNL     1       2.429   5.267  19.033  0.00  0.00    +0.000 A 
ATOM      5  C   UNL     1       2.553   6.449  18.296  0.00  0.00    +0.000 A 
ATOM      6  C   UNL     1       2.220   7.674  18.881  0.00  0.00    +0.000 A 
ENDROOT
BRANCH   4   7
ATOM      7  S   UNL     1       2.836   3.702  18.283  0.00  0.00    +0.000 S 
ATOM      8  O   UNL     1       2.844   2.703  19.330  0.00  0.00    +0.000 OA
ATOM      9  O   UNL     1       1.986   3.549  17.117  0.00  0.00    +0.000 OA
BRANCH   7  10
ATOM     10  N   UNL     1       4.450   3.933  17.749  0.00  0.00    +0.000 NA
ATOM     11  C   UNL     1       4.621   4.367  16.345  0.00  0.00    +0.000 C 
ATOM     12  C   UNL     1       5.872   3.764  15.705  0.00  0.00    +0.000 C 
ATOM     13  C   UNL     1       7.147   4.552  15.978  0.00  0.00    +0.000 C 
ATOM     14  C   UNL     1       7.556   4.565  17.443  0.00  0.00    +0.000 C 
ATOM     15  C   UNL     1       6.548   5.292  18.325  0.00  0.00    +0.000 C 
ATOM     16  C   UNL     1       5.391   4.418  18.790  0.00  0.00    +0.000 C 
ENDBRANCH   7  10
ENDBRANCH   4   7
BRANCH   1  17
ATOM     17  N   UNL     1       1.336   8.918  20.828  0.00  0.00    +0.000 N 
ATOM     18  H   UNL     1       2.022   9.224  21.521  0.00  0.00    +0.000 HD
BRANCH  17  19
ATOM     19  C   UNL     1      -0.002   8.894  21.432  0.00  0.00    +0.000 C 
BRANCH  19  21
ATOM     20  O   UNL     1      -0.043   9.981  23.615  0.00  0.00    +0.000 OA
ATOM     21  C   UNL     1      -0.296  10.059  22.414  0.00  0.00    +0.000 C 
ATOM     22  N   UNL     1      -0.835  11.206  21.828  0.00  0.00    +0.000 N 
ATOM     23  C   UNL     1      -1.139  11.285  20.387  0.00  0.00    +0.000 C 
ATOM     24  C   UNL     1      -1.906  12.543  19.999  0.00  0.00    +0.000 C 
ATOM     25  C   UNL     1      -1.038  13.689  20.434  0.00  0.00    +0.000 A 
ATOM     26  C   UNL     1      -0.577  14.654  19.540  0.00  0.00    +0.000 A 
ATOM     27  C   UNL     1       0.335  15.609  19.980  0.00  0.00    +0.000 A 
ATOM     28  C   UNL     1       0.741  15.630  21.317  0.00  0.00    +0.000 A 
ATOM     29  C   UNL     1       0.279  14.666  22.215  0.00  0.00    +0.000 A 
ATOM     30  C   UNL     1      -0.571  13.656  21.765  0.00  0.00    +0.000 A 
ATOM     31  C   UNL     1      -0.940  12.453  22.615  0.00  0.00    +0.000 C 
ENDBRANCH  19  21
ENDBRANCH  17  19
ENDBRANCH   1  17
TORSDOF 5
ENDMDL
MODEL 7
REMARK VINA RESULT:      -8.5      2.568      3.907
REMARK  Name = 
REMARK  5 active torsions:
REMARK  status: ('A' for Active; 'I' for Inactive)
REMARK    1  A    between atoms: C_2  and  C_3
REMARK    2  A    between atoms: C_3  and  N_4
REMARK    3  A    between atoms: N_4  and  C_5
REMARK    4  A    between atoms: C_8  and  S_9
REMARK    5  A    between atoms: S_9  and  N_12
REMARK                            x       y       z     vdW  Elec       q    Type
REMARK                         _______ _______ _______ _____ _____    ______ ____
ROOT
ATOM      1  C   UNL     1       1.819   7.089  20.584  0.00  0.00    +0.000 A 
ATOM      2  C   UNL     1       1.689   5.782  21.069  0.00  0.00    +0.000 A 
ATOM      3  C   UNL     1       2.026   4.676  20.283  0.00  0.00    +0.000 A 
ATOM      4  C   UNL     1       2.457   4.871  18.972  0.00  0.00    +0.000 A 
ATOM      5  C   UNL     1       2.618   6.169  18.476  0.00  0.00    +0.000 A 
ATOM      6  C   UNL     1       2.278   7.267  19.272  0.00  0.00    +0.000 A 
ENDROOT
BRANCH   4   7
ATOM      7  S   UNL     1       2.873   3.469  17.952  0.00  0.00    +0.000 S 
ATOM      8  O   UNL     1       2.868   2.296  18.798  0.00  0.00    +0.000 OA
ATOM      9  O   UNL     1       2.039   3.536  16.768  0.00  0.00    +0.000 OA
BRANCH   7  10
ATOM     10  N   UNL     1       4.494   3.791  17.490  0.00  0.00    +0.000 NA
ATOM     11  C   UNL     1       4.688   4.384  16.148  0.00  0.00    +0.000 C 
ATOM     12  C   UNL     1       5.967   3.881  15.477  0.00  0.00    +0.000 C 
ATOM     13  C   UNL     1       7.217   4.658  15.869  0.00  0.00    +0.000 C 
ATOM     14  C   UNL     1       7.591   4.514  17.336  0.00  0.00    +0.000 C 
ATOM     15  C   UNL     1       6.547   5.117  18.268  0.00  0.00    +0.000 C 
ATOM     16  C   UNL     1       5.400   4.174  18.602  0.00  0.00    +0.000 C 
ENDBRANCH   7  10
ENDBRANCH   4   7
BRANCH   1  17
ATOM     17  N   UNL     1       1.342   8.135  21.390  0.00  0.00    +0.000 N 
ATOM     18  H   UNL     1       0.899   7.734  22.220  0.00  0.00    +0.000 HD
BRANCH  17  19
ATOM     19  C   UNL     1       0.444   9.122  20.778  0.00  0.00    +0.000 C 
BRANCH  19  21
ATOM     20  O   UNL     1       0.252  10.619  22.694  0.00  0.00    +0.000 OA
ATOM     21  C   UNL     1       0.417  10.505  21.481  0.00  0.00    +0.000 C 
ATOM     22  N   UNL     1       0.628  11.601  20.640  0.00  0.00    +0.000 N 
ATOM     23  C   UNL     1       0.820  11.451  19.186  0.00  0.00    +0.000 C 
ATOM     24  C   UNL     1       0.827  12.778  18.437  0.00  0.00    +0.000 C 
ATOM     25  C   UNL     1       1.941  13.576  19.053  0.00  0.00    +0.000 A 
ATOM     26  C   UNL     1       3.013  14.057  18.303  0.00  0.00    +0.000 A 
ATOM     27  C   UNL     1       4.080  14.669  18.955  0.00  0.00    +0.000 A 
ATOM     28  C   UNL     1       4.049  14.845  20.341  0.00  0.00    +0.000 A 
ATOM     29  C   UNL     1       2.974  14.366  21.094  0.00  0.00    +0.000 A 
ATOM     30  C   UNL     1       1.939  13.680  20.460  0.00  0.00    +0.000 A 
ATOM     31  C   UNL     1       0.855  12.941  21.223  0.00  0.00    +0.000 C 
ENDBRANCH  19  21
ENDBRANCH  17  19
ENDBRANCH   1  17
TORSDOF 5
ENDMDL
MODEL 8
REMARK VINA RESULT:      -8.5      0.773      1.674
REMARK  Name = 
REMARK  5 active torsions:
REMARK  status: ('A' for Active; 'I' for Inactive)
REMARK    1  A    between atoms: C_2  and  C_3
REMARK    2  A    between atoms: C_3  and  N_4
REMARK    3  A    between atoms: N_4  and  C_5
REMARK    4  A    between atoms: C_8  and  S_9
REMARK    5  A    between atoms: S_9  and  N_12
REMARK                            x       y       z     vdW  Elec       q    Type
REMARK                         _______ _______ _______ _____ _____    ______ ____
ROOT
ATOM      1  C   UNL     1       1.708   8.131  20.160  0.00  0.00    +0.000 A 
ATOM      2  C   UNL     1       1.579   6.944  20.891  0.00  0.00    +0.000 A 
ATOM      3  C   UNL     1       1.929   5.707  20.339  0.00  0.00    +0.000 A 
ATOM      4  C   UNL     1       2.371   5.645  19.019  0.00  0.00    +0.000 A 
ATOM      5  C   UNL     1       2.529   6.822  18.280  0.00  0.00    +0.000 A 
ATOM      6  C   UNL     1       2.178   8.051  18.842  0.00  0.00    +0.000 A 
ENDROOT
BRANCH   4   7
ATOM      7  S   UNL     1       2.802   4.073  18.297  0.00  0.00    +0.000 S 
ATOM      8  O   UNL     1       2.900   3.109  19.371  0.00  0.00    +0.000 OA
ATOM      9  O   UNL     1       1.904   3.851  17.179  0.00  0.00    +0.000 OA
BRANCH   7  10
ATOM     10  N   UNL     1       4.379   4.349  17.677  0.00  0.00    +0.000 NA
ATOM     11  C   UNL     1       5.505   4.041  18.587  0.00  0.00    +0.000 C 
ATOM     12  C   UNL     1       6.672   5.012  18.404  0.00  0.00    +0.000 C 
ATOM     13  C   UNL     1       7.629   4.624  17.284  0.00  0.00    +0.000 C 
ATOM     14  C   UNL     1       7.000   4.673  15.900  0.00  0.00    +0.000 C 
ATOM     15  C   UNL     1       5.887   3.646  15.726  0.00  0.00    +0.000 C 
ATOM     16  C   UNL     1       4.528   4.121  16.218  0.00  0.00    +0.000 C 
ENDBRANCH   7  10
ENDBRANCH   4   7
BRANCH   1  17
ATOM     17  N   UNL     1       1.218   9.312  20.742  0.00  0.00    +0.000 N 
ATOM     18  H   UNL     1       1.764   9.513  21.584  0.00  0.00    +0.000 HD
BRANCH  17  19
ATOM     19  C   UNL     1      -0.215   9.384  21.052  0.00  0.00    +0.000 C 
BRANCH  19  21
ATOM     20  O   UNL     1      -1.160  10.569  19.139  0.00  0.00    +0.000 OA
ATOM     21  C   UNL     1      -0.975  10.544  20.355  0.00  0.00    +0.000 C 
ATOM     22  N   UNL     1      -1.459  11.534  21.214  0.00  0.00    +0.000 N 
ATOM     23  C   UNL     1      -1.227  11.496  22.669  0.00  0.00    +0.000 C 
ATOM     24  C   UNL     1      -1.662  12.769  23.384  0.00  0.00    +0.000 C 
ATOM     25  C   UNL     1      -3.123  12.923  23.071  0.00  0.00    +0.000 A 
ATOM     26  C   UNL     1      -4.095  12.980  24.068  0.00  0.00    +0.000 A 
ATOM     27  C   UNL     1      -5.440  12.983  23.709  0.00  0.00    +0.000 A 
ATOM     28  C   UNL     1      -5.807  12.984  22.361  0.00  0.00    +0.000 A 
ATOM     29  C   UNL     1      -4.834  12.930  21.359  0.00  0.00    +0.000 A 
ATOM     30  C   UNL     1      -3.487  12.844  21.710  0.00  0.00    +0.000 A 
ATOM     31  C   UNL     1      -2.392  12.560  20.699  0.00  0.00    +0.000 C 
ENDBRANCH  19  21
ENDBRANCH  17  19
ENDBRANCH   1  17
TORSDOF 5
ENDMDL
MODEL 9
REMARK VINA RESULT:      -8.5      3.820      4.679
REMARK  Name = 
REMARK  5 active torsions:
REMARK  status: ('A' for Active; 'I' for Inactive)
REMARK    1  A    between atoms: C_2  and  C_3
REMARK    2  A    between atoms: C_3  and  N_4
REMARK    3  A    between atoms: N_4  and  C_5
REMARK    4  A    between atoms: C_8  and  S_9
REMARK    5  A    between atoms: S_9  and  N_12
REMARK                            x       y       z     vdW  Elec       q    Type
REMARK                         _______ _______ _______ _____ _____    ______ ____
ROOT
ATOM      1  C   UNL     1       1.146   9.773  19.674  0.00  0.00    +0.000 A 
ATOM      2  C   UNL     1       1.582   9.396  18.397  0.00  0.00    +0.000 A 
ATOM      3  C   UNL     1       2.064   8.108  18.143  0.00  0.00    +0.000 A 
ATOM      4  C   UNL     1       2.157   7.191  19.188  0.00  0.00    +0.000 A 
ATOM      5  C   UNL     1       1.704   7.539  20.464  0.00  0.00    +0.000 A 
ATOM      6  C   UNL     1       1.224   8.829  20.706  0.00  0.00    +0.000 A 
ENDROOT
BRANCH   4   7
ATOM      7  S   UNL     1       2.786   5.551  18.881  0.00  0.00    +0.000 S 
ATOM      8  O   UNL     1       2.732   4.821  20.129  0.00  0.00    +0.000 OA
ATOM      9  O   UNL     1       2.117   5.048  17.696  0.00  0.00    +0.000 OA
BRANCH   7  10
ATOM     10  N   UNL     1       4.434   5.832  18.493  0.00  0.00    +0.000 NA
ATOM     11  C   UNL     1       5.415   4.893  19.081  0.00  0.00    +0.000 C 
ATOM     12  C   UNL     1       6.729   5.586  19.440  0.00  0.00    +0.000 C 
ATOM     13  C   UNL     1       7.709   5.695  18.279  0.00  0.00    +0.000 C 
ATOM     14  C   UNL     1       7.219   6.586  17.147  0.00  0.00    +0.000 C 
ATOM     15  C   UNL     1       5.981   6.026  16.457  0.00  0.00    +0.000 C 
ATOM     16  C   UNL     1       4.673   6.397  17.141  0.00  0.00    +0.000 C 
ENDBRANCH   7  10
ENDBRANCH   4   7
BRANCH   1  17
ATOM     17  N   UNL     1       0.796  11.118  19.873  0.00  0.00    +0.000 N 
ATOM     18  H   UNL     1      -0.121  11.155  20.323  0.00  0.00    +0.000 HD
BRANCH  17  19
ATOM     19  C   UNL     1       0.815  12.014  18.711  0.00  0.00    +0.000 C 
BRANCH  19  21
ATOM     20  O   UNL     1       3.023  13.050  18.665  0.00  0.00    +0.000 OA
ATOM     21  C   UNL     1       1.811  13.200  18.816  0.00  0.00    +0.000 C 
ATOM     22  N   UNL     1       1.227  14.445  19.060  0.00  0.00    +0.000 N 
ATOM     23  C   UNL     1      -0.226  14.609  19.243  0.00  0.00    +0.000 C 
ATOM     24  C   UNL     1      -0.623  16.008  19.699  0.00  0.00    +0.000 C 
ATOM     25  C   UNL     1      -0.102  16.935  18.639  0.00  0.00    +0.000 A 
ATOM     26  C   UNL     1      -0.936  17.794  17.926  0.00  0.00    +0.000 A 
ATOM     27  C   UNL     1      -0.413  18.526  16.863  0.00  0.00    +0.000 A 
ATOM     28  C   UNL     1       0.946  18.439  16.552  0.00  0.00    +0.000 A 
ATOM     29  C   UNL     1       1.785  17.580  17.267  0.00  0.00    +0.000 A 
ATOM     30  C   UNL     1       1.254  16.782  18.280  0.00  0.00    +0.000 A 
ATOM     31  C   UNL     1       2.043  15.673  18.950  0.00  0.00    +0.000 C 
ENDBRANCH  19  21
ENDBRANCH  17  19
ENDBRANCH   1  17
TORSDOF 5
ENDMDL
