MODEL 1
REMARK VINA RESULT:      -8.4      0.000      0.000
REMARK  Name = 
REMARK  8 active torsions:
REMARK  status: ('A' for Active; 'I' for Inactive)
REMARK    1  A    between atoms: C_1  and  N_2
REMARK    2  A    between atoms: C_6  and  C_7
REMARK    3  A    between atoms: C_11  and  N_12
REMARK    4  A    between atoms: C_17  and  C_18
REMARK    5  A    between atoms: C_18  and  N_19
REMARK    6  A    between atoms: N_19  and  C_20
REMARK    7  A    between atoms: C_20  and  C_21
REMARK    8  A    between atoms: C_26  and  C_27
REMARK                            x       y       z     vdW  Elec       q    Type
REMARK                         _______ _______ _______ _____ _____    ______ ____
ROOT
ATOM      1  N   UNL     1       3.607   5.111  19.552  0.00  0.00    +0.000 N 
ATOM      2  C   UNL     1       4.999   5.624  19.552  0.00  0.00    +0.000 C 
ATOM      3  C   UNL     1       5.494   5.218  18.196  0.00  0.00    +0.000 A 
ATOM      4  C   UNL     1       4.755   4.102  17.796  0.00  0.00    +0.000 A 
ATOM      5  C   UNL     1       4.863   3.541  16.534  0.00  0.00    +0.000 A 
ATOM      6  C   UNL     1       5.743   4.140  15.620  0.00  0.00    +0.000 A 
ATOM      7  C   UNL     1       6.488   5.275  16.021  0.00  0.00    +0.000 A 
ATOM      8  C   UNL     1       6.374   5.836  17.314  0.00  0.00    +0.000 A 
ATOM      9  C   UNL     1       3.635   3.936  18.752  0.00  0.00    +0.000 C 
ATOM     10  O   UNL     1       2.802   3.050  18.685  0.00  0.00    +0.000 OA
ENDROOT
BRANCH   1  15
ATOM     11  C   UNL     1       1.736   8.227  19.942  0.00  0.00    +0.000 A 
ATOM     12  C   UNL     1       2.246   8.846  18.796  0.00  0.00    +0.000 A 
ATOM     13  C   UNL     1       2.730   8.102  17.726  0.00  0.00    +0.000 A 
ATOM     14  C   UNL     1       2.868   6.732  17.857  0.00  0.00    +0.000 A 
ATOM     15  C   UNL     1       2.678   6.146  19.117  0.00  0.00    +0.000 A 
ATOM     16  C   UNL     1       1.960   6.851  20.095  0.00  0.00    +0.000 A 
BRANCH  11  22
ATOM     17  C   UNL     1      -0.725  10.201  19.726  0.00  0.00    +0.000 C 
ATOM     18  N   UNL     1       0.046   9.872  20.896  0.00  0.00    +0.000 N 
ATOM     19  C   UNL     1      -0.209  10.348  22.147  0.00  0.00    +0.000 A 
ATOM     20  N   UNL     1       0.622   9.796  23.003  0.00  0.00    +0.000 NA
ATOM     21  N   UNL     1       1.428   8.938  22.299  0.00  0.00    +0.000 NA
ATOM     22  C   UNL     1       1.101   8.996  21.016  0.00  0.00    +0.000 A 
ENDBRANCH  11  22
ENDBRANCH   1  15
BRANCH   8  23
ATOM     23  C   UNL     1       7.112   7.114  17.627  0.00  0.00    +0.000 C 
ATOM     24  F   UNL     1       6.310   8.198  17.794  0.00  0.00    +0.000 F 
ATOM     25  F   UNL     1       7.846   7.016  18.769  0.00  0.00    +0.000 F 
ATOM     26  F   UNL     1       7.995   7.450  16.644  0.00  0.00    +0.000 F 
ENDBRANCH   8  23
BRANCH   6  27
ATOM     27  C   UNL     1       5.851   3.616  14.201  0.00  0.00    +0.000 C 
BRANCH  27  28
ATOM     28  N   UNL     1       6.660   4.503  13.369  0.00  0.00    +0.000 NA
ATOM     29  H   UNL     1       7.577   4.638  13.797  0.00  0.00    +0.000 HD
BRANCH  28  30
ATOM     30  C   UNL     1       6.859   3.954  12.021  0.00  0.00    +0.000 C 
BRANCH  30  31
ATOM     31  C   UNL     1       6.626   2.442  12.030  0.00  0.00    +0.000 C 
ATOM     32  C   UNL     1       7.364   1.597  10.980  0.00  0.00    +0.000 C 
ATOM     33  C   UNL     1       5.992   0.961  10.759  0.00  0.00    +0.000 C 
ATOM     34  O   UNL     1       5.343   2.082  11.420  0.00  0.00    +0.000 OA
ENDBRANCH  30  31
ENDBRANCH  28  30
ENDBRANCH  27  28
ENDBRANCH   6  27
TORSDOF 7
ENDMDL
MODEL 2
REMARK VINA RESULT:      -8.3      1.291      1.390
REMARK  Name = 
REMARK  8 active torsions:
REMARK  status: ('A' for Active; 'I' for Inactive)
REMARK    1  A    between atoms: C_1  and  N_2
REMARK    2  A    between atoms: C_6  and  C_7
REMARK    3  A    between atoms: C_11  and  N_12
REMARK    4  A    between atoms: C_17  and  C_18
REMARK    5  A    between atoms: C_18  and  N_19
REMARK    6  A    between atoms: N_19  and  C_20
REMARK    7  A    between atoms: C_20  and  C_21
REMARK    8  A    between atoms: C_26  and  C_27
REMARK                            x       y       z     vdW  Elec       q    Type
REMARK                         _______ _______ _______ _____ _____    ______ ____
ROOT
ATOM      1  N   UNL     1       3.838   4.964  19.115  0.00  0.00    +0.000 N 
ATOM      2  C   UNL     1       5.201   5.527  19.284  0.00  0.00    +0.000 C 
ATOM      3  C   UNL     1       5.817   5.293  17.937  0.00  0.00    +0.000 A 
ATOM      4  C   UNL     1       5.165   4.201  17.360  0.00  0.00    +0.000 A 
ATOM      5  C   UNL     1       5.396   3.787  16.059  0.00  0.00    +0.000 A 
ATOM      6  C   UNL     1       6.314   4.518  15.289  0.00  0.00    +0.000 A 
ATOM      7  C   UNL     1       6.972   5.628  15.870  0.00  0.00    +0.000 A 
ATOM      8  C   UNL     1       6.732   6.039  17.202  0.00  0.00    +0.000 A 
ATOM      9  C   UNL     1       3.983   3.887  18.199  0.00  0.00    +0.000 C 
ATOM     10  O   UNL     1       3.201   2.982  17.969  0.00  0.00    +0.000 OA
ENDROOT
BRANCH   1  15
ATOM     11  C   UNL     1       1.925   8.037  19.626  0.00  0.00    +0.000 A 
ATOM     12  C   UNL     1       2.432   8.710  18.509  0.00  0.00    +0.000 A 
ATOM     13  C   UNL     1       2.930   8.017  17.412  0.00  0.00    +0.000 A 
ATOM     14  C   UNL     1       3.086   6.644  17.486  0.00  0.00    +0.000 A 
ATOM     15  C   UNL     1       2.898   6.005  18.719  0.00  0.00    +0.000 A 
ATOM     16  C   UNL     1       2.167   6.659  19.723  0.00  0.00    +0.000 A 
BRANCH  11  22
ATOM     17  C   UNL     1      -0.552   9.996  19.480  0.00  0.00    +0.000 C 
ATOM     18  N   UNL     1       0.213   9.623  20.640  0.00  0.00    +0.000 N 
ATOM     19  C   UNL     1      -0.054  10.041  21.908  0.00  0.00    +0.000 A 
ATOM     20  N   UNL     1       0.776   9.459  22.745  0.00  0.00    +0.000 NA
ATOM     21  N   UNL     1       1.595   8.640  22.010  0.00  0.00    +0.000 NA
ATOM     22  C   UNL     1       1.276   8.752  20.728  0.00  0.00    +0.000 A 
ENDBRANCH  11  22
ENDBRANCH   1  15
BRANCH   8  23
ATOM     23  C   UNL     1       7.382   7.302  17.709  0.00  0.00    +0.000 C 
ATOM     24  F   UNL     1       6.511   8.298  18.013  0.00  0.00    +0.000 F 
ATOM     25  F   UNL     1       8.108   7.086  18.840  0.00  0.00    +0.000 F 
ATOM     26  F   UNL     1       8.254   7.830  16.803  0.00  0.00    +0.000 F 
ENDBRANCH   8  23
BRANCH   6  27
ATOM     27  C   UNL     1       6.556   4.158  13.836  0.00  0.00    +0.000 C 
BRANCH  27  28
ATOM     28  N   UNL     1       5.618   3.136  13.380  0.00  0.00    +0.000 NA
ATOM     29  H   UNL     1       4.696   3.308  13.784  0.00  0.00    +0.000 HD
BRANCH  28  30
ATOM     30  C   UNL     1       5.485   3.132  11.917  0.00  0.00    +0.000 C 
BRANCH  30  31
ATOM     31  C   UNL     1       4.030   3.393  11.521  0.00  0.00    +0.000 C 
ATOM     32  C   UNL     1       3.359   2.397  10.561  0.00  0.00    +0.000 C 
ATOM     33  C   UNL     1       2.906   3.658   9.825  0.00  0.00    +0.000 C 
ATOM     34  O   UNL     1       3.919   4.446  10.509  0.00  0.00    +0.000 OA
ENDBRANCH  30  31
ENDBRANCH  28  30
ENDBRANCH  27  28
ENDBRANCH   6  27
TORSDOF 7
ENDMDL
MODEL 3
REMARK VINA RESULT:      -8.0      8.129     11.771
REMARK  Name = 
REMARK  8 active torsions:
REMARK  status: ('A' for Active; 'I' for Inactive)
REMARK    1  A    between atoms: C_1  and  N_2
REMARK    2  A    between atoms: C_6  and  C_7
REMARK    3  A    between atoms: C_11  and  N_12
REMARK    4  A    between atoms: C_17  and  C_18
REMARK    5  A    between atoms: C_18  and  N_19
REMARK    6  A    between atoms: N_19  and  C_20
REMARK    7  A    between atoms: C_20  and  C_21
REMARK    8  A    between atoms: C_26  and  C_27
REMARK                            x       y       z     vdW  Elec       q    Type
REMARK                         _______ _______ _______ _____ _____    ______ ____
ROOT
ATOM      1  N   UNL     1      -0.464  11.167  18.340  0.00  0.00    +0.000 N 
ATOM      2  C   UNL     1       0.261  10.384  19.372  0.00  0.00    +0.000 C 
ATOM      3  C   UNL     1      -0.115  11.092  20.639  0.00  0.00    +0.000 A 
ATOM      4  C   UNL     1      -0.424  12.414  20.307  0.00  0.00    +0.000 A 
ATOM      5  C   UNL     1      -0.936  13.320  21.221  0.00  0.00    +0.000 A 
ATOM      6  C   UNL     1      -1.167  12.874  22.531  0.00  0.00    +0.000 A 
ATOM      7  C   UNL     1      -0.860  11.534  22.868  0.00  0.00    +0.000 A 
ATOM      8  C   UNL     1      -0.333  10.618  21.928  0.00  0.00    +0.000 A 
ATOM      9  C   UNL     1      -0.495  12.502  18.829  0.00  0.00    +0.000 C 
ATOM     10  O   UNL     1      -0.744  13.523  18.215  0.00  0.00    +0.000 OA
ENDROOT
BRANCH   1  15
ATOM     11  C   UNL     1      -4.105  11.212  18.019  0.00  0.00    +0.000 A 
ATOM     12  C   UNL     1      -4.137  10.791  16.685  0.00  0.00    +0.000 A 
ATOM     13  C   UNL     1      -3.098  10.051  16.134  0.00  0.00    +0.000 A 
ATOM     14  C   UNL     1      -1.934   9.867  16.860  0.00  0.00    +0.000 A 
ATOM     15  C   UNL     1      -1.763  10.569  18.061  0.00  0.00    +0.000 A 
ATOM     16  C   UNL     1      -2.891  11.093  18.711  0.00  0.00    +0.000 A 
BRANCH  11  22
ATOM     17  C   UNL     1      -6.770   9.886  19.087  0.00  0.00    +0.000 C 
ATOM     18  N   UNL     1      -6.416  11.281  19.081  0.00  0.00    +0.000 N 
ATOM     19  C   UNL     1      -7.191  12.276  19.597  0.00  0.00    +0.000 A 
ATOM     20  N   UNL     1      -6.550  13.420  19.508  0.00  0.00    +0.000 NA
ATOM     21  N   UNL     1      -5.331  13.166  18.930  0.00  0.00    +0.000 NA
ATOM     22  C   UNL     1      -5.252  11.873  18.646  0.00  0.00    +0.000 A 
ENDBRANCH  11  22
ENDBRANCH   1  15
BRANCH   8  23
ATOM     23  C   UNL     1      -0.143   9.178  22.334  0.00  0.00    +0.000 C 
ATOM     24  F   UNL     1      -0.943   8.300  21.674  0.00  0.00    +0.000 F 
ATOM     25  F   UNL     1       1.132   8.750  22.123  0.00  0.00    +0.000 F 
ATOM     26  F   UNL     1      -0.387   8.982  23.661  0.00  0.00    +0.000 F 
ENDBRANCH   8  23
BRANCH   6  27
ATOM     27  C   UNL     1      -1.793  13.798  23.557  0.00  0.00    +0.000 C 
BRANCH  27  28
ATOM     28  N   UNL     1      -3.174  13.417  23.841  0.00  0.00    +0.000 NA
ATOM     29  H   UNL     1      -3.474  13.837  24.722  0.00  0.00    +0.000 HD
BRANCH  28  30
ATOM     30  C   UNL     1      -4.091  13.861  22.783  0.00  0.00    +0.000 C 
BRANCH  30  31
ATOM     31  C   UNL     1      -5.388  13.051  22.838  0.00  0.00    +0.000 C 
ATOM     32  C   UNL     1      -6.687  13.801  23.176  0.00  0.00    +0.000 C 
ATOM     33  C   UNL     1      -6.911  12.646  24.153  0.00  0.00    +0.000 C 
ATOM     34  O   UNL     1      -5.504  12.288  24.083  0.00  0.00    +0.000 OA
ENDBRANCH  30  31
ENDBRANCH  28  30
ENDBRANCH  27  28
ENDBRANCH   6  27
TORSDOF 7
ENDMDL
MODEL 4
REMARK VINA RESULT:      -7.7      5.171     10.044
REMARK  Name = 
REMARK  8 active torsions:
REMARK  status: ('A' for Active; 'I' for Inactive)
REMARK    1  A    between atoms: C_1  and  N_2
REMARK    2  A    between atoms: C_6  and  C_7
REMARK    3  A    between atoms: C_11  and  N_12
REMARK    4  A    between atoms: C_17  and  C_18
REMARK    5  A    between atoms: C_18  and  N_19
REMARK    6  A    between atoms: N_19  and  C_20
REMARK    7  A    between atoms: C_20  and  C_21
REMARK    8  A    between atoms: C_26  and  C_27
REMARK                            x       y       z     vdW  Elec       q    Type
REMARK                         _______ _______ _______ _____ _____    ______ ____
ROOT
ATOM      1  N   UNL     1       0.740   8.301  21.216  0.00  0.00    +0.000 N 
ATOM      2  C   UNL     1      -0.495   8.638  20.466  0.00  0.00    +0.000 C 
ATOM      3  C   UNL     1      -0.317  10.101  20.189  0.00  0.00    +0.000 A 
ATOM      4  C   UNL     1       0.516  10.618  21.183  0.00  0.00    +0.000 A 
ATOM      5  C   UNL     1       0.995  11.918  21.163  0.00  0.00    +0.000 A 
ATOM      6  C   UNL     1       0.634  12.735  20.082  0.00  0.00    +0.000 A 
ATOM      7  C   UNL     1      -0.206  12.211  19.070  0.00  0.00    +0.000 A 
ATOM      8  C   UNL     1      -0.693  10.884  19.103  0.00  0.00    +0.000 A 
ATOM      9  C   UNL     1       1.075   9.475  21.944  0.00  0.00    +0.000 C 
ATOM     10  O   UNL     1       1.841   9.586  22.884  0.00  0.00    +0.000 OA
ENDROOT
BRANCH   1  15
ATOM     11  C   UNL     1       2.381   5.745  19.181  0.00  0.00    +0.000 A 
ATOM     12  C   UNL     1       2.310   6.453  17.976  0.00  0.00    +0.000 A 
ATOM     13  C   UNL     1       2.226   7.840  17.955  0.00  0.00    +0.000 A 
ATOM     14  C   UNL     1       2.039   8.529  19.141  0.00  0.00    +0.000 A 
ATOM     15  C   UNL     1       1.771   7.806  20.312  0.00  0.00    +0.000 A 
ATOM     16  C   UNL     1       2.106   6.444  20.365  0.00  0.00    +0.000 A 
BRANCH  11  22
ATOM     17  C   UNL     1       5.136   4.202  19.025  0.00  0.00    +0.000 C 
ATOM     18  N   UNL     1       3.813   3.643  19.116  0.00  0.00    +0.000 N 
ATOM     19  C   UNL     1       3.542   2.310  19.197  0.00  0.00    +0.000 A 
ATOM     20  N   UNL     1       2.248   2.136  19.351  0.00  0.00    +0.000 NA
ATOM     21  N   UNL     1       1.665   3.378  19.378  0.00  0.00    +0.000 NA
ATOM     22  C   UNL     1       2.606   4.298  19.213  0.00  0.00    +0.000 A 
ENDBRANCH  11  22
ENDBRANCH   1  15
BRANCH   8  23
ATOM     23  C   UNL     1      -1.485  10.363  17.930  0.00  0.00    +0.000 C 
ATOM     24  F   UNL     1      -2.628   9.712  18.269  0.00  0.00    +0.000 F 
ATOM     25  F   UNL     1      -1.863  11.361  17.084  0.00  0.00    +0.000 F 
ATOM     26  F   UNL     1      -0.765   9.487  17.174  0.00  0.00    +0.000 F 
ENDBRANCH   8  23
BRANCH   6  27
ATOM     27  C   UNL     1       1.184  14.144  19.967  0.00  0.00    +0.000 C 
BRANCH  27  28
ATOM     28  N   UNL     1       1.588  14.445  18.596  0.00  0.00    +0.000 NA
ATOM     29  H   UNL     1       0.768  14.451  17.988  0.00  0.00    +0.000 HD
BRANCH  28  30
ATOM     30  C   UNL     1       2.245  15.755  18.497  0.00  0.00    +0.000 C 
BRANCH  30  31
ATOM     31  C   UNL     1       1.290  16.857  18.960  0.00  0.00    +0.000 C 
ATOM     32  C   UNL     1       0.066  17.161  18.080  0.00  0.00    +0.000 C 
ATOM     33  C   UNL     1       0.495  18.616  18.263  0.00  0.00    +0.000 C 
ATOM     34  O   UNL     1       1.822  18.193  18.682  0.00  0.00    +0.000 OA
ENDBRANCH  30  31
ENDBRANCH  28  30
ENDBRANCH  27  28
ENDBRANCH   6  27
TORSDOF 7
ENDMDL
MODEL 5
REMARK VINA RESULT:      -7.7      5.536     10.539
REMARK  Name = 
REMARK  8 active torsions:
REMARK  status: ('A' for Active; 'I' for Inactive)
REMARK    1  A    between atoms: C_1  and  N_2
REMARK    2  A    between atoms: C_6  and  C_7
REMARK    3  A    between atoms: C_11  and  N_12
REMARK    4  A    between atoms: C_17  and  C_18
REMARK    5  A    between atoms: C_18  and  N_19
REMARK    6  A    between atoms: N_19  and  C_20
REMARK    7  A    between atoms: C_20  and  C_21
REMARK    8  A    between atoms: C_26  and  C_27
REMARK                            x       y       z     vdW  Elec       q    Type
REMARK                         _______ _______ _______ _____ _____    ______ ____
ROOT
ATOM      1  N   UNL     1       0.362   8.602  21.064  0.00  0.00    +0.000 N 
ATOM      2  C   UNL     1      -0.860   8.704  20.230  0.00  0.00    +0.000 C 
ATOM      3  C   UNL     1      -0.996  10.184  20.033  0.00  0.00    +0.000 A 
ATOM      4  C   UNL     1      -0.374  10.810  21.115  0.00  0.00    +0.000 A 
ATOM      5  C   UNL     1      -0.200  12.183  21.192  0.00  0.00    +0.000 A 
ATOM      6  C   UNL     1      -0.657  12.965  20.121  0.00  0.00    +0.000 A 
ATOM      7  C   UNL     1      -1.284  12.332  19.021  0.00  0.00    +0.000 A 
ATOM      8  C   UNL     1      -1.461  10.930  18.955  0.00  0.00    +0.000 A 
ATOM      9  C   UNL     1       0.372   9.774  21.869  0.00  0.00    +0.000 C 
ATOM     10  O   UNL     1       1.024   9.994  22.873  0.00  0.00    +0.000 OA
ENDROOT
BRANCH   1  15
ATOM     11  C   UNL     1       2.802   6.576  19.245  0.00  0.00    +0.000 A 
ATOM     12  C   UNL     1       2.582   7.172  17.998  0.00  0.00    +0.000 A 
ATOM     13  C   UNL     1       2.084   8.464  17.891  0.00  0.00    +0.000 A 
ATOM     14  C   UNL     1       1.637   9.118  19.026  0.00  0.00    +0.000 A 
ATOM     15  C   UNL     1       1.540   8.404  20.228  0.00  0.00    +0.000 A 
ATOM     16  C   UNL     1       2.268   7.213  20.375  0.00  0.00    +0.000 A 
BRANCH  11  22
ATOM     17  C   UNL     1       1.431   3.753  19.628  0.00  0.00    +0.000 C 
ATOM     18  N   UNL     1       2.837   4.052  19.566  0.00  0.00    +0.000 N 
ATOM     19  C   UNL     1       3.829   3.119  19.620  0.00  0.00    +0.000 A 
ATOM     20  N   UNL     1       4.993   3.708  19.455  0.00  0.00    +0.000 NA
ATOM     21  N   UNL     1       4.756   5.048  19.283  0.00  0.00    +0.000 NA
ATOM     22  C   UNL     1       3.452   5.269  19.372  0.00  0.00    +0.000 A 
ENDBRANCH  11  22
ENDBRANCH   1  15
BRANCH   8  23
ATOM     23  C   UNL     1      -2.030  10.320  17.698  0.00  0.00    +0.000 C 
ATOM     24  F   UNL     1      -2.450  11.226  16.777  0.00  0.00    +0.000 F 
ATOM     25  F   UNL     1      -1.125   9.531  17.056  0.00  0.00    +0.000 F 
ATOM     26  F   UNL     1      -3.104   9.522  17.956  0.00  0.00    +0.000 F 
ENDBRANCH   8  23
BRANCH   6  27
ATOM     27  C   UNL     1      -0.431  14.464  20.114  0.00  0.00    +0.000 C 
BRANCH  27  28
ATOM     28  N   UNL     1      -1.696  15.191  20.180  0.00  0.00    +0.000 NA
ATOM     29  H   UNL     1      -2.419  14.672  19.678  0.00  0.00    +0.000 HD
BRANCH  28  30
ATOM     30  C   UNL     1      -2.145  15.380  21.565  0.00  0.00    +0.000 C 
BRANCH  30  31
ATOM     31  C   UNL     1      -3.482  14.669  21.787  0.00  0.00    +0.000 C 
ATOM     32  C   UNL     1      -3.464  13.329  22.540  0.00  0.00    +0.000 C 
ATOM     33  C   UNL     1      -4.359  12.856  21.395  0.00  0.00    +0.000 C 
ATOM     34  O   UNL     1      -3.943  13.984  20.577  0.00  0.00    +0.000 OA
ENDBRANCH  30  31
ENDBRANCH  28  30
ENDBRANCH  27  28
ENDBRANCH   6  27
TORSDOF 7
ENDMDL
MODEL 6
REMARK VINA RESULT:      -7.7      5.503      9.357
REMARK  Name = 
REMARK  8 active torsions:
REMARK  status: ('A' for Active; 'I' for Inactive)
REMARK    1  A    between atoms: C_1  and  N_2
REMARK    2  A    between atoms: C_6  and  C_7
REMARK    3  A    between atoms: C_11  and  N_12
REMARK    4  A    between atoms: C_17  and  C_18
REMARK    5  A    between atoms: C_18  and  N_19
REMARK    6  A    between atoms: N_19  and  C_20
REMARK    7  A    between atoms: C_20  and  C_21
REMARK    8  A    between atoms: C_26  and  C_27
REMARK                            x       y       z     vdW  Elec       q    Type
REMARK                         _______ _______ _______ _____ _____    ______ ____
ROOT
ATOM      1  N   UNL     1       0.731   8.369  21.077  0.00  0.00    +0.000 N 
ATOM      2  C   UNL     1      -0.511   8.647  20.314  0.00  0.00    +0.000 C 
ATOM      3  C   UNL     1      -0.425  10.127  20.084  0.00  0.00    +0.000 A 
ATOM      4  C   UNL     1       0.354  10.666  21.110  0.00  0.00    +0.000 A 
ATOM      5  C   UNL     1       0.745  11.995  21.138  0.00  0.00    +0.000 A 
ATOM      6  C   UNL     1       0.350  12.821  20.075  0.00  0.00    +0.000 A 
ATOM      7  C   UNL     1      -0.436  12.274  19.033  0.00  0.00    +0.000 A 
ATOM      8  C   UNL     1      -0.834  10.917  19.016  0.00  0.00    +0.000 A 
ATOM      9  C   UNL     1       0.974   9.539  21.846  0.00  0.00    +0.000 C 
ATOM     10  O   UNL     1       1.715   9.671  22.804  0.00  0.00    +0.000 OA
ENDROOT
BRANCH   1  15
ATOM     11  C   UNL     1       2.800   5.940  19.291  0.00  0.00    +0.000 A 
ATOM     12  C   UNL     1       2.533   6.437  18.011  0.00  0.00    +0.000 A 
ATOM     13  C   UNL     1       2.154   7.759  17.813  0.00  0.00    +0.000 A 
ATOM     14  C   UNL     1       1.870   8.558  18.906  0.00  0.00    +0.000 A 
ATOM     15  C   UNL     1       1.808   7.972  20.178  0.00  0.00    +0.000 A 
ATOM     16  C   UNL     1       2.428   6.731  20.389  0.00  0.00    +0.000 A 
BRANCH  11  22
ATOM     17  C   UNL     1       1.195   3.311  20.005  0.00  0.00    +0.000 C 
ATOM     18  N   UNL     1       2.616   3.462  19.838  0.00  0.00    +0.000 N 
ATOM     19  C   UNL     1       3.515   2.442  19.921  0.00  0.00    +0.000 A 
ATOM     20  N   UNL     1       4.717   2.895  19.639  0.00  0.00    +0.000 NA
ATOM     21  N   UNL     1       4.598   4.232  19.358  0.00  0.00    +0.000 NA
ATOM     22  C   UNL     1       3.329   4.590  19.500  0.00  0.00    +0.000 A 
ENDBRANCH  11  22
ENDBRANCH   1  15
BRANCH   8  23
ATOM     23  C   UNL     1      -1.569  10.383  17.812  0.00  0.00    +0.000 C 
ATOM     24  F   UNL     1      -0.865   9.481  17.079  0.00  0.00    +0.000 F 
ATOM     25  F   UNL     1      -2.728   9.757  18.156  0.00  0.00    +0.000 F 
ATOM     26  F   UNL     1      -1.924  11.374  16.946  0.00  0.00    +0.000 F 
ENDBRANCH   8  23
BRANCH   6  27
ATOM     27  C   UNL     1       0.806  14.265  20.014  0.00  0.00    +0.000 C 
BRANCH  27  28
ATOM     28  N   UNL     1       1.510  14.545  18.765  0.00  0.00    +0.000 NA
ATOM     29  H   UNL     1       1.625  15.554  18.653  0.00  0.00    +0.000 HD
BRANCH  28  30
ATOM     30  C   UNL     1       2.842  13.926  18.739  0.00  0.00    +0.000 C 
BRANCH  30  31
ATOM     31  C   UNL     1       3.924  15.005  18.813  0.00  0.00    +0.000 C 
ATOM     32  C   UNL     1       5.154  14.850  17.903  0.00  0.00    +0.000 C 
ATOM     33  C   UNL     1       5.938  15.162  19.177  0.00  0.00    +0.000 C 
ATOM     34  O   UNL     1       4.777  14.844  19.994  0.00  0.00    +0.000 OA
ENDBRANCH  30  31
ENDBRANCH  28  30
ENDBRANCH  27  28
ENDBRANCH   6  27
TORSDOF 7
ENDMDL
MODEL 7
REMARK VINA RESULT:      -7.7      5.490     10.317
REMARK  Name = 
REMARK  8 active torsions:
REMARK  status: ('A' for Active; 'I' for Inactive)
REMARK    1  A    between atoms: C_1  and  N_2
REMARK    2  A    between atoms: C_6  and  C_7
REMARK    3  A    between atoms: C_11  and  N_12
REMARK    4  A    between atoms: C_17  and  C_18
REMARK    5  A    between atoms: C_18  and  N_19
REMARK    6  A    between atoms: N_19  and  C_20
REMARK    7  A    between atoms: C_20  and  C_21
REMARK    8  A    between atoms: C_26  and  C_27
REMARK                            x       y       z     vdW  Elec       q    Type
REMARK                         _______ _______ _______ _____ _____    ______ ____
ROOT
ATOM      1  N   UNL     1       0.750   8.346  21.104  0.00  0.00    +0.000 N 
ATOM      2  C   UNL     1      -0.498   8.629  20.353  0.00  0.00    +0.000 C 
ATOM      3  C   UNL     1      -0.416  10.111  20.135  0.00  0.00    +0.000 A 
ATOM      4  C   UNL     1       0.371  10.643  21.159  0.00  0.00    +0.000 A 
ATOM      5  C   UNL     1       0.762  11.971  21.195  0.00  0.00    +0.000 A 
ATOM      6  C   UNL     1       0.357  12.805  20.142  0.00  0.00    +0.000 A 
ATOM      7  C   UNL     1      -0.437  12.267  19.101  0.00  0.00    +0.000 A 
ATOM      8  C   UNL     1      -0.834  10.909  19.077  0.00  0.00    +0.000 A 
ATOM      9  C   UNL     1       0.998   9.510  21.881  0.00  0.00    +0.000 C 
ATOM     10  O   UNL     1       1.747   9.635  22.834  0.00  0.00    +0.000 OA
ENDROOT
BRANCH   1  15
ATOM     11  C   UNL     1       2.811   5.933  19.288  0.00  0.00    +0.000 A 
ATOM     12  C   UNL     1       2.530   6.435  18.013  0.00  0.00    +0.000 A 
ATOM     13  C   UNL     1       2.144   7.756  17.824  0.00  0.00    +0.000 A 
ATOM     14  C   UNL     1       1.868   8.549  18.924  0.00  0.00    +0.000 A 
ATOM     15  C   UNL     1       1.820   7.957  20.194  0.00  0.00    +0.000 A 
ATOM     16  C   UNL     1       2.447   6.717  20.393  0.00  0.00    +0.000 A 
BRANCH  11  22
ATOM     17  C   UNL     1       1.222   3.293  19.996  0.00  0.00    +0.000 C 
ATOM     18  N   UNL     1       2.641   3.451  19.821  0.00  0.00    +0.000 N 
ATOM     19  C   UNL     1       3.546   2.435  19.893  0.00  0.00    +0.000 A 
ATOM     20  N   UNL     1       4.744   2.894  19.607  0.00  0.00    +0.000 NA
ATOM     21  N   UNL     1       4.617   4.233  19.335  0.00  0.00    +0.000 NA
ATOM     22  C   UNL     1       3.348   4.584  19.486  0.00  0.00    +0.000 A 
ENDBRANCH  11  22
ENDBRANCH   1  15
BRANCH   8  23
ATOM     23  C   UNL     1      -1.579  10.384  17.875  0.00  0.00    +0.000 C 
ATOM     24  F   UNL     1      -2.710   9.694  18.174  0.00  0.00    +0.000 F 
ATOM     25  F   UNL     1      -1.964  11.383  17.034  0.00  0.00    +0.000 F 
ATOM     26  F   UNL     1      -0.813   9.541  17.125  0.00  0.00    +0.000 F 
ENDBRANCH   8  23
BRANCH   6  27
ATOM     27  C   UNL     1       0.811  14.250  20.088  0.00  0.00    +0.000 C 
BRANCH  27  28
ATOM     28  N   UNL     1      -0.272  15.161  20.448  0.00  0.00    +0.000 NA
ATOM     29  H   UNL     1      -1.172  14.728  20.236  0.00  0.00    +0.000 HD
BRANCH  28  30
ATOM     30  C   UNL     1      -0.250  15.496  21.878  0.00  0.00    +0.000 C 
BRANCH  30  31
ATOM     31  C   UNL     1      -1.531  15.001  22.554  0.00  0.00    +0.000 C 
ATOM     32  C   UNL     1      -1.431  13.762  23.458  0.00  0.00    +0.000 C 
ATOM     33  C   UNL     1      -2.658  13.290  22.679  0.00  0.00    +0.000 C 
ATOM     34  O   UNL     1      -2.385  14.255  21.626  0.00  0.00    +0.000 OA
ENDBRANCH  30  31
ENDBRANCH  28  30
ENDBRANCH  27  28
ENDBRANCH   6  27
TORSDOF 7
ENDMDL
MODEL 8
REMARK VINA RESULT:      -7.6      5.594      9.588
REMARK  Name = 
REMARK  8 active torsions:
REMARK  status: ('A' for Active; 'I' for Inactive)
REMARK    1  A    between atoms: C_1  and  N_2
REMARK    2  A    between atoms: C_6  and  C_7
REMARK    3  A    between atoms: C_11  and  N_12
REMARK    4  A    between atoms: C_17  and  C_18
REMARK    5  A    between atoms: C_18  and  N_19
REMARK    6  A    between atoms: N_19  and  C_20
REMARK    7  A    between atoms: C_20  and  C_21
REMARK    8  A    between atoms: C_26  and  C_27
REMARK                            x       y       z     vdW  Elec       q    Type
REMARK                         _______ _______ _______ _____ _____    ______ ____
ROOT
ATOM      1  N   UNL     1       0.446   8.543  21.187  0.00  0.00    +0.000 N 
ATOM      2  C   UNL     1      -0.752   8.827  20.359  0.00  0.00    +0.000 C 
ATOM      3  C   UNL     1      -0.719  10.321  20.242  0.00  0.00    +0.000 A 
ATOM      4  C   UNL     1      -0.037  10.815  21.357  0.00  0.00    +0.000 A 
ATOM      5  C   UNL     1       0.290  12.152  21.507  0.00  0.00    +0.000 A 
ATOM      6  C   UNL     1      -0.069  13.038  20.480  0.00  0.00    +0.000 A 
ATOM      7  C   UNL     1      -0.756  12.539  19.348  0.00  0.00    +0.000 A 
ATOM      8  C   UNL     1      -1.089  11.172  19.206  0.00  0.00    +0.000 A 
ATOM      9  C   UNL     1       0.582   9.662  22.054  0.00  0.00    +0.000 C 
ATOM     10  O   UNL     1       1.249   9.753  23.069  0.00  0.00    +0.000 OA
ENDROOT
BRANCH   1  15
ATOM     11  C   UNL     1       2.743   6.339  19.389  0.00  0.00    +0.000 A 
ATOM     12  C   UNL     1       2.540   6.915  18.131  0.00  0.00    +0.000 A 
ATOM     13  C   UNL     1       2.113   8.231  17.998  0.00  0.00    +0.000 A 
ATOM     14  C   UNL     1       1.719   8.937  19.121  0.00  0.00    +0.000 A 
ATOM     15  C   UNL     1       1.599   8.258  20.342  0.00  0.00    +0.000 A 
ATOM     16  C   UNL     1       2.261   7.032  20.510  0.00  0.00    +0.000 A 
BRANCH  11  22
ATOM     17  C   UNL     1       1.243   3.643  20.083  0.00  0.00    +0.000 C 
ATOM     18  N   UNL     1       2.652   3.842  19.871  0.00  0.00    +0.000 N 
ATOM     19  C   UNL     1       3.585   2.849  19.894  0.00  0.00    +0.000 A 
ATOM     20  N   UNL     1       4.762   3.346  19.583  0.00  0.00    +0.000 NA
ATOM     21  N   UNL     1       4.593   4.687  19.345  0.00  0.00    +0.000 NA
ATOM     22  C   UNL     1       3.320   5.001  19.541  0.00  0.00    +0.000 A 
ENDBRANCH  11  22
ENDBRANCH   1  15
BRANCH   8  23
ATOM     23  C   UNL     1      -1.716  10.699  17.918  0.00  0.00    +0.000 C 
ATOM     24  F   UNL     1      -1.985  11.690  17.028  0.00  0.00    +0.000 F 
ATOM     25  F   UNL     1      -0.921   9.812  17.257  0.00  0.00    +0.000 F 
ATOM     26  F   UNL     1      -2.898  10.054  18.129  0.00  0.00    +0.000 F 
ENDBRANCH   8  23
BRANCH   6  27
ATOM     27  C   UNL     1       0.324  14.500  20.554  0.00  0.00    +0.000 C 
BRANCH  27  28
ATOM     28  N   UNL     1       1.711  14.697  20.142  0.00  0.00    +0.000 NA
ATOM     29  H   UNL     1       2.055  13.858  19.674  0.00  0.00    +0.000 HD
BRANCH  28  30
ATOM     30  C   UNL     1       1.849  15.829  19.216  0.00  0.00    +0.000 C 
BRANCH  30  31
ATOM     31  C   UNL     1       2.845  15.481  18.107  0.00  0.00    +0.000 C 
ATOM     32  C   UNL     1       3.634  14.168  18.238  0.00  0.00    +0.000 C 
ATOM     33  C   UNL     1       4.838  15.043  17.892  0.00  0.00    +0.000 C 
ATOM     34  O   UNL     1       4.090  16.243  18.232  0.00  0.00    +0.000 OA
ENDBRANCH  30  31
ENDBRANCH  28  30
ENDBRANCH  27  28
ENDBRANCH   6  27
TORSDOF 7
ENDMDL
MODEL 9
REMARK VINA RESULT:      -7.6      5.237     10.371
REMARK  Name = 
REMARK  8 active torsions:
REMARK  status: ('A' for Active; 'I' for Inactive)
REMARK    1  A    between atoms: C_1  and  N_2
REMARK    2  A    between atoms: C_6  and  C_7
REMARK    3  A    between atoms: C_11  and  N_12
REMARK    4  A    between atoms: C_17  and  C_18
REMARK    5  A    between atoms: C_18  and  N_19
REMARK    6  A    between atoms: N_19  and  C_20
REMARK    7  A    between atoms: C_20  and  C_21
REMARK    8  A    between atoms: C_26  and  C_27
REMARK                            x       y       z     vdW  Elec       q    Type
REMARK                         _______ _______ _______ _____ _____    ______ ____
ROOT
ATOM      1  N   UNL     1       0.588   8.401  21.159  0.00  0.00    +0.000 N 
ATOM      2  C   UNL     1      -0.638   8.671  20.369  0.00  0.00    +0.000 C 
ATOM      3  C   UNL     1      -0.581  10.157  20.177  0.00  0.00    +0.000 A 
ATOM      4  C   UNL     1       0.158  10.688  21.237  0.00  0.00    +0.000 A 
ATOM      5  C   UNL     1       0.518  12.024  21.308  0.00  0.00    +0.000 A 
ATOM      6  C   UNL     1       0.133  12.867  20.255  0.00  0.00    +0.000 A 
ATOM      7  C   UNL     1      -0.612  12.329  19.177  0.00  0.00    +0.000 A 
ATOM      8  C   UNL     1      -0.978  10.964  19.117  0.00  0.00    +0.000 A 
ATOM      9  C   UNL     1       0.784   9.557  21.963  0.00  0.00    +0.000 C 
ATOM     10  O   UNL     1       1.495   9.682  22.944  0.00  0.00    +0.000 OA
ENDROOT
BRANCH   1  15
ATOM     11  C   UNL     1       2.681   6.072  19.272  0.00  0.00    +0.000 A 
ATOM     12  C   UNL     1       2.490   6.682  18.028  0.00  0.00    +0.000 A 
ATOM     13  C   UNL     1       2.154   8.027  17.925  0.00  0.00    +0.000 A 
ATOM     14  C   UNL     1       1.837   8.739  19.068  0.00  0.00    +0.000 A 
ATOM     15  C   UNL     1       1.698   8.050  20.282  0.00  0.00    +0.000 A 
ATOM     16  C   UNL     1       2.276   6.778  20.414  0.00  0.00    +0.000 A 
BRANCH  11  22
ATOM     17  C   UNL     1       5.672   5.049  19.178  0.00  0.00    +0.000 C 
ATOM     18  N   UNL     1       4.473   4.266  19.318  0.00  0.00    +0.000 N 
ATOM     19  C   UNL     1       4.449   2.914  19.483  0.00  0.00    +0.000 A 
ATOM     20  N   UNL     1       3.208   2.517  19.662  0.00  0.00    +0.000 NA
ATOM     21  N   UNL     1       2.409   3.631  19.621  0.00  0.00    +0.000 NA
ATOM     22  C   UNL     1       3.166   4.695  19.389  0.00  0.00    +0.000 A 
ENDBRANCH  11  22
ENDBRANCH   1  15
BRANCH   8  23
ATOM     23  C   UNL     1      -1.668  10.443  17.881  0.00  0.00    +0.000 C 
ATOM     24  F   UNL     1      -2.822   9.769  18.125  0.00  0.00    +0.000 F 
ATOM     25  F   UNL     1      -1.998  11.444  17.019  0.00  0.00    +0.000 F 
ATOM     26  F   UNL     1      -0.876   9.588  17.174  0.00  0.00    +0.000 F 
ENDBRANCH   8  23
BRANCH   6  27
ATOM     27  C   UNL     1       0.558  14.322  20.240  0.00  0.00    +0.000 C 
BRANCH  27  28
ATOM     28  N   UNL     1      -0.581  15.209  20.457  0.00  0.00    +0.000 NA
ATOM     29  H   UNL     1      -1.374  14.898  19.893  0.00  0.00    +0.000 HD
BRANCH  28  30
ATOM     30  C   UNL     1      -0.999  15.226  21.866  0.00  0.00    +0.000 C 
BRANCH  30  31
ATOM     31  C   UNL     1      -2.457  14.777  21.987  0.00  0.00    +0.000 C 
ATOM     32  C   UNL     1      -2.730  13.375  22.555  0.00  0.00    +0.000 C 
ATOM     33  C   UNL     1      -3.667  13.246  21.355  0.00  0.00    +0.000 C 
ATOM     34  O   UNL     1      -3.010  14.363  20.695  0.00  0.00    +0.000 OA
ENDBRANCH  30  31
ENDBRANCH  28  30
ENDBRANCH  27  28
ENDBRANCH   6  27
TORSDOF 7
ENDMDL
