MODEL 1
REMARK VINA RESULT:      -8.8      0.000      0.000
REMARK  Name = 
REMARK  7 active torsions:
REMARK  status: ('A' for Active; 'I' for Inactive)
REMARK    1  A    between atoms: C_1  and  C_2
REMARK    2  A    between atoms: C_5  and  N_6
REMARK    3  A    between atoms: C_7  and  C_9
REMARK    4  A    between atoms: C_11  and  C_12
REMARK    5  A    between atoms: N_16  and  C_17
REMARK    6  A    between atoms: C_24  and  S_25
REMARK    7  A    between atoms: S_25  and  N_26
REMARK                            x       y       z     vdW  Elec       q    Type
REMARK                         _______ _______ _______ _____ _____    ______ ____
ROOT
ATOM      1  N   UNL     1       2.234   7.779  19.934  0.00  0.00    +0.000 N 
ATOM      2  C   UNL     1       2.337   7.667  18.553  0.00  0.00    +0.000 C 
ATOM      3  O   UNL     1       1.589   8.235  17.767  0.00  0.00    +0.000 OA
ATOM      4  H   UNL     1       2.830   7.189  20.500  0.00  0.00    +0.000 HD
ENDROOT
BRANCH   1   9
ATOM      5  C   UNL     1      -1.353  11.351  22.709  0.00  0.00    +0.000 C 
ATOM      6  C   UNL     1      -0.440  10.445  21.934  0.00  0.00    +0.000 A 
ATOM      7  C   UNL     1       0.117   9.354  22.607  0.00  0.00    +0.000 A 
ATOM      8  C   UNL     1       0.993   8.475  21.966  0.00  0.00    +0.000 A 
ATOM      9  C   UNL     1       1.339   8.642  20.623  0.00  0.00    +0.000 A 
ATOM     10  C   UNL     1       0.773   9.715  19.929  0.00  0.00    +0.000 A 
ATOM     11  C   UNL     1      -0.090  10.625  20.584  0.00  0.00    +0.000 A 
BRANCH  11  12
ATOM     12  S   UNL     1      -0.671  12.010  19.632  0.00  0.00    +0.000 S 
ATOM     13  O   UNL     1      -2.093  11.858  19.405  0.00  0.00    +0.000 OA
ATOM     14  O   UNL     1      -0.108  13.247  20.112  0.00  0.00    +0.000 OA
BRANCH  12  15
ATOM     15  N   UNL     1       0.057  11.709  18.149  0.00  0.00    +0.000 NA
ATOM     16  H   UNL     1       0.887  12.291  18.044  0.00  0.00    +0.000 HD
ATOM     17  H   UNL     1       0.233  10.710  18.039  0.00  0.00    +0.000 HD
ENDBRANCH  12  15
ENDBRANCH  11  12
ENDBRANCH   1   9
BRANCH   2  18
ATOM     18  C   UNL     1       3.382   6.798  18.064  0.00  0.00    +0.000 A 
ATOM     19  C   UNL     1       4.465   7.061  17.241  0.00  0.00    +0.000 A 
ATOM     20  C   UNL     1       5.307   5.944  17.383  0.00  0.00    +0.000 A 
ATOM     21  N   UNL     1       4.801   5.027  18.203  0.00  0.00    +0.000 NA
ATOM     22  N   UNL     1       3.563   5.493  18.518  0.00  0.00    +0.000 N 
BRANCH  22  23
ATOM     23  C   UNL     1       2.644   4.626  19.182  0.00  0.00    +0.000 A 
ATOM     24  C   UNL     1       1.721   3.895  18.422  0.00  0.00    +0.000 A 
ATOM     25  C   UNL     1       0.831   3.023  19.053  0.00  0.00    +0.000 A 
ATOM     26  C   UNL     1       0.833   2.903  20.442  0.00  0.00    +0.000 A 
ATOM     27  C   UNL     1       1.726   3.654  21.204  0.00  0.00    +0.000 A 
ATOM     28  C   UNL     1       2.629   4.516  20.579  0.00  0.00    +0.000 A 
ENDBRANCH  22  23
BRANCH  20  29
ATOM     29  C   UNL     1       6.670   5.814  16.719  0.00  0.00    +0.000 C 
ATOM     30  C   UNL     1       6.850   4.765  15.637  0.00  0.00    +0.000 C 
ATOM     31  C   UNL     1       7.483   4.558  16.969  0.00  0.00    +0.000 C 
ENDBRANCH  20  29
ENDBRANCH   2  18
TORSDOF 6
ENDMDL
MODEL 2
REMARK VINA RESULT:      -8.8      0.718      1.213
REMARK  Name = 
REMARK  7 active torsions:
REMARK  status: ('A' for Active; 'I' for Inactive)
REMARK    1  A    between atoms: C_1  and  C_2
REMARK    2  A    between atoms: C_5  and  N_6
REMARK    3  A    between atoms: C_7  and  C_9
REMARK    4  A    between atoms: C_11  and  C_12
REMARK    5  A    between atoms: N_16  and  C_17
REMARK    6  A    between atoms: C_24  and  S_25
REMARK    7  A    between atoms: S_25  and  N_26
REMARK                            x       y       z     vdW  Elec       q    Type
REMARK                         _______ _______ _______ _____ _____    ______ ____
ROOT
ATOM      1  N   UNL     1       2.222   7.771  19.958  0.00  0.00    +0.000 N 
ATOM      2  C   UNL     1       2.305   7.641  18.577  0.00  0.00    +0.000 C 
ATOM      3  O   UNL     1       1.533   8.183  17.796  0.00  0.00    +0.000 OA
ATOM      4  H   UNL     1       2.839   7.201  20.521  0.00  0.00    +0.000 HD
ENDROOT
BRANCH   1   9
ATOM      5  C   UNL     1      -1.369  11.296  22.787  0.00  0.00    +0.000 C 
ATOM      6  C   UNL     1      -0.427  10.423  22.009  0.00  0.00    +0.000 A 
ATOM      7  C   UNL     1      -0.410   9.057  22.307  0.00  0.00    +0.000 A 
ATOM      8  C   UNL     1       0.451   8.179  21.645  0.00  0.00    +0.000 A 
ATOM      9  C   UNL     1       1.323   8.626  20.649  0.00  0.00    +0.000 A 
ATOM     10  C   UNL     1       1.301   9.985  20.321  0.00  0.00    +0.000 A 
ATOM     11  C   UNL     1       0.452  10.882  21.012  0.00  0.00    +0.000 A 
BRANCH  11  12
ATOM     12  S   UNL     1       0.582  12.603  20.584  0.00  0.00    +0.000 S 
ATOM     13  O   UNL     1      -0.628  13.007  19.899  0.00  0.00    +0.000 OA
ATOM     14  O   UNL     1       1.130  13.372  21.674  0.00  0.00    +0.000 OA
BRANCH  12  15
ATOM     15  N   UNL     1       1.773  12.552  19.402  0.00  0.00    +0.000 NA
ATOM     16  H   UNL     1       2.568  13.126  19.682  0.00  0.00    +0.000 HD
ATOM     17  H   UNL     1       2.015  11.584  19.186  0.00  0.00    +0.000 HD
ENDBRANCH  12  15
ENDBRANCH  11  12
ENDBRANCH   1   9
BRANCH   2  18
ATOM     18  C   UNL     1       3.359   6.786  18.082  0.00  0.00    +0.000 A 
ATOM     19  C   UNL     1       4.443   7.067  17.268  0.00  0.00    +0.000 A 
ATOM     20  C   UNL     1       5.293   5.954  17.401  0.00  0.00    +0.000 A 
ATOM     21  N   UNL     1       4.790   5.023  18.207  0.00  0.00    +0.000 NA
ATOM     22  N   UNL     1       3.547   5.476  18.521  0.00  0.00    +0.000 N 
BRANCH  22  23
ATOM     23  C   UNL     1       2.632   4.596  19.170  0.00  0.00    +0.000 A 
ATOM     24  C   UNL     1       2.667   4.478  20.567  0.00  0.00    +0.000 A 
ATOM     25  C   UNL     1       1.761   3.639  21.221  0.00  0.00    +0.000 A 
ATOM     26  C   UNL     1       0.842   2.891  20.487  0.00  0.00    +0.000 A 
ATOM     27  C   UNL     1       0.826   2.978  19.096  0.00  0.00    +0.000 A 
ATOM     28  C   UNL     1       1.718   3.827  18.437  0.00  0.00    +0.000 A 
ENDBRANCH  22  23
BRANCH  20  29
ATOM     29  C   UNL     1       6.660   5.842  16.741  0.00  0.00    +0.000 C 
ATOM     30  C   UNL     1       6.850   4.815  15.640  0.00  0.00    +0.000 C 
ATOM     31  C   UNL     1       7.476   4.584  16.971  0.00  0.00    +0.000 C 
ENDBRANCH  20  29
ENDBRANCH   2  18
TORSDOF 6
ENDMDL
MODEL 3
REMARK VINA RESULT:      -8.7      1.896      2.080
REMARK  Name = 
REMARK  7 active torsions:
REMARK  status: ('A' for Active; 'I' for Inactive)
REMARK    1  A    between atoms: C_1  and  C_2
REMARK    2  A    between atoms: C_5  and  N_6
REMARK    3  A    between atoms: C_7  and  C_9
REMARK    4  A    between atoms: C_11  and  C_12
REMARK    5  A    between atoms: N_16  and  C_17
REMARK    6  A    between atoms: C_24  and  S_25
REMARK    7  A    between atoms: S_25  and  N_26
REMARK                            x       y       z     vdW  Elec       q    Type
REMARK                         _______ _______ _______ _____ _____    ______ ____
ROOT
ATOM      1  N   UNL     1       1.818   8.844  18.169  0.00  0.00    +0.000 N 
ATOM      2  C   UNL     1       2.288   7.740  18.868  0.00  0.00    +0.000 C 
ATOM      3  O   UNL     1       2.008   7.507  20.038  0.00  0.00    +0.000 OA
ATOM      4  H   UNL     1       2.189   9.007  17.242  0.00  0.00    +0.000 HD
ENDROOT
BRANCH   1   9
ATOM      5  C   UNL     1      -2.041  12.689  20.079  0.00  0.00    +0.000 C 
ATOM      6  C   UNL     1      -1.083  11.660  19.553  0.00  0.00    +0.000 A 
ATOM      7  C   UNL     1       0.179  11.582  20.150  0.00  0.00    +0.000 A 
ATOM      8  C   UNL     1       1.137  10.667  19.707  0.00  0.00    +0.000 A 
ATOM      9  C   UNL     1       0.870   9.783  18.658  0.00  0.00    +0.000 A 
ATOM     10  C   UNL     1      -0.395   9.832  18.066  0.00  0.00    +0.000 A 
ATOM     11  C   UNL     1      -1.356  10.778  18.492  0.00  0.00    +0.000 A 
BRANCH  11  12
ATOM     12  S   UNL     1      -2.895  10.819  17.601  0.00  0.00    +0.000 S 
ATOM     13  O   UNL     1      -3.273   9.464  17.259  0.00  0.00    +0.000 OA
ATOM     14  O   UNL     1      -3.826  11.737  18.208  0.00  0.00    +0.000 OA
BRANCH  12  15
ATOM     15  N   UNL     1      -2.412  11.529  16.158  0.00  0.00    +0.000 NA
ATOM     16  H   UNL     1      -1.642  12.176  16.329  0.00  0.00    +0.000 HD
ATOM     17  H   UNL     1      -2.205  10.811  15.463  0.00  0.00    +0.000 HD
ENDBRANCH  12  15
ENDBRANCH  11  12
ENDBRANCH   1   9
BRANCH   2  18
ATOM     18  C   UNL     1       3.177   6.861  18.144  0.00  0.00    +0.000 A 
ATOM     19  C   UNL     1       4.078   7.126  17.127  0.00  0.00    +0.000 A 
ATOM     20  C   UNL     1       4.887   5.979  17.053  0.00  0.00    +0.000 A 
ATOM     21  N   UNL     1       4.524   5.043  17.926  0.00  0.00    +0.000 NA
ATOM     22  N   UNL     1       3.396   5.533  18.505  0.00  0.00    +0.000 N 
BRANCH  22  23
ATOM     23  C   UNL     1       2.599   4.668  19.312  0.00  0.00    +0.000 A 
ATOM     24  C   UNL     1       1.521   3.986  18.729  0.00  0.00    +0.000 A 
ATOM     25  C   UNL     1       0.746   3.115  19.499  0.00  0.00    +0.000 A 
ATOM     26  C   UNL     1       1.018   2.947  20.855  0.00  0.00    +0.000 A 
ATOM     27  C   UNL     1       2.066   3.649  21.447  0.00  0.00    +0.000 A 
ATOM     28  C   UNL     1       2.856   4.509  20.681  0.00  0.00    +0.000 A 
ENDBRANCH  22  23
BRANCH  20  29
ATOM     29  C   UNL     1       6.081   5.836  16.118  0.00  0.00    +0.000 C 
ATOM     30  C   UNL     1       5.958   4.904  14.927  0.00  0.00    +0.000 C 
ATOM     31  C   UNL     1       6.815   4.509  16.078  0.00  0.00    +0.000 C 
ENDBRANCH  20  29
ENDBRANCH   2  18
TORSDOF 6
ENDMDL
MODEL 4
REMARK VINA RESULT:      -8.7      1.838      2.278
REMARK  Name = 
REMARK  7 active torsions:
REMARK  status: ('A' for Active; 'I' for Inactive)
REMARK    1  A    between atoms: C_1  and  C_2
REMARK    2  A    between atoms: C_5  and  N_6
REMARK    3  A    between atoms: C_7  and  C_9
REMARK    4  A    between atoms: C_11  and  C_12
REMARK    5  A    between atoms: N_16  and  C_17
REMARK    6  A    between atoms: C_24  and  S_25
REMARK    7  A    between atoms: S_25  and  N_26
REMARK                            x       y       z     vdW  Elec       q    Type
REMARK                         _______ _______ _______ _____ _____    ______ ____
ROOT
ATOM      1  N   UNL     1       1.761   8.806  17.918  0.00  0.00    +0.000 N 
ATOM      2  C   UNL     1       2.293   7.807  18.724  0.00  0.00    +0.000 C 
ATOM      3  O   UNL     1       1.996   7.656  19.903  0.00  0.00    +0.000 OA
ATOM      4  H   UNL     1       2.147   8.916  16.989  0.00  0.00    +0.000 HD
ENDROOT
BRANCH   1   9
ATOM      5  C   UNL     1      -2.410  12.449  19.548  0.00  0.00    +0.000 C 
ATOM      6  C   UNL     1      -1.284  11.541  19.146  0.00  0.00    +0.000 A 
ATOM      7  C   UNL     1      -1.568  10.513  18.242  0.00  0.00    +0.000 A 
ATOM      8  C   UNL     1      -0.583   9.612  17.832  0.00  0.00    +0.000 A 
ATOM      9  C   UNL     1       0.731   9.707  18.299  0.00  0.00    +0.000 A 
ATOM     10  C   UNL     1       1.038  10.743  19.186  0.00  0.00    +0.000 A 
ATOM     11  C   UNL     1       0.035  11.638  19.627  0.00  0.00    +0.000 A 
BRANCH  11  12
ATOM     12  S   UNL     1       0.515  12.854  20.833  0.00  0.00    +0.000 S 
ATOM     13  O   UNL     1       0.364  14.172  20.253  0.00  0.00    +0.000 OA
ATOM     14  O   UNL     1      -0.012  12.533  22.136  0.00  0.00    +0.000 OA
BRANCH  12  15
ATOM     15  N   UNL     1       2.170  12.586  20.918  0.00  0.00    +0.000 NA
ATOM     16  H   UNL     1       2.654  13.458  21.133  0.00  0.00    +0.000 HD
ATOM     17  H   UNL     1       2.372  11.827  21.569  0.00  0.00    +0.000 HD
ENDBRANCH  12  15
ENDBRANCH  11  12
ENDBRANCH   1   9
BRANCH   2  18
ATOM     18  C   UNL     1       3.267   6.942  18.102  0.00  0.00    +0.000 A 
ATOM     19  C   UNL     1       4.263   7.218  17.180  0.00  0.00    +0.000 A 
ATOM     20  C   UNL     1       5.097   6.085  17.199  0.00  0.00    +0.000 A 
ATOM     21  N   UNL     1       4.664   5.148  18.038  0.00  0.00    +0.000 NA
ATOM     22  N   UNL     1       3.473   5.620  18.494  0.00  0.00    +0.000 N 
BRANCH  22  23
ATOM     23  C   UNL     1       2.613   4.745  19.222  0.00  0.00    +0.000 A 
ATOM     24  C   UNL     1       2.826   4.562  20.596  0.00  0.00    +0.000 A 
ATOM     25  C   UNL     1       1.978   3.728  21.329  0.00  0.00    +0.000 A 
ATOM     26  C   UNL     1       0.941   3.048  20.694  0.00  0.00    +0.000 A 
ATOM     27  C   UNL     1       0.747   3.199  19.322  0.00  0.00    +0.000 A 
ATOM     28  C   UNL     1       1.580   4.043  18.585  0.00  0.00    +0.000 A 
ENDBRANCH  22  23
BRANCH  20  29
ATOM     29  C   UNL     1       6.382   5.959  16.393  0.00  0.00    +0.000 C 
ATOM     30  C   UNL     1       6.387   5.050  15.177  0.00  0.00    +0.000 C 
ATOM     31  C   UNL     1       7.119   4.634  16.405  0.00  0.00    +0.000 C 
ENDBRANCH  20  29
ENDBRANCH   2  18
TORSDOF 6
ENDMDL
MODEL 5
REMARK VINA RESULT:      -8.6      1.684      2.241
REMARK  Name = 
REMARK  7 active torsions:
REMARK  status: ('A' for Active; 'I' for Inactive)
REMARK    1  A    between atoms: C_1  and  C_2
REMARK    2  A    between atoms: C_5  and  N_6
REMARK    3  A    between atoms: C_7  and  C_9
REMARK    4  A    between atoms: C_11  and  C_12
REMARK    5  A    between atoms: N_16  and  C_17
REMARK    6  A    between atoms: C_24  and  S_25
REMARK    7  A    between atoms: S_25  and  N_26
REMARK                            x       y       z     vdW  Elec       q    Type
REMARK                         _______ _______ _______ _____ _____    ______ ____
ROOT
ATOM      1  N   UNL     1       1.621   8.644  17.953  0.00  0.00    +0.000 N 
ATOM      2  C   UNL     1       2.287   7.739  18.771  0.00  0.00    +0.000 C 
ATOM      3  O   UNL     1       2.123   7.671  19.983  0.00  0.00    +0.000 OA
ATOM      4  H   UNL     1       1.901   8.694  16.983  0.00  0.00    +0.000 HD
ENDROOT
BRANCH   1   9
ATOM      5  C   UNL     1      -2.585  12.177  19.729  0.00  0.00    +0.000 C 
ATOM      6  C   UNL     1      -1.457  11.276  19.315  0.00  0.00    +0.000 A 
ATOM      7  C   UNL     1      -1.483  10.757  18.017  0.00  0.00    +0.000 A 
ATOM      8  C   UNL     1      -0.483   9.896  17.559  0.00  0.00    +0.000 A 
ATOM      9  C   UNL     1       0.589   9.525  18.374  0.00  0.00    +0.000 A 
ATOM     10  C   UNL     1       0.643  10.054  19.667  0.00  0.00    +0.000 A 
ATOM     11  C   UNL     1      -0.384  10.903  20.144  0.00  0.00    +0.000 A 
BRANCH  11  12
ATOM     12  S   UNL     1      -0.267  11.434  21.837  0.00  0.00    +0.000 S 
ATOM     13  O   UNL     1       0.420  12.708  21.880  0.00  0.00    +0.000 OA
ATOM     14  O   UNL     1      -1.506  11.216  22.540  0.00  0.00    +0.000 OA
BRANCH  12  15
ATOM     15  N   UNL     1       0.824  10.314  22.450  0.00  0.00    +0.000 NA
ATOM     16  H   UNL     1       0.377   9.401  22.530  0.00  0.00    +0.000 HD
ATOM     17  H   UNL     1       1.678  10.312  21.893  0.00  0.00    +0.000 HD
ENDBRANCH  12  15
ENDBRANCH  11  12
ENDBRANCH   1   9
BRANCH   2  18
ATOM     18  C   UNL     1       3.235   6.870  18.116  0.00  0.00    +0.000 A 
ATOM     19  C   UNL     1       4.197   7.141  17.157  0.00  0.00    +0.000 A 
ATOM     20  C   UNL     1       5.028   6.007  17.147  0.00  0.00    +0.000 A 
ATOM     21  N   UNL     1       4.625   5.073  18.004  0.00  0.00    +0.000 NA
ATOM     22  N   UNL     1       3.453   5.548  18.502  0.00  0.00    +0.000 N 
BRANCH  22  23
ATOM     23  C   UNL     1       2.619   4.676  19.264  0.00  0.00    +0.000 A 
ATOM     24  C   UNL     1       1.580   3.988  18.622  0.00  0.00    +0.000 A 
ATOM     25  C   UNL     1       0.770   3.110  19.348  0.00  0.00    +0.000 A 
ATOM     26  C   UNL     1       0.968   2.943  20.717  0.00  0.00    +0.000 A 
ATOM     27  C   UNL     1       1.977   3.652  21.367  0.00  0.00    +0.000 A 
ATOM     28  C   UNL     1       2.801   4.519  20.645  0.00  0.00    +0.000 A 
ENDBRANCH  22  23
BRANCH  20  29
ATOM     29  C   UNL     1       6.283   5.877  16.295  0.00  0.00    +0.000 C 
ATOM     30  C   UNL     1       6.226   5.003  15.055  0.00  0.00    +0.000 C 
ATOM     31  C   UNL     1       6.990   4.536  16.245  0.00  0.00    +0.000 C 
ENDBRANCH  20  29
ENDBRANCH   2  18
TORSDOF 6
ENDMDL
MODEL 6
REMARK VINA RESULT:      -8.5      0.902      1.065
REMARK  Name = 
REMARK  7 active torsions:
REMARK  status: ('A' for Active; 'I' for Inactive)
REMARK    1  A    between atoms: C_1  and  C_2
REMARK    2  A    between atoms: C_5  and  N_6
REMARK    3  A    between atoms: C_7  and  C_9
REMARK    4  A    between atoms: C_11  and  C_12
REMARK    5  A    between atoms: N_16  and  C_17
REMARK    6  A    between atoms: C_24  and  S_25
REMARK    7  A    between atoms: S_25  and  N_26
REMARK                            x       y       z     vdW  Elec       q    Type
REMARK                         _______ _______ _______ _____ _____    ______ ____
ROOT
ATOM      1  N   UNL     1       2.217   7.796  19.941  0.00  0.00    +0.000 N 
ATOM      2  C   UNL     1       2.293   7.627  18.564  0.00  0.00    +0.000 C 
ATOM      3  O   UNL     1       1.510   8.137  17.773  0.00  0.00    +0.000 OA
ATOM      4  H   UNL     1       2.844   7.250  20.517  0.00  0.00    +0.000 HD
ENDROOT
BRANCH   1   9
ATOM      5  C   UNL     1      -1.402  11.361  22.683  0.00  0.00    +0.000 C 
ATOM      6  C   UNL     1      -0.458  10.474  21.924  0.00  0.00    +0.000 A 
ATOM      7  C   UNL     1      -0.349   9.141  22.331  0.00  0.00    +0.000 A 
ATOM      8  C   UNL     1       0.522   8.255  21.692  0.00  0.00    +0.000 A 
ATOM      9  C   UNL     1       1.311   8.660  20.613  0.00  0.00    +0.000 A 
ATOM     10  C   UNL     1       1.197   9.984  20.178  0.00  0.00    +0.000 A 
ATOM     11  C   UNL     1       0.339  10.891  20.843  0.00  0.00    +0.000 A 
BRANCH  11  12
ATOM     12  S   UNL     1       0.349  12.575  20.269  0.00  0.00    +0.000 S 
ATOM     13  O   UNL     1       1.306  12.695  19.189  0.00  0.00    +0.000 OA
ATOM     14  O   UNL     1      -0.990  13.098  20.159  0.00  0.00    +0.000 OA
BRANCH  12  15
ATOM     15  N   UNL     1       1.050  13.356  21.580  0.00  0.00    +0.000 NA
ATOM     16  H   UNL     1       1.898  13.840  21.285  0.00  0.00    +0.000 HD
ATOM     17  H   UNL     1       0.367  13.959  22.039  0.00  0.00    +0.000 HD
ENDBRANCH  12  15
ENDBRANCH  11  12
ENDBRANCH   1   9
BRANCH   2  18
ATOM     18  C   UNL     1       3.354   6.770  18.088  0.00  0.00    +0.000 A 
ATOM     19  C   UNL     1       4.445   7.047  17.281  0.00  0.00    +0.000 A 
ATOM     20  C   UNL     1       5.297   5.939  17.433  0.00  0.00    +0.000 A 
ATOM     21  N   UNL     1       4.791   5.015  18.244  0.00  0.00    +0.000 NA
ATOM     22  N   UNL     1       3.544   5.467  18.543  0.00  0.00    +0.000 N 
BRANCH  22  23
ATOM     23  C   UNL     1       2.626   4.589  19.193  0.00  0.00    +0.000 A 
ATOM     24  C   UNL     1       1.708   3.863  18.421  0.00  0.00    +0.000 A 
ATOM     25  C   UNL     1       0.819   2.980  19.038  0.00  0.00    +0.000 A 
ATOM     26  C   UNL     1       0.816   2.844  20.426  0.00  0.00    +0.000 A 
ATOM     27  C   UNL     1       1.702   3.590  21.200  0.00  0.00    +0.000 A 
ATOM     28  C   UNL     1       2.605   4.463  20.588  0.00  0.00    +0.000 A 
ENDBRANCH  22  23
BRANCH  20  29
ATOM     29  C   UNL     1       6.671   5.825  16.787  0.00  0.00    +0.000 C 
ATOM     30  C   UNL     1       6.883   4.768  15.719  0.00  0.00    +0.000 C 
ATOM     31  C   UNL     1       7.502   4.586  17.061  0.00  0.00    +0.000 C 
ENDBRANCH  20  29
ENDBRANCH   2  18
TORSDOF 6
ENDMDL
MODEL 7
REMARK VINA RESULT:      -8.5      0.679      1.268
REMARK  Name = 
REMARK  7 active torsions:
REMARK  status: ('A' for Active; 'I' for Inactive)
REMARK    1  A    between atoms: C_1  and  C_2
REMARK    2  A    between atoms: C_5  and  N_6
REMARK    3  A    between atoms: C_7  and  C_9
REMARK    4  A    between atoms: C_11  and  C_12
REMARK    5  A    between atoms: N_16  and  C_17
REMARK    6  A    between atoms: C_24  and  S_25
REMARK    7  A    between atoms: S_25  and  N_26
REMARK                            x       y       z     vdW  Elec       q    Type
REMARK                         _______ _______ _______ _____ _____    ______ ____
ROOT
ATOM      1  N   UNL     1       2.071   8.120  20.020  0.00  0.00    +0.000 N 
ATOM      2  C   UNL     1       2.110   7.874  18.653  0.00  0.00    +0.000 C 
ATOM      3  O   UNL     1       1.257   8.268  17.867  0.00  0.00    +0.000 OA
ATOM      4  H   UNL     1       2.764   7.664  20.599  0.00  0.00    +0.000 HD
ENDROOT
BRANCH   1   9
ATOM      5  C   UNL     1      -1.740  11.541  22.683  0.00  0.00    +0.000 C 
ATOM      6  C   UNL     1      -0.762  10.679  21.937  0.00  0.00    +0.000 A 
ATOM      7  C   UNL     1      -0.300   9.522  22.572  0.00  0.00    +0.000 A 
ATOM      8  C   UNL     1       0.626   8.677  21.956  0.00  0.00    +0.000 A 
ATOM      9  C   UNL     1       1.121   8.946  20.678  0.00  0.00    +0.000 A 
ATOM     10  C   UNL     1       0.651  10.086  20.020  0.00  0.00    +0.000 A 
ATOM     11  C   UNL     1      -0.263  10.961  20.653  0.00  0.00    +0.000 A 
BRANCH  11  12
ATOM     12  S   UNL     1      -0.714  12.434  19.765  0.00  0.00    +0.000 S 
ATOM     13  O   UNL     1      -2.109  12.344  19.388  0.00  0.00    +0.000 OA
ATOM     14  O   UNL     1      -0.173  13.611  20.397  0.00  0.00    +0.000 OA
BRANCH  12  15
ATOM     15  N   UNL     1       0.152  12.228  18.340  0.00  0.00    +0.000 NA
ATOM     16  H   UNL     1       1.150  12.326  18.522  0.00  0.00    +0.000 HD
ATOM     17  H   UNL     1      -0.105  11.346  17.896  0.00  0.00    +0.000 HD
ENDBRANCH  12  15
ENDBRANCH  11  12
ENDBRANCH   1   9
BRANCH   2  18
ATOM     18  C   UNL     1       3.221   7.080  18.182  0.00  0.00    +0.000 A 
ATOM     19  C   UNL     1       4.366   7.447  17.494  0.00  0.00    +0.000 A 
ATOM     20  C   UNL     1       5.225   6.340  17.606  0.00  0.00    +0.000 A 
ATOM     21  N   UNL     1       4.676   5.335  18.283  0.00  0.00    +0.000 NA
ATOM     22  N   UNL     1       3.401   5.741  18.524  0.00  0.00    +0.000 N 
BRANCH  22  23
ATOM     23  C   UNL     1       2.452   4.794  19.012  0.00  0.00    +0.000 A 
ATOM     24  C   UNL     1       2.271   4.656  20.396  0.00  0.00    +0.000 A 
ATOM     25  C   UNL     1       1.328   3.752  20.891  0.00  0.00    +0.000 A 
ATOM     26  C   UNL     1       0.590   2.959  20.015  0.00  0.00    +0.000 A 
ATOM     27  C   UNL     1       0.791   3.066  18.640  0.00  0.00    +0.000 A 
ATOM     28  C   UNL     1       1.720   3.980  18.137  0.00  0.00    +0.000 A 
ENDBRANCH  22  23
BRANCH  20  29
ATOM     29  C   UNL     1       6.647   6.306  17.063  0.00  0.00    +0.000 C 
ATOM     30  C   UNL     1       7.793   6.151  18.047  0.00  0.00    +0.000 C 
ATOM     31  C   UNL     1       7.573   7.464  17.381  0.00  0.00    +0.000 C 
ENDBRANCH  20  29
ENDBRANCH   2  18
TORSDOF 6
ENDMDL
MODEL 8
REMARK VINA RESULT:      -8.4      2.083      2.584
REMARK  Name = 
REMARK  7 active torsions:
REMARK  status: ('A' for Active; 'I' for Inactive)
REMARK    1  A    between atoms: C_1  and  C_2
REMARK    2  A    between atoms: C_5  and  N_6
REMARK    3  A    between atoms: C_7  and  C_9
REMARK    4  A    between atoms: C_11  and  C_12
REMARK    5  A    between atoms: N_16  and  C_17
REMARK    6  A    between atoms: C_24  and  S_25
REMARK    7  A    between atoms: S_25  and  N_26
REMARK                            x       y       z     vdW  Elec       q    Type
REMARK                         _______ _______ _______ _____ _____    ______ ____
ROOT
ATOM      1  N   UNL     1       1.883   8.636  17.824  0.00  0.00    +0.000 N 
ATOM      2  C   UNL     1       2.459   7.659  18.627  0.00  0.00    +0.000 C 
ATOM      3  O   UNL     1       2.227   7.539  19.824  0.00  0.00    +0.000 OA
ATOM      4  H   UNL     1       2.218   8.721  16.873  0.00  0.00    +0.000 HD
ENDROOT
BRANCH   1   9
ATOM      5  C   UNL     1      -2.226  12.364  19.420  0.00  0.00    +0.000 C 
ATOM      6  C   UNL     1      -1.200  11.362  18.975  0.00  0.00    +0.000 A 
ATOM      7  C   UNL     1       0.038  11.366  19.626  0.00  0.00    +0.000 A 
ATOM      8  C   UNL     1       1.054  10.481  19.260  0.00  0.00    +0.000 A 
ATOM      9  C   UNL     1       0.874   9.547  18.236  0.00  0.00    +0.000 A 
ATOM     10  C   UNL     1      -0.366   9.513  17.591  0.00  0.00    +0.000 A 
ATOM     11  C   UNL     1      -1.387  10.429  17.940  0.00  0.00    +0.000 A 
BRANCH  11  12
ATOM     12  S   UNL     1      -2.886  10.364  16.984  0.00  0.00    +0.000 S 
ATOM     13  O   UNL     1      -3.540  11.653  17.054  0.00  0.00    +0.000 OA
ATOM     14  O   UNL     1      -2.677   9.685  15.730  0.00  0.00    +0.000 OA
BRANCH  12  15
ATOM     15  N   UNL     1      -3.821   9.334  17.924  0.00  0.00    +0.000 NA
ATOM     16  H   UNL     1      -3.397   9.221  18.845  0.00  0.00    +0.000 HD
ATOM     17  H   UNL     1      -4.788   9.658  17.949  0.00  0.00    +0.000 HD
ENDBRANCH  12  15
ENDBRANCH  11  12
ENDBRANCH   1   9
BRANCH   2  18
ATOM     18  C   UNL     1       3.399   6.777  17.977  0.00  0.00    +0.000 A 
ATOM     19  C   UNL     1       4.402   7.043  17.059  0.00  0.00    +0.000 A 
ATOM     20  C   UNL     1       5.194   5.881  17.042  0.00  0.00    +0.000 A 
ATOM     21  N   UNL     1       4.730   4.937  17.856  0.00  0.00    +0.000 NA
ATOM     22  N   UNL     1       3.559   5.438  18.330  0.00  0.00    +0.000 N 
BRANCH  22  23
ATOM     23  C   UNL     1       2.671   4.574  19.038  0.00  0.00    +0.000 A 
ATOM     24  C   UNL     1       2.809   4.437  20.426  0.00  0.00    +0.000 A 
ATOM     25  C   UNL     1       1.932   3.615  21.138  0.00  0.00    +0.000 A 
ATOM     26  C   UNL     1       0.939   2.901  20.468  0.00  0.00    +0.000 A 
ATOM     27  C   UNL     1       0.820   3.007  19.084  0.00  0.00    +0.000 A 
ATOM     28  C   UNL     1       1.683   3.839  18.367  0.00  0.00    +0.000 A 
ENDBRANCH  22  23
BRANCH  20  29
ATOM     29  C   UNL     1       6.471   5.732  16.227  0.00  0.00    +0.000 C 
ATOM     30  C   UNL     1       6.417   4.933  14.938  0.00  0.00    +0.000 C 
ATOM     31  C   UNL     1       7.110   4.360  16.125  0.00  0.00    +0.000 C 
ENDBRANCH  20  29
ENDBRANCH   2  18
TORSDOF 6
ENDMDL
MODEL 9
REMARK VINA RESULT:      -8.3      1.946      2.559
REMARK  Name = 
REMARK  7 active torsions:
REMARK  status: ('A' for Active; 'I' for Inactive)
REMARK    1  A    between atoms: C_1  and  C_2
REMARK    2  A    between atoms: C_5  and  N_6
REMARK    3  A    between atoms: C_7  and  C_9
REMARK    4  A    between atoms: C_11  and  C_12
REMARK    5  A    between atoms: N_16  and  C_17
REMARK    6  A    between atoms: C_24  and  S_25
REMARK    7  A    between atoms: S_25  and  N_26
REMARK                            x       y       z     vdW  Elec       q    Type
REMARK                         _______ _______ _______ _____ _____    ______ ____
ROOT
ATOM      1  N   UNL     1       1.863   8.441  18.226  0.00  0.00    +0.000 N 
ATOM      2  C   UNL     1       2.491   7.357  18.829  0.00  0.00    +0.000 C 
ATOM      3  O   UNL     1       2.429   7.118  20.028  0.00  0.00    +0.000 OA
ATOM      4  H   UNL     1       2.060   8.614  17.249  0.00  0.00    +0.000 HD
ENDROOT
BRANCH   1   9
ATOM      5  C   UNL     1      -1.757  12.048  20.909  0.00  0.00    +0.000 C 
ATOM      6  C   UNL     1      -0.787  11.100  20.265  0.00  0.00    +0.000 A 
ATOM      7  C   UNL     1      -0.690  11.118  18.870  0.00  0.00    +0.000 A 
ATOM      8  C   UNL     1       0.172  10.254  18.191  0.00  0.00    +0.000 A 
ATOM      9  C   UNL     1       0.981   9.344  18.876  0.00  0.00    +0.000 A 
ATOM     10  C   UNL     1       0.913   9.330  20.272  0.00  0.00    +0.000 A 
ATOM     11  C   UNL     1       0.019  10.182  20.961  0.00  0.00    +0.000 A 
BRANCH  11  12
ATOM     12  S   UNL     1      -0.058  10.007  22.730  0.00  0.00    +0.000 S 
ATOM     13  O   UNL     1       1.262   9.680  23.225  0.00  0.00    +0.000 OA
ATOM     14  O   UNL     1      -0.855  11.051  23.324  0.00  0.00    +0.000 OA
BRANCH  12  15
ATOM     15  N   UNL     1      -0.955   8.594  22.874  0.00  0.00    +0.000 NA
ATOM     16  H   UNL     1      -0.530   7.854  22.316  0.00  0.00    +0.000 HD
ATOM     17  H   UNL     1      -1.079   8.354  23.858  0.00  0.00    +0.000 HD
ENDBRANCH  12  15
ENDBRANCH  11  12
ENDBRANCH   1   9
BRANCH   2  18
ATOM     18  C   UNL     1       3.272   6.511  17.957  0.00  0.00    +0.000 A 
ATOM     19  C   UNL     1       4.101   6.828  16.895  0.00  0.00    +0.000 A 
ATOM     20  C   UNL     1       4.841   5.658  16.651  0.00  0.00    +0.000 A 
ATOM     21  N   UNL     1       4.502   4.663  17.466  0.00  0.00    +0.000 NA
ATOM     22  N   UNL     1       3.450   5.146  18.179  0.00  0.00    +0.000 N 
BRANCH  22  23
ATOM     23  C   UNL     1       2.677   4.247  18.971  0.00  0.00    +0.000 A 
ATOM     24  C   UNL     1       3.124   3.907  20.256  0.00  0.00    +0.000 A 
ATOM     25  C   UNL     1       2.366   3.048  21.056  0.00  0.00    +0.000 A 
ATOM     26  C   UNL     1       1.182   2.497  20.567  0.00  0.00    +0.000 A 
ATOM     27  C   UNL     1       0.752   2.803  19.277  0.00  0.00    +0.000 A 
ATOM     28  C   UNL     1       1.496   3.675  18.479  0.00  0.00    +0.000 A 
ENDBRANCH  22  23
BRANCH  20  29
ATOM     29  C   UNL     1       5.947   5.549  15.610  0.00  0.00    +0.000 C 
ATOM     30  C   UNL     1       5.923   4.372  14.652  0.00  0.00    +0.000 C 
ATOM     31  C   UNL     1       6.948   4.415  15.731  0.00  0.00    +0.000 C 
ENDBRANCH  20  29
ENDBRANCH   2  18
TORSDOF 6
ENDMDL
