MODEL 1
REMARK VINA RESULT:      -9.5      0.000      0.000
REMARK  Name = 
REMARK  6 active torsions:
REMARK  status: ('A' for Active; 'I' for Inactive)
REMARK    1  A    between atoms: C_1  and  C_2
REMARK    2  A    between atoms: C_7  and  C_8
REMARK    3  A    between atoms: N_10  and  C_11
REMARK    4  A    between atoms: C_15  and  S_16
REMARK    5  A    between atoms: S_16  and  N_19
REMARK    6  A    between atoms: C_29  and  C_30
REMARK                            x       y       z     vdW  Elec       q    Type
REMARK                         _______ _______ _______ _____ _____    ______ ____
ROOT
ATOM      1  C   UNL     1       1.841   7.853  19.709  0.00  0.00    +0.000 C 
ATOM      2  O   UNL     1       1.941   8.200  18.537  0.00  0.00    +0.000 OA
ATOM      3  N   UNL     1       2.315   6.666  20.251  0.00  0.00    +0.000 N 
ATOM      4  H   UNL     1       2.000   6.410  21.179  0.00  0.00    +0.000 HD
ENDROOT
BRANCH   1  11
ATOM      5  C   UNL     1      -1.581  13.845  23.486  0.00  0.00    +0.000 C 
ATOM      6  C   UNL     1      -0.973  12.833  22.560  0.00  0.00    +0.000 A 
ATOM      7  N   UNL     1      -0.692  11.611  23.087  0.00  0.00    +0.000 NA
ATOM      8  C   UNL     1      -0.130  10.698  22.268  0.00  0.00    +0.000 A 
ATOM      9  C   UNL     1       0.177   9.425  22.748  0.00  0.00    +0.000 A 
ATOM     10  C   UNL     1       0.782   8.454  21.937  0.00  0.00    +0.000 A 
ATOM     11  C   UNL     1       1.092   8.771  20.616  0.00  0.00    +0.000 A 
ATOM     12  C   UNL     1       0.778  10.049  20.129  0.00  0.00    +0.000 A 
ATOM     13  C   UNL     1       0.165  11.009  20.925  0.00  0.00    +0.000 A 
ATOM     14  N   UNL     1      -0.132  12.213  20.403  0.00  0.00    +0.000 NA
ATOM     15  C   UNL     1      -0.710  13.126  21.223  0.00  0.00    +0.000 A 
ATOM     16  C   UNL     1      -1.066  14.447  20.610  0.00  0.00    +0.000 C 
ENDBRANCH   1  11
BRANCH   3  17
ATOM     17  C   UNL     1       3.024   5.663  19.536  0.00  0.00    +0.000 A 
ATOM     18  C   UNL     1       2.835   4.292  19.743  0.00  0.00    +0.000 A 
ATOM     19  C   UNL     1       3.599   3.342  19.055  0.00  0.00    +0.000 A 
ATOM     20  C   UNL     1       4.573   3.746  18.148  0.00  0.00    +0.000 A 
ATOM     21  C   UNL     1       4.760   5.110  17.919  0.00  0.00    +0.000 A 
ATOM     22  C   UNL     1       3.960   6.064  18.576  0.00  0.00    +0.000 A 
BRANCH  21  23
ATOM     23  S   UNL     1       5.926   5.645  16.691  0.00  0.00    +0.000 S 
ATOM     24  O   UNL     1       5.346   6.779  15.996  0.00  0.00    +0.000 OA
ATOM     25  O   UNL     1       7.232   5.757  17.303  0.00  0.00    +0.000 OA
BRANCH  23  26
ATOM     26  N   UNL     1       5.982   4.422  15.552  0.00  0.00    +0.000 N 
ATOM     27  C   UNL     1       6.547   4.551  14.288  0.00  0.00    +0.000 C 
ATOM     28  N   UNL     1       7.514   5.362  14.037  0.00  0.00    +0.000 NA
ATOM     29  C   UNL     1       7.808   5.215  12.605  0.00  0.00    +0.000 C 
ATOM     30  C   UNL     1       7.158   3.913  12.172  0.00  0.00    +0.000 C 
ATOM     31  C   UNL     1       6.021   3.736  13.152  0.00  0.00    +0.000 C 
ATOM     32  H   UNL     1       5.298   3.693  15.755  0.00  0.00    +0.000 HD
ENDBRANCH  23  26
ENDBRANCH  21  23
ENDBRANCH   3  17
TORSDOF 4
ENDMDL
MODEL 2
REMARK VINA RESULT:      -9.4      1.105      1.339
REMARK  Name = 
REMARK  6 active torsions:
REMARK  status: ('A' for Active; 'I' for Inactive)
REMARK    1  A    between atoms: C_1  and  C_2
REMARK    2  A    between atoms: C_7  and  C_8
REMARK    3  A    between atoms: N_10  and  C_11
REMARK    4  A    between atoms: C_15  and  S_16
REMARK    5  A    between atoms: S_16  and  N_19
REMARK    6  A    between atoms: C_29  and  C_30
REMARK                            x       y       z     vdW  Elec       q    Type
REMARK                         _______ _______ _______ _____ _____    ______ ____
ROOT
ATOM      1  C   UNL     1       2.226   7.804  18.924  0.00  0.00    +0.000 C 
ATOM      2  O   UNL     1       2.371   8.338  17.829  0.00  0.00    +0.000 OA
ATOM      3  N   UNL     1       2.641   6.525  19.268  0.00  0.00    +0.000 N 
ATOM      4  H   UNL     1       2.292   6.130  20.132  0.00  0.00    +0.000 HD
ENDROOT
BRANCH   1  11
ATOM      5  C   UNL     1      -1.531  13.144  23.312  0.00  0.00    +0.000 C 
ATOM      6  C   UNL     1      -0.914  12.244  22.281  0.00  0.00    +0.000 A 
ATOM      7  N   UNL     1      -0.337  11.099  22.734  0.00  0.00    +0.000 NA
ATOM      8  C   UNL     1       0.234  10.289  21.819  0.00  0.00    +0.000 A 
ATOM      9  C   UNL     1       0.839   9.098  22.222  0.00  0.00    +0.000 A 
ATOM     10  C   UNL     1       1.463   8.239  21.306  0.00  0.00    +0.000 A 
ATOM     11  C   UNL     1       1.488   8.587  19.957  0.00  0.00    +0.000 A 
ATOM     12  C   UNL     1       0.874   9.782  19.549  0.00  0.00    +0.000 A 
ATOM     13  C   UNL     1       0.241  10.628  20.451  0.00  0.00    +0.000 A 
ATOM     14  N   UNL     1      -0.348  11.753  20.005  0.00  0.00    +0.000 NA
ATOM     15  C   UNL     1      -0.935  12.560  20.924  0.00  0.00    +0.000 A 
ATOM     16  C   UNL     1      -1.617  13.787  20.399  0.00  0.00    +0.000 C 
ENDBRANCH   1  11
BRANCH   3  17
ATOM     17  C   UNL     1       3.333   5.627  18.409  0.00  0.00    +0.000 A 
ATOM     18  C   UNL     1       2.732   4.505  17.826  0.00  0.00    +0.000 A 
ATOM     19  C   UNL     1       3.469   3.618  17.033  0.00  0.00    +0.000 A 
ATOM     20  C   UNL     1       4.825   3.835  16.810  0.00  0.00    +0.000 A 
ATOM     21  C   UNL     1       5.432   4.959  17.370  0.00  0.00    +0.000 A 
ATOM     22  C   UNL     1       4.681   5.876  18.130  0.00  0.00    +0.000 A 
BRANCH  21  23
ATOM     23  S   UNL     1       7.136   5.310  17.015  0.00  0.00    +0.000 S 
ATOM     24  O   UNL     1       7.517   6.479  17.786  0.00  0.00    +0.000 OA
ATOM     25  O   UNL     1       7.899   4.086  17.125  0.00  0.00    +0.000 OA
BRANCH  23  26
ATOM     26  N   UNL     1       7.175   5.813  15.420  0.00  0.00    +0.000 N 
ATOM     27  C   UNL     1       7.037   4.967  14.325  0.00  0.00    +0.000 C 
ATOM     28  N   UNL     1       6.362   3.872  14.373  0.00  0.00    +0.000 NA
ATOM     29  C   UNL     1       6.473   3.268  13.037  0.00  0.00    +0.000 C 
ATOM     30  C   UNL     1       6.953   4.372  12.113  0.00  0.00    +0.000 C 
ATOM     31  C   UNL     1       7.700   5.310  13.032  0.00  0.00    +0.000 C 
ATOM     32  H   UNL     1       7.615   6.728  15.330  0.00  0.00    +0.000 HD
ENDBRANCH  23  26
ENDBRANCH  21  23
ENDBRANCH   3  17
TORSDOF 4
ENDMDL
MODEL 3
REMARK VINA RESULT:      -9.3      1.282      1.435
REMARK  Name = 
REMARK  6 active torsions:
REMARK  status: ('A' for Active; 'I' for Inactive)
REMARK    1  A    between atoms: C_1  and  C_2
REMARK    2  A    between atoms: C_7  and  C_8
REMARK    3  A    between atoms: N_10  and  C_11
REMARK    4  A    between atoms: C_15  and  S_16
REMARK    5  A    between atoms: S_16  and  N_19
REMARK    6  A    between atoms: C_29  and  C_30
REMARK                            x       y       z     vdW  Elec       q    Type
REMARK                         _______ _______ _______ _____ _____    ______ ____
ROOT
ATOM      1  C   UNL     1       1.970   8.402  18.502  0.00  0.00    +0.000 C 
ATOM      2  O   UNL     1       2.159   8.711  17.331  0.00  0.00    +0.000 OA
ATOM      3  N   UNL     1       2.188   7.150  19.061  0.00  0.00    +0.000 N 
ATOM      4  H   UNL     1       1.812   6.971  19.983  0.00  0.00    +0.000 HD
ENDROOT
BRANCH   1  11
ATOM      5  C   UNL     1      -0.201  14.987  22.219  0.00  0.00    +0.000 C 
ATOM      6  C   UNL     1       0.210  13.870  21.305  0.00  0.00    +0.000 A 
ATOM      7  N   UNL     1       0.184  12.613  21.823  0.00  0.00    +0.000 NA
ATOM      8  C   UNL     1       0.566  11.602  21.016  0.00  0.00    +0.000 A 
ATOM      9  C   UNL     1       0.556  10.290  21.488  0.00  0.00    +0.000 A 
ATOM     10  C   UNL     1       0.966   9.213  20.690  0.00  0.00    +0.000 A 
ATOM     11  C   UNL     1       1.404   9.459  19.390  0.00  0.00    +0.000 A 
ATOM     12  C   UNL     1       1.408  10.779  18.910  0.00  0.00    +0.000 A 
ATOM     13  C   UNL     1       0.987  11.846  19.693  0.00  0.00    +0.000 A 
ATOM     14  N   UNL     1       0.994  13.090  19.178  0.00  0.00    +0.000 NA
ATOM     15  C   UNL     1       0.596  14.105  19.986  0.00  0.00    +0.000 A 
ATOM     16  C   UNL     1       0.575  15.475  19.379  0.00  0.00    +0.000 C 
ENDBRANCH   1  11
BRANCH   3  17
ATOM     17  C   UNL     1       2.697   6.019  18.365  0.00  0.00    +0.000 A 
ATOM     18  C   UNL     1       1.941   4.867  18.115  0.00  0.00    +0.000 A 
ATOM     19  C   UNL     1       2.504   3.756  17.476  0.00  0.00    +0.000 A 
ATOM     20  C   UNL     1       3.837   3.773  17.079  0.00  0.00    +0.000 A 
ATOM     21  C   UNL     1       4.596   4.921  17.306  0.00  0.00    +0.000 A 
ATOM     22  C   UNL     1       4.018   6.055  17.907  0.00  0.00    +0.000 A 
BRANCH  21  23
ATOM     23  S   UNL     1       6.268   5.002  16.716  0.00  0.00    +0.000 S 
ATOM     24  O   UNL     1       6.480   6.330  16.168  0.00  0.00    +0.000 OA
ATOM     25  O   UNL     1       7.152   4.489  17.740  0.00  0.00    +0.000 OA
BRANCH  23  26
ATOM     26  N   UNL     1       6.337   3.976  15.398  0.00  0.00    +0.000 N 
ATOM     27  C   UNL     1       6.769   4.351  14.130  0.00  0.00    +0.000 C 
ATOM     28  N   UNL     1       7.625   5.292  13.938  0.00  0.00    +0.000 NA
ATOM     29  C   UNL     1       7.799   5.392  12.481  0.00  0.00    +0.000 C 
ATOM     30  C   UNL     1       7.242   4.105  11.900  0.00  0.00    +0.000 C 
ATOM     31  C   UNL     1       6.222   3.661  12.924  0.00  0.00    +0.000 C 
ATOM     32  H   UNL     1       5.749   3.154  15.536  0.00  0.00    +0.000 HD
ENDBRANCH  23  26
ENDBRANCH  21  23
ENDBRANCH   3  17
TORSDOF 4
ENDMDL
MODEL 4
REMARK VINA RESULT:      -9.3      1.399      1.695
REMARK  Name = 
REMARK  6 active torsions:
REMARK  status: ('A' for Active; 'I' for Inactive)
REMARK    1  A    between atoms: C_1  and  C_2
REMARK    2  A    between atoms: C_7  and  C_8
REMARK    3  A    between atoms: N_10  and  C_11
REMARK    4  A    between atoms: C_15  and  S_16
REMARK    5  A    between atoms: S_16  and  N_19
REMARK    6  A    between atoms: C_29  and  C_30
REMARK                            x       y       z     vdW  Elec       q    Type
REMARK                         _______ _______ _______ _____ _____    ______ ____
ROOT
ATOM      1  C   UNL     1       2.037   7.018  19.976  0.00  0.00    +0.000 C 
ATOM      2  O   UNL     1       1.976   6.025  20.694  0.00  0.00    +0.000 OA
ATOM      3  N   UNL     1       2.682   7.099  18.750  0.00  0.00    +0.000 N 
ATOM      4  H   UNL     1       2.827   8.018  18.351  0.00  0.00    +0.000 HD
ENDROOT
BRANCH   1  11
ATOM      5  C   UNL     1      -0.708  14.251  21.402  0.00  0.00    +0.000 C 
ATOM      6  C   UNL     1      -0.222  12.926  20.892  0.00  0.00    +0.000 A 
ATOM      7  N   UNL     1      -0.041  11.943  21.813  0.00  0.00    +0.000 NA
ATOM      8  C   UNL     1       0.411  10.752  21.368  0.00  0.00    +0.000 A 
ATOM      9  C   UNL     1       0.611   9.703  22.265  0.00  0.00    +0.000 A 
ATOM     10  C   UNL     1       1.101   8.457  21.847  0.00  0.00    +0.000 A 
ATOM     11  C   UNL     1       1.403   8.262  20.501  0.00  0.00    +0.000 A 
ATOM     12  C   UNL     1       1.195   9.315  19.596  0.00  0.00    +0.000 A 
ATOM     13  C   UNL     1       0.696  10.546  20.003  0.00  0.00    +0.000 A 
ATOM     14  N   UNL     1       0.498  11.516  19.092  0.00  0.00    +0.000 NA
ATOM     15  C   UNL     1       0.030  12.709  19.538  0.00  0.00    +0.000 A 
ATOM     16  C   UNL     1      -0.218  13.762  18.500  0.00  0.00    +0.000 C 
ENDBRANCH   1  11
BRANCH   3  17
ATOM     17  C   UNL     1       3.360   6.027  18.107  0.00  0.00    +0.000 A 
ATOM     18  C   UNL     1       2.734   4.831  17.741  0.00  0.00    +0.000 A 
ATOM     19  C   UNL     1       3.456   3.781  17.162  0.00  0.00    +0.000 A 
ATOM     20  C   UNL     1       4.824   3.906  16.942  0.00  0.00    +0.000 A 
ATOM     21  C   UNL     1       5.458   5.101  17.286  0.00  0.00    +0.000 A 
ATOM     22  C   UNL     1       4.723   6.173  17.826  0.00  0.00    +0.000 A 
BRANCH  21  23
ATOM     23  S   UNL     1       7.182   5.320  16.921  0.00  0.00    +0.000 S 
ATOM     24  O   UNL     1       7.651   6.468  17.676  0.00  0.00    +0.000 OA
ATOM     25  O   UNL     1       7.853   4.045  17.045  0.00  0.00    +0.000 OA
BRANCH  23  26
ATOM     26  N   UNL     1       7.252   5.798  15.320  0.00  0.00    +0.000 N 
ATOM     27  C   UNL     1       7.061   4.948  14.236  0.00  0.00    +0.000 C 
ATOM     28  N   UNL     1       6.320   3.898  14.298  0.00  0.00    +0.000 NA
ATOM     29  C   UNL     1       6.394   3.269  12.971  0.00  0.00    +0.000 C 
ATOM     30  C   UNL     1       6.940   4.329  12.032  0.00  0.00    +0.000 C 
ATOM     31  C   UNL     1       7.744   5.232  12.939  0.00  0.00    +0.000 C 
ATOM     32  H   UNL     1       7.747   6.684  15.218  0.00  0.00    +0.000 HD
ENDBRANCH  23  26
ENDBRANCH  21  23
ENDBRANCH   3  17
TORSDOF 4
ENDMDL
MODEL 5
REMARK VINA RESULT:      -9.3      1.043      1.157
REMARK  Name = 
REMARK  6 active torsions:
REMARK  status: ('A' for Active; 'I' for Inactive)
REMARK    1  A    between atoms: C_1  and  C_2
REMARK    2  A    between atoms: C_7  and  C_8
REMARK    3  A    between atoms: N_10  and  C_11
REMARK    4  A    between atoms: C_15  and  S_16
REMARK    5  A    between atoms: S_16  and  N_19
REMARK    6  A    between atoms: C_29  and  C_30
REMARK                            x       y       z     vdW  Elec       q    Type
REMARK                         _______ _______ _______ _____ _____    ______ ____
ROOT
ATOM      1  C   UNL     1       1.540   7.868  20.432  0.00  0.00    +0.000 C 
ATOM      2  O   UNL     1       2.003   8.187  19.342  0.00  0.00    +0.000 OA
ATOM      3  N   UNL     1       1.631   6.614  21.021  0.00  0.00    +0.000 N 
ATOM      4  H   UNL     1       1.046   6.425  21.825  0.00  0.00    +0.000 HD
ENDROOT
BRANCH   1  11
ATOM      5  C   UNL     1      -1.833  14.396  23.241  0.00  0.00    +0.000 C 
ATOM      6  C   UNL     1      -1.200  13.264  22.486  0.00  0.00    +0.000 A 
ATOM      7  N   UNL     1      -1.071  12.083  23.146  0.00  0.00    +0.000 NA
ATOM      8  C   UNL     1      -0.490  11.062  22.482  0.00  0.00    +0.000 A 
ATOM      9  C   UNL     1      -0.334   9.824  23.104  0.00  0.00    +0.000 A 
ATOM     10  C   UNL     1       0.285   8.744  22.458  0.00  0.00    +0.000 A 
ATOM     11  C   UNL     1       0.765   8.914  21.161  0.00  0.00    +0.000 A 
ATOM     12  C   UNL     1       0.603  10.157  20.531  0.00  0.00    +0.000 A 
ATOM     13  C   UNL     1      -0.024  11.225  21.161  0.00  0.00    +0.000 A 
ATOM     14  N   UNL     1      -0.170  12.391  20.505  0.00  0.00    +0.000 NA
ATOM     15  C   UNL     1      -0.768  13.412  21.169  0.00  0.00    +0.000 A 
ATOM     16  C   UNL     1      -0.954  14.689  20.405  0.00  0.00    +0.000 C 
ENDBRANCH   1  11
BRANCH   3  17
ATOM     17  C   UNL     1       2.305   5.493  20.464  0.00  0.00    +0.000 A 
ATOM     18  C   UNL     1       1.888   4.171  20.659  0.00  0.00    +0.000 A 
ATOM     19  C   UNL     1       2.618   3.097  20.137  0.00  0.00    +0.000 A 
ATOM     20  C   UNL     1       3.784   3.323  19.414  0.00  0.00    +0.000 A 
ATOM     21  C   UNL     1       4.201   4.637  19.197  0.00  0.00    +0.000 A 
ATOM     22  C   UNL     1       3.443   5.719  19.682  0.00  0.00    +0.000 A 
BRANCH  21  23
ATOM     23  S   UNL     1       5.629   4.953  18.191  0.00  0.00    +0.000 S 
ATOM     24  O   UNL     1       5.544   6.324  17.720  0.00  0.00    +0.000 OA
ATOM     25  O   UNL     1       6.809   4.497  18.894  0.00  0.00    +0.000 OA
BRANCH  23  26
ATOM     26  N   UNL     1       5.438   4.014  16.820  0.00  0.00    +0.000 N 
ATOM     27  C   UNL     1       6.036   4.282  15.593  0.00  0.00    +0.000 C 
ATOM     28  N   UNL     1       7.159   4.903  15.488  0.00  0.00    +0.000 NA
ATOM     29  C   UNL     1       7.435   5.001  14.048  0.00  0.00    +0.000 C 
ATOM     30  C   UNL     1       6.528   3.988  13.373  0.00  0.00    +0.000 C 
ATOM     31  C   UNL     1       5.365   3.856  14.330  0.00  0.00    +0.000 C 
ATOM     32  H   UNL     1       4.611   3.422  16.888  0.00  0.00    +0.000 HD
ENDBRANCH  23  26
ENDBRANCH  21  23
ENDBRANCH   3  17
TORSDOF 4
ENDMDL
MODEL 6
REMARK VINA RESULT:      -9.2      1.461      2.221
REMARK  Name = 
REMARK  6 active torsions:
REMARK  status: ('A' for Active; 'I' for Inactive)
REMARK    1  A    between atoms: C_1  and  C_2
REMARK    2  A    between atoms: C_7  and  C_8
REMARK    3  A    between atoms: N_10  and  C_11
REMARK    4  A    between atoms: C_15  and  S_16
REMARK    5  A    between atoms: S_16  and  N_19
REMARK    6  A    between atoms: C_29  and  C_30
REMARK                            x       y       z     vdW  Elec       q    Type
REMARK                         _______ _______ _______ _____ _____    ______ ____
ROOT
ATOM      1  C   UNL     1       2.064   7.733  19.337  0.00  0.00    +0.000 C 
ATOM      2  O   UNL     1       2.209   7.114  20.386  0.00  0.00    +0.000 OA
ATOM      3  N   UNL     1       2.572   7.368  18.098  0.00  0.00    +0.000 N 
ATOM      4  H   UNL     1       2.551   8.056  17.356  0.00  0.00    +0.000 HD
ENDROOT
BRANCH   1  11
ATOM      5  C   UNL     1      -2.636  13.817  21.003  0.00  0.00    +0.000 C 
ATOM      6  C   UNL     1      -1.744  12.613  20.929  0.00  0.00    +0.000 A 
ATOM      7  N   UNL     1      -1.100  12.398  19.751  0.00  0.00    +0.000 NA
ATOM      8  C   UNL     1      -0.307  11.310  19.667  0.00  0.00    +0.000 A 
ATOM      9  C   UNL     1       0.384  11.039  18.487  0.00  0.00    +0.000 A 
ATOM     10  C   UNL     1       1.200   9.907  18.350  0.00  0.00    +0.000 A 
ATOM     11  C   UNL     1       1.318   9.023  19.420  0.00  0.00    +0.000 A 
ATOM     12  C   UNL     1       0.629   9.297  20.612  0.00  0.00    +0.000 A 
ATOM     13  C   UNL     1      -0.168  10.425  20.756  0.00  0.00    +0.000 A 
ATOM     14  N   UNL     1      -0.793  10.651  21.926  0.00  0.00    +0.000 NA
ATOM     15  C   UNL     1      -1.579  11.754  22.015  0.00  0.00    +0.000 A 
ATOM     16  C   UNL     1      -2.235  12.005  23.339  0.00  0.00    +0.000 C 
ENDBRANCH   1  11
BRANCH   3  17
ATOM     17  C   UNL     1       3.327   6.192  17.834  0.00  0.00    +0.000 A 
ATOM     18  C   UNL     1       2.770   4.908  17.825  0.00  0.00    +0.000 A 
ATOM     19  C   UNL     1       3.565   3.775  17.618  0.00  0.00    +0.000 A 
ATOM     20  C   UNL     1       4.936   3.904  17.420  0.00  0.00    +0.000 A 
ATOM     21  C   UNL     1       5.500   5.179  17.409  0.00  0.00    +0.000 A 
ATOM     22  C   UNL     1       4.695   6.322  17.572  0.00  0.00    +0.000 A 
BRANCH  21  23
ATOM     23  S   UNL     1       7.230   5.374  17.056  0.00  0.00    +0.000 S 
ATOM     24  O   UNL     1       7.705   6.527  17.799  0.00  0.00    +0.000 OA
ATOM     25  O   UNL     1       7.885   4.093  17.204  0.00  0.00    +0.000 OA
BRANCH  23  26
ATOM     26  N   UNL     1       7.320   5.829  15.449  0.00  0.00    +0.000 N 
ATOM     27  C   UNL     1       7.063   4.981  14.377  0.00  0.00    +0.000 C 
ATOM     28  N   UNL     1       6.253   3.985  14.456  0.00  0.00    +0.000 NA
ATOM     29  C   UNL     1       6.273   3.339  13.135  0.00  0.00    +0.000 C 
ATOM     30  C   UNL     1       6.883   4.349  12.180  0.00  0.00    +0.000 C 
ATOM     31  C   UNL     1       7.753   5.205  13.072  0.00  0.00    +0.000 C 
ATOM     32  H   UNL     1       7.873   6.677  15.334  0.00  0.00    +0.000 HD
ENDBRANCH  23  26
ENDBRANCH  21  23
ENDBRANCH   3  17
TORSDOF 4
ENDMDL
MODEL 7
REMARK VINA RESULT:      -9.1      6.871      8.291
REMARK  Name = 
REMARK  6 active torsions:
REMARK  status: ('A' for Active; 'I' for Inactive)
REMARK    1  A    between atoms: C_1  and  C_2
REMARK    2  A    between atoms: C_7  and  C_8
REMARK    3  A    between atoms: N_10  and  C_11
REMARK    4  A    between atoms: C_15  and  S_16
REMARK    5  A    between atoms: S_16  and  N_19
REMARK    6  A    between atoms: C_29  and  C_30
REMARK                            x       y       z     vdW  Elec       q    Type
REMARK                         _______ _______ _______ _____ _____    ______ ____
ROOT
ATOM      1  C   UNL     1       9.028  10.178  18.869  0.00  0.00    +0.000 C 
ATOM      2  O   UNL     1       9.005   9.935  20.071  0.00  0.00    +0.000 OA
ATOM      3  N   UNL     1       8.611   9.325  17.856  0.00  0.00    +0.000 N 
ATOM      4  H   UNL     1       8.861   9.562  16.904  0.00  0.00    +0.000 HD
ENDROOT
BRANCH   1  11
ATOM      5  C   UNL     1      10.624  17.677  17.106  0.00  0.00    +0.000 C 
ATOM      6  C   UNL     1      10.172  16.341  17.618  0.00  0.00    +0.000 A 
ATOM      7  N   UNL     1      10.855  15.252  17.174  0.00  0.00    +0.000 NA
ATOM      8  C   UNL     1      10.449  14.044  17.615  0.00  0.00    +0.000 A 
ATOM      9  C   UNL     1      11.112  12.889  17.200  0.00  0.00    +0.000 A 
ATOM     10  C   UNL     1      10.708  11.613  17.616  0.00  0.00    +0.000 A 
ATOM     11  C   UNL     1       9.609  11.492  18.463  0.00  0.00    +0.000 A 
ATOM     12  C   UNL     1       8.944  12.653  18.889  0.00  0.00    +0.000 A 
ATOM     13  C   UNL     1       9.350  13.920  18.491  0.00  0.00    +0.000 A 
ATOM     14  N   UNL     1       8.689  15.001  18.942  0.00  0.00    +0.000 NA
ATOM     15  C   UNL     1       9.108  16.218  18.510  0.00  0.00    +0.000 A 
ATOM     16  C   UNL     1       8.380  17.409  19.055  0.00  0.00    +0.000 C 
ENDBRANCH   1  11
BRANCH   3  17
ATOM     17  C   UNL     1       8.058   8.029  18.050  0.00  0.00    +0.000 A 
ATOM     18  C   UNL     1       8.460   7.169  19.079  0.00  0.00    +0.000 A 
ATOM     19  C   UNL     1       7.928   5.880  19.195  0.00  0.00    +0.000 A 
ATOM     20  C   UNL     1       6.985   5.423  18.280  0.00  0.00    +0.000 A 
ATOM     21  C   UNL     1       6.563   6.277  17.261  0.00  0.00    +0.000 A 
ATOM     22  C   UNL     1       7.064   7.589  17.171  0.00  0.00    +0.000 A 
BRANCH  21  23
ATOM     23  S   UNL     1       5.286   5.752  16.144  0.00  0.00    +0.000 S 
ATOM     24  O   UNL     1       4.984   6.865  15.262  0.00  0.00    +0.000 OA
ATOM     25  O   UNL     1       5.647   4.464  15.592  0.00  0.00    +0.000 OA
BRANCH  23  26
ATOM     26  N   UNL     1       3.913   5.558  17.079  0.00  0.00    +0.000 N 
ATOM     27  C   UNL     1       3.378   4.327  17.445  0.00  0.00    +0.000 C 
ATOM     28  N   UNL     1       4.098   3.270  17.584  0.00  0.00    +0.000 NA
ATOM     29  C   UNL     1       3.169   2.192  17.953  0.00  0.00    +0.000 C 
ATOM     30  C   UNL     1       1.892   2.873  18.410  0.00  0.00    +0.000 C 
ATOM     31  C   UNL     1       1.910   4.195  17.679  0.00  0.00    +0.000 C 
ATOM     32  H   UNL     1       3.347   6.406  17.088  0.00  0.00    +0.000 HD
ENDBRANCH  23  26
ENDBRANCH  21  23
ENDBRANCH   3  17
TORSDOF 4
ENDMDL
MODEL 8
REMARK VINA RESULT:      -9.1      1.107      1.860
REMARK  Name = 
REMARK  6 active torsions:
REMARK  status: ('A' for Active; 'I' for Inactive)
REMARK    1  A    between atoms: C_1  and  C_2
REMARK    2  A    between atoms: C_7  and  C_8
REMARK    3  A    between atoms: N_10  and  C_11
REMARK    4  A    between atoms: C_15  and  S_16
REMARK    5  A    between atoms: S_16  and  N_19
REMARK    6  A    between atoms: C_29  and  C_30
REMARK                            x       y       z     vdW  Elec       q    Type
REMARK                         _______ _______ _______ _____ _____    ______ ____
ROOT
ATOM      1  C   UNL     1       1.738   8.080  19.684  0.00  0.00    +0.000 C 
ATOM      2  O   UNL     1       1.917   7.612  20.803  0.00  0.00    +0.000 OA
ATOM      3  N   UNL     1       2.145   7.508  18.486  0.00  0.00    +0.000 N 
ATOM      4  H   UNL     1       2.112   8.082  17.653  0.00  0.00    +0.000 HD
ENDROOT
BRANCH   1  11
ATOM      5  C   UNL     1      -2.173  14.802  20.869  0.00  0.00    +0.000 C 
ATOM      6  C   UNL     1      -1.360  13.541  20.881  0.00  0.00    +0.000 A 
ATOM      7  N   UNL     1      -1.097  12.970  19.675  0.00  0.00    +0.000 NA
ATOM      8  C   UNL     1      -0.380  11.828  19.673  0.00  0.00    +0.000 A 
ATOM      9  C   UNL     1      -0.073  11.197  18.468  0.00  0.00    +0.000 A 
ATOM     10  C   UNL     1       0.650   9.997  18.423  0.00  0.00    +0.000 A 
ATOM     11  C   UNL     1       1.068   9.412  19.616  0.00  0.00    +0.000 A 
ATOM     12  C   UNL     1       0.766  10.048  20.831  0.00  0.00    +0.000 A 
ATOM     13  C   UNL     1       0.064  11.245  20.878  0.00  0.00    +0.000 A 
ATOM     14  N   UNL     1      -0.183  11.823  22.068  0.00  0.00    +0.000 NA
ATOM     15  C   UNL     1      -0.892  12.980  22.068  0.00  0.00    +0.000 A 
ATOM     16  C   UNL     1      -1.122  13.625  23.401  0.00  0.00    +0.000 C 
ENDBRANCH   1  11
BRANCH   3  17
ATOM     17  C   UNL     1       2.817   6.262  18.358  0.00  0.00    +0.000 A 
ATOM     18  C   UNL     1       2.262   5.044  18.765  0.00  0.00    +0.000 A 
ATOM     19  C   UNL     1       2.986   3.850  18.672  0.00  0.00    +0.000 A 
ATOM     20  C   UNL     1       4.285   3.852  18.174  0.00  0.00    +0.000 A 
ATOM     21  C   UNL     1       4.844   5.057  17.748  0.00  0.00    +0.000 A 
ATOM     22  C   UNL     1       4.100   6.251  17.799  0.00  0.00    +0.000 A 
BRANCH  21  23
ATOM     23  S   UNL     1       6.461   5.067  17.015  0.00  0.00    +0.000 S 
ATOM     24  O   UNL     1       6.683   6.387  16.452  0.00  0.00    +0.000 OA
ATOM     25  O   UNL     1       7.407   4.511  17.958  0.00  0.00    +0.000 OA
BRANCH  23  26
ATOM     26  N   UNL     1       6.370   4.044  15.696  0.00  0.00    +0.000 N 
ATOM     27  C   UNL     1       6.773   4.383  14.408  0.00  0.00    +0.000 C 
ATOM     28  N   UNL     1       7.703   5.241  14.174  0.00  0.00    +0.000 NA
ATOM     29  C   UNL     1       7.813   5.330  12.711  0.00  0.00    +0.000 C 
ATOM     30  C   UNL     1       7.112   4.103  12.158  0.00  0.00    +0.000 C 
ATOM     31  C   UNL     1       6.107   3.752  13.231  0.00  0.00    +0.000 C 
ATOM     32  H   UNL     1       5.716   3.280  15.862  0.00  0.00    +0.000 HD
ENDBRANCH  23  26
ENDBRANCH  21  23
ENDBRANCH   3  17
TORSDOF 4
ENDMDL
MODEL 9
REMARK VINA RESULT:      -9.0      1.270      1.319
REMARK  Name = 
REMARK  6 active torsions:
REMARK  status: ('A' for Active; 'I' for Inactive)
REMARK    1  A    between atoms: C_1  and  C_2
REMARK    2  A    between atoms: C_7  and  C_8
REMARK    3  A    between atoms: N_10  and  C_11
REMARK    4  A    between atoms: C_15  and  S_16
REMARK    5  A    between atoms: S_16  and  N_19
REMARK    6  A    between atoms: C_29  and  C_30
REMARK                            x       y       z     vdW  Elec       q    Type
REMARK                         _______ _______ _______ _____ _____    ______ ____
ROOT
ATOM      1  C   UNL     1       1.673   7.013  20.278  0.00  0.00    +0.000 C 
ATOM      2  O   UNL     1       1.925   6.148  21.110  0.00  0.00    +0.000 OA
ATOM      3  N   UNL     1       1.926   6.934  18.915  0.00  0.00    +0.000 N 
ATOM      4  H   UNL     1       1.852   7.783  18.370  0.00  0.00    +0.000 HD
ENDROOT
BRANCH   1  11
ATOM      5  C   UNL     1      -0.364  14.419  21.978  0.00  0.00    +0.000 C 
ATOM      6  C   UNL     1       0.064  13.092  21.424  0.00  0.00    +0.000 A 
ATOM      7  N   UNL     1      -0.158  12.002  22.206  0.00  0.00    +0.000 NA
ATOM      8  C   UNL     1       0.237  10.804  21.726  0.00  0.00    +0.000 A 
ATOM      9  C   UNL     1       0.032   9.648  22.479  0.00  0.00    +0.000 A 
ATOM     10  C   UNL     1       0.447   8.388  22.027  0.00  0.00    +0.000 A 
ATOM     11  C   UNL     1       1.090   8.286  20.795  0.00  0.00    +0.000 A 
ATOM     12  C   UNL     1       1.291   9.447  20.032  0.00  0.00    +0.000 A 
ATOM     13  C   UNL     1       0.867  10.696  20.469  0.00  0.00    +0.000 A 
ATOM     14  N   UNL     1       1.068  11.775  19.691  0.00  0.00    +0.000 NA
ATOM     15  C   UNL     1       0.657  12.977  20.168  0.00  0.00    +0.000 A 
ATOM     16  C   UNL     1       0.857  14.159  19.268  0.00  0.00    +0.000 C 
ENDBRANCH   1  11
BRANCH   3  17
ATOM     17  C   UNL     1       2.499   5.815  18.251  0.00  0.00    +0.000 A 
ATOM     18  C   UNL     1       1.814   4.613  18.040  0.00  0.00    +0.000 A 
ATOM     19  C   UNL     1       2.440   3.519  17.432  0.00  0.00    +0.000 A 
ATOM     20  C   UNL     1       3.768   3.604  17.027  0.00  0.00    +0.000 A 
ATOM     21  C   UNL     1       4.457   4.803  17.216  0.00  0.00    +0.000 A 
ATOM     22  C   UNL     1       3.814   5.918  17.785  0.00  0.00    +0.000 A 
BRANCH  21  23
ATOM     23  S   UNL     1       6.120   4.967  16.615  0.00  0.00    +0.000 S 
ATOM     24  O   UNL     1       6.255   6.295  16.045  0.00  0.00    +0.000 OA
ATOM     25  O   UNL     1       7.036   4.520  17.641  0.00  0.00    +0.000 OA
BRANCH  23  26
ATOM     26  N   UNL     1       6.239   3.925  15.312  0.00  0.00    +0.000 N 
ATOM     27  C   UNL     1       6.704   4.289  14.053  0.00  0.00    +0.000 C 
ATOM     28  N   UNL     1       7.555   5.237  13.874  0.00  0.00    +0.000 NA
ATOM     29  C   UNL     1       7.771   5.321  12.422  0.00  0.00    +0.000 C 
ATOM     30  C   UNL     1       7.245   4.021  11.842  0.00  0.00    +0.000 C 
ATOM     31  C   UNL     1       6.201   3.578  12.841  0.00  0.00    +0.000 C 
ATOM     32  H   UNL     1       5.656   3.098  15.443  0.00  0.00    +0.000 HD
ENDBRANCH  23  26
ENDBRANCH  21  23
ENDBRANCH   3  17
TORSDOF 4
ENDMDL
