MODEL 1
REMARK VINA RESULT:      -8.4      0.000      0.000
REMARK  Name = 
REMARK  4 active torsions:
REMARK  status: ('A' for Active; 'I' for Inactive)
REMARK    1  A    between atoms: C_1  and  C_2
REMARK    2  A    between atoms: N_4  and  C_5
REMARK    3  A    between atoms: C_12  and  N_13
REMARK    4  A    between atoms: C_14  and  C_16
REMARK                            x       y       z     vdW  Elec       q    Type
REMARK                         _______ _______ _______ _____ _____    ______ ____
ROOT
ATOM      1  N   UNL     1       4.519   5.335  17.438  0.00  0.00    +0.000 N 
ATOM      2  C   UNL     1       5.908   5.325  17.546  0.00  0.00    +0.000 C 
ATOM      3  O   UNL     1       6.575   5.894  18.402  0.00  0.00    +0.000 OA
ATOM      4  H   UNL     1       4.124   4.793  16.675  0.00  0.00    +0.000 HD
ENDROOT
BRANCH   2   5
ATOM      5  C   UNL     1       6.543   4.565  16.375  0.00  0.00    +0.000 C 
ATOM      6  C   UNL     1       5.549   3.812  15.484  0.00  0.00    +0.000 C 
ATOM      7  C   UNL     1       6.235   3.995  14.179  0.00  0.00    +0.000 A 
ATOM      8  C   UNL     1       6.043   3.358  12.969  0.00  0.00    +0.000 A 
ATOM      9  C   UNL     1       6.783   3.802  11.863  0.00  0.00    +0.000 A 
ATOM     10  C   UNL     1       7.675   4.882  11.984  0.00  0.00    +0.000 A 
ATOM     11  C   UNL     1       7.860   5.511  13.214  0.00  0.00    +0.000 A 
ATOM     12  C   UNL     1       7.149   5.030  14.293  0.00  0.00    +0.000 A 
ATOM     13  O   UNL     1       7.272   5.525  15.561  0.00  0.00    +0.000 OA
ENDBRANCH   2   5
BRANCH   1  19
ATOM     14  C   UNL     1       3.221   3.838  19.954  0.00  0.00    +0.000 C 
ATOM     15  C   UNL     1       3.061   5.238  19.483  0.00  0.00    +0.000 A 
ATOM     16  N   UNL     1       2.282   6.071  20.179  0.00  0.00    +0.000 NA
ATOM     17  N   UNL     1       2.290   7.233  19.476  0.00  0.00    +0.000 N 
ATOM     18  C   UNL     1       3.098   7.138  18.365  0.00  0.00    +0.000 A 
ATOM     19  C   UNL     1       3.628   5.872  18.347  0.00  0.00    +0.000 A 
BRANCH  17  20
ATOM     20  C   UNL     1       1.513   8.344  19.904  0.00  0.00    +0.000 A 
ATOM     21  C   UNL     1       1.016   8.376  21.218  0.00  0.00    +0.000 A 
ATOM     22  C   UNL     1       0.234   9.449  21.650  0.00  0.00    +0.000 A 
ATOM     23  C   UNL     1      -0.062  10.492  20.776  0.00  0.00    +0.000 A 
ATOM     24  C   UNL     1       0.429  10.469  19.471  0.00  0.00    +0.000 A 
ATOM     25  C   UNL     1       1.218   9.402  19.034  0.00  0.00    +0.000 A 
ENDBRANCH  17  20
ENDBRANCH   1  19
TORSDOF 3
ENDMDL
MODEL 2
REMARK VINA RESULT:      -7.9      0.887      1.041
REMARK  Name = 
REMARK  4 active torsions:
REMARK  status: ('A' for Active; 'I' for Inactive)
REMARK    1  A    between atoms: C_1  and  C_2
REMARK    2  A    between atoms: N_4  and  C_5
REMARK    3  A    between atoms: C_12  and  N_13
REMARK    4  A    between atoms: C_14  and  C_16
REMARK                            x       y       z     vdW  Elec       q    Type
REMARK                         _______ _______ _______ _____ _____    ______ ____
ROOT
ATOM      1  N   UNL     1       4.140   5.940  17.322  0.00  0.00    +0.000 N 
ATOM      2  C   UNL     1       5.496   6.178  17.107  0.00  0.00    +0.000 C 
ATOM      3  O   UNL     1       6.143   7.131  17.526  0.00  0.00    +0.000 OA
ATOM      4  H   UNL     1       3.763   5.089  16.915  0.00  0.00    +0.000 HD
ENDROOT
BRANCH   2   5
ATOM      5  C   UNL     1       6.096   5.121  16.172  0.00  0.00    +0.000 C 
ATOM      6  C   UNL     1       5.068   4.325  15.361  0.00  0.00    +0.000 C 
ATOM      7  C   UNL     1       5.857   4.148  14.114  0.00  0.00    +0.000 A 
ATOM      8  C   UNL     1       5.658   3.301  13.041  0.00  0.00    +0.000 A 
ATOM      9  C   UNL     1       6.522   3.413  11.942  0.00  0.00    +0.000 A 
ATOM     10  C   UNL     1       7.544   4.380  11.927  0.00  0.00    +0.000 A 
ATOM     11  C   UNL     1       7.732   5.223  13.021  0.00  0.00    +0.000 A 
ATOM     12  C   UNL     1       6.893   5.067  14.103  0.00  0.00    +0.000 A 
ATOM     13  O   UNL     1       7.000   5.796  15.255  0.00  0.00    +0.000 OA
ENDBRANCH   2   5
BRANCH   1  19
ATOM     14  C   UNL     1       2.993   4.980  20.153  0.00  0.00    +0.000 C 
ATOM     15  C   UNL     1       2.804   6.262  19.427  0.00  0.00    +0.000 A 
ATOM     16  N   UNL     1       2.066   7.224  19.988  0.00  0.00    +0.000 NA
ATOM     17  N   UNL     1       2.031   8.225  19.072  0.00  0.00    +0.000 N 
ATOM     18  C   UNL     1       2.774   7.904  17.956  0.00  0.00    +0.000 A 
ATOM     19  C   UNL     1       3.303   6.655  18.158  0.00  0.00    +0.000 A 
BRANCH  17  20
ATOM     20  C   UNL     1       1.279   9.406  19.317  0.00  0.00    +0.000 A 
ATOM     21  C   UNL     1       0.323   9.416  20.346  0.00  0.00    +0.000 A 
ATOM     22  C   UNL     1      -0.440  10.561  20.588  0.00  0.00    +0.000 A 
ATOM     23  C   UNL     1      -0.259  11.697  19.804  0.00  0.00    +0.000 A 
ATOM     24  C   UNL     1       0.689  11.696  18.781  0.00  0.00    +0.000 A 
ATOM     25  C   UNL     1       1.461  10.557  18.538  0.00  0.00    +0.000 A 
ENDBRANCH  17  20
ENDBRANCH   1  19
TORSDOF 3
ENDMDL
MODEL 3
REMARK VINA RESULT:      -7.8      4.217      6.425
REMARK  Name = 
REMARK  4 active torsions:
REMARK  status: ('A' for Active; 'I' for Inactive)
REMARK    1  A    between atoms: C_1  and  C_2
REMARK    2  A    between atoms: N_4  and  C_5
REMARK    3  A    between atoms: C_12  and  N_13
REMARK    4  A    between atoms: C_14  and  C_16
REMARK                            x       y       z     vdW  Elec       q    Type
REMARK                         _______ _______ _______ _____ _____    ______ ____
ROOT
ATOM      1  N   UNL     1       6.447   7.229  17.464  0.00  0.00    +0.000 N 
ATOM      2  C   UNL     1       7.626   7.184  18.205  0.00  0.00    +0.000 C 
ATOM      3  O   UNL     1       7.939   6.327  19.023  0.00  0.00    +0.000 OA
ATOM      4  H   UNL     1       6.354   8.005  16.814  0.00  0.00    +0.000 HD
ENDROOT
BRANCH   2   5
ATOM      5  C   UNL     1       8.486   8.426  17.942  0.00  0.00    +0.000 C 
ATOM      6  C   UNL     1       7.722   9.629  17.380  0.00  0.00    +0.000 C 
ATOM      7  C   UNL     1       8.485  10.712  18.051  0.00  0.00    +0.000 A 
ATOM      8  C   UNL     1       8.517  12.071  17.805  0.00  0.00    +0.000 A 
ATOM      9  C   UNL     1       9.271  12.881  18.667  0.00  0.00    +0.000 A 
ATOM     10  C   UNL     1       9.951  12.324  19.765  0.00  0.00    +0.000 A 
ATOM     11  C   UNL     1       9.911  10.950  19.995  0.00  0.00    +0.000 A 
ATOM     12  C   UNL     1       9.195  10.172  19.111  0.00  0.00    +0.000 A 
ATOM     13  O   UNL     1       9.114   8.810  19.196  0.00  0.00    +0.000 OA
ENDBRANCH   2   5
BRANCH   1  19
ATOM     14  C   UNL     1       5.864   5.251  15.015  0.00  0.00    +0.000 C 
ATOM     15  C   UNL     1       5.213   5.346  16.347  0.00  0.00    +0.000 A 
ATOM     16  N   UNL     1       4.233   4.491  16.653  0.00  0.00    +0.000 NA
ATOM     17  N   UNL     1       3.809   4.865  17.888  0.00  0.00    +0.000 N 
ATOM     18  C   UNL     1       4.546   5.926  18.366  0.00  0.00    +0.000 A 
ATOM     19  C   UNL     1       5.473   6.251  17.409  0.00  0.00    +0.000 A 
BRANCH  17  20
ATOM     20  C   UNL     1       2.723   4.195  18.515  0.00  0.00    +0.000 A 
ATOM     21  C   UNL     1       2.171   4.726  19.692  0.00  0.00    +0.000 A 
ATOM     22  C   UNL     1       1.117   4.072  20.334  0.00  0.00    +0.000 A 
ATOM     23  C   UNL     1       0.611   2.884  19.809  0.00  0.00    +0.000 A 
ATOM     24  C   UNL     1       1.153   2.352  18.639  0.00  0.00    +0.000 A 
ATOM     25  C   UNL     1       2.202   3.005  17.988  0.00  0.00    +0.000 A 
ENDBRANCH  17  20
ENDBRANCH   1  19
TORSDOF 3
ENDMDL
MODEL 4
REMARK VINA RESULT:      -7.7      0.991      1.120
REMARK  Name = 
REMARK  4 active torsions:
REMARK  status: ('A' for Active; 'I' for Inactive)
REMARK    1  A    between atoms: C_1  and  C_2
REMARK    2  A    between atoms: N_4  and  C_5
REMARK    3  A    between atoms: C_12  and  N_13
REMARK    4  A    between atoms: C_14  and  C_16
REMARK                            x       y       z     vdW  Elec       q    Type
REMARK                         _______ _______ _______ _____ _____    ______ ____
ROOT
ATOM      1  N   UNL     1       3.852   5.493  18.286  0.00  0.00    +0.000 N 
ATOM      2  C   UNL     1       5.168   5.128  18.559  0.00  0.00    +0.000 C 
ATOM      3  O   UNL     1       5.809   5.412  19.564  0.00  0.00    +0.000 OA
ATOM      4  H   UNL     1       3.466   5.156  17.408  0.00  0.00    +0.000 HD
ENDROOT
BRANCH   2   5
ATOM      5  C   UNL     1       5.785   4.375  17.374  0.00  0.00    +0.000 C 
ATOM      6  C   UNL     1       4.782   3.930  16.304  0.00  0.00    +0.000 C 
ATOM      7  C   UNL     1       5.645   4.098  15.106  0.00  0.00    +0.000 A 
ATOM      8  C   UNL     1       5.484   3.635  13.814  0.00  0.00    +0.000 A 
ATOM      9  C   UNL     1       6.424   4.028  12.850  0.00  0.00    +0.000 A 
ATOM     10  C   UNL     1       7.483   4.888  13.188  0.00  0.00    +0.000 A 
ATOM     11  C   UNL     1       7.633   5.341  14.498  0.00  0.00    +0.000 A 
ATOM     12  C   UNL     1       6.717   4.911  15.434  0.00  0.00    +0.000 A 
ATOM     13  O   UNL     1       6.777   5.243  16.759  0.00  0.00    +0.000 OA
ENDBRANCH   2   5
BRANCH   1  19
ATOM     14  C   UNL     1       2.306   4.160  20.752  0.00  0.00    +0.000 C 
ATOM     15  C   UNL     1       2.303   5.563  20.264  0.00  0.00    +0.000 A 
ATOM     16  N   UNL     1       1.579   6.476  20.917  0.00  0.00    +0.000 NA
ATOM     17  N   UNL     1       1.730   7.623  20.206  0.00  0.00    +0.000 N 
ATOM     18  C   UNL     1       2.574   7.436  19.133  0.00  0.00    +0.000 A 
ATOM     19  C   UNL     1       2.979   6.125  19.149  0.00  0.00    +0.000 A 
BRANCH  17  20
ATOM     20  C   UNL     1       1.047   8.809  20.589  0.00  0.00    +0.000 A 
ATOM     21  C   UNL     1       0.573   8.940  21.905  0.00  0.00    +0.000 A 
ATOM     22  C   UNL     1      -0.118  10.089  22.295  0.00  0.00    +0.000 A 
ATOM     23  C   UNL     1      -0.347  11.110  21.376  0.00  0.00    +0.000 A 
ATOM     24  C   UNL     1       0.122  10.989  20.067  0.00  0.00    +0.000 A 
ATOM     25  C   UNL     1       0.822   9.845  19.673  0.00  0.00    +0.000 A 
ENDBRANCH  17  20
ENDBRANCH   1  19
TORSDOF 3
ENDMDL
MODEL 5
REMARK VINA RESULT:      -7.6      4.644      6.790
REMARK  Name = 
REMARK  4 active torsions:
REMARK  status: ('A' for Active; 'I' for Inactive)
REMARK    1  A    between atoms: C_1  and  C_2
REMARK    2  A    between atoms: N_4  and  C_5
REMARK    3  A    between atoms: C_12  and  N_13
REMARK    4  A    between atoms: C_14  and  C_16
REMARK                            x       y       z     vdW  Elec       q    Type
REMARK                         _______ _______ _______ _____ _____    ______ ____
ROOT
ATOM      1  N   UNL     1       1.362   9.075  19.121  0.00  0.00    +0.000 N 
ATOM      2  C   UNL     1       2.200   8.364  18.265  0.00  0.00    +0.000 C 
ATOM      3  O   UNL     1       2.544   8.701  17.138  0.00  0.00    +0.000 OA
ATOM      4  H   UNL     1       1.192   8.658  20.033  0.00  0.00    +0.000 HD
ENDROOT
BRANCH   2   5
ATOM      5  C   UNL     1       2.588   7.012  18.877  0.00  0.00    +0.000 C 
ATOM      6  C   UNL     1       1.888   6.681  20.199  0.00  0.00    +0.000 C 
ATOM      7  C   UNL     1       1.756   5.212  20.020  0.00  0.00    +0.000 A 
ATOM      8  C   UNL     1       1.453   4.222  20.934  0.00  0.00    +0.000 A 
ATOM      9  C   UNL     1       1.305   2.910  20.462  0.00  0.00    +0.000 A 
ATOM     10  C   UNL     1       1.436   2.620  19.092  0.00  0.00    +0.000 A 
ATOM     11  C   UNL     1       1.747   3.631  18.185  0.00  0.00    +0.000 A 
ATOM     12  C   UNL     1       1.925   4.905  18.680  0.00  0.00    +0.000 A 
ATOM     13  O   UNL     1       2.277   5.976  17.905  0.00  0.00    +0.000 OA
ENDBRANCH   2   5
BRANCH   1  19
ATOM     14  C   UNL     1      -1.621   9.864  18.265  0.00  0.00    +0.000 C 
ATOM     15  C   UNL     1      -0.449  10.727  18.566  0.00  0.00    +0.000 A 
ATOM     16  N   UNL     1      -0.590  12.054  18.511  0.00  0.00    +0.000 NA
ATOM     17  N   UNL     1       0.646  12.552  18.770  0.00  0.00    +0.000 N 
ATOM     18  C   UNL     1       1.548  11.542  19.023  0.00  0.00    +0.000 A 
ATOM     19  C   UNL     1       0.873  10.351  18.920  0.00  0.00    +0.000 A 
BRANCH  17  20
ATOM     20  C   UNL     1       0.884  13.954  18.743  0.00  0.00    +0.000 A 
ATOM     21  C   UNL     1      -0.193  14.841  18.908  0.00  0.00    +0.000 A 
ATOM     22  C   UNL     1       0.017  16.221  18.864  0.00  0.00    +0.000 A 
ATOM     23  C   UNL     1       1.298  16.724  18.648  0.00  0.00    +0.000 A 
ATOM     24  C   UNL     1       2.373  15.850  18.485  0.00  0.00    +0.000 A 
ATOM     25  C   UNL     1       2.171  14.468  18.536  0.00  0.00    +0.000 A 
ENDBRANCH  17  20
ENDBRANCH   1  19
TORSDOF 3
ENDMDL
MODEL 6
REMARK VINA RESULT:      -7.5      2.575      9.036
REMARK  Name = 
REMARK  4 active torsions:
REMARK  status: ('A' for Active; 'I' for Inactive)
REMARK    1  A    between atoms: C_1  and  C_2
REMARK    2  A    between atoms: N_4  and  C_5
REMARK    3  A    between atoms: C_12  and  N_13
REMARK    4  A    between atoms: C_14  and  C_16
REMARK                            x       y       z     vdW  Elec       q    Type
REMARK                         _______ _______ _______ _____ _____    ______ ____
ROOT
ATOM      1  N   UNL     1       1.652   8.203  19.332  0.00  0.00    +0.000 N 
ATOM      2  C   UNL     1       1.362   9.336  18.574  0.00  0.00    +0.000 C 
ATOM      3  O   UNL     1       1.916   9.677  17.536  0.00  0.00    +0.000 OA
ATOM      4  H   UNL     1       1.082   8.060  20.161  0.00  0.00    +0.000 HD
ENDROOT
BRANCH   2   5
ATOM      5  C   UNL     1       0.292  10.194  19.259  0.00  0.00    +0.000 C 
ATOM      6  C   UNL     1      -0.175   9.671  20.622  0.00  0.00    +0.000 C 
ATOM      7  C   UNL     1      -0.404  10.976  21.295  0.00  0.00    +0.000 A 
ATOM      8  C   UNL     1      -1.079  11.275  22.462  0.00  0.00    +0.000 A 
ATOM      9  C   UNL     1      -1.058  12.603  22.915  0.00  0.00    +0.000 A 
ATOM     10  C   UNL     1      -0.347  13.591  22.212  0.00  0.00    +0.000 A 
ATOM     11  C   UNL     1       0.325  13.271  21.033  0.00  0.00    +0.000 A 
ATOM     12  C   UNL     1       0.257  11.968  20.590  0.00  0.00    +0.000 A 
ATOM     13  O   UNL     1       0.832  11.534  19.427  0.00  0.00    +0.000 OA
ENDBRANCH   2   5
BRANCH   1  19
ATOM     14  C   UNL     1       1.845   5.316  20.702  0.00  0.00    +0.000 C 
ATOM     15  C   UNL     1       2.604   5.888  19.561  0.00  0.00    +0.000 A 
ATOM     16  N   UNL     1       3.517   5.132  18.944  0.00  0.00    +0.000 NA
ATOM     17  N   UNL     1       4.071   5.941  18.005  0.00  0.00    +0.000 N 
ATOM     18  C   UNL     1       3.482   7.187  18.010  0.00  0.00    +0.000 A 
ATOM     19  C   UNL     1       2.518   7.183  18.987  0.00  0.00    +0.000 A 
BRANCH  17  20
ATOM     20  C   UNL     1       5.132   5.476  17.182  0.00  0.00    +0.000 A 
ATOM     21  C   UNL     1       6.296   4.961  17.779  0.00  0.00    +0.000 A 
ATOM     22  C   UNL     1       7.357   4.518  16.987  0.00  0.00    +0.000 A 
ATOM     23  C   UNL     1       7.268   4.590  15.598  0.00  0.00    +0.000 A 
ATOM     24  C   UNL     1       6.116   5.097  14.998  0.00  0.00    +0.000 A 
ATOM     25  C   UNL     1       5.047   5.535  15.784  0.00  0.00    +0.000 A 
ENDBRANCH  17  20
ENDBRANCH   1  19
TORSDOF 3
ENDMDL
MODEL 7
REMARK VINA RESULT:      -7.3      4.347      6.398
REMARK  Name = 
REMARK  4 active torsions:
REMARK  status: ('A' for Active; 'I' for Inactive)
REMARK    1  A    between atoms: C_1  and  C_2
REMARK    2  A    between atoms: N_4  and  C_5
REMARK    3  A    between atoms: C_12  and  N_13
REMARK    4  A    between atoms: C_14  and  C_16
REMARK                            x       y       z     vdW  Elec       q    Type
REMARK                         _______ _______ _______ _____ _____    ______ ____
ROOT
ATOM      1  N   UNL     1       1.108   8.545  20.132  0.00  0.00    +0.000 N 
ATOM      2  C   UNL     1       2.025   8.184  19.148  0.00  0.00    +0.000 C 
ATOM      3  O   UNL     1       2.368   8.866  18.189  0.00  0.00    +0.000 OA
ATOM      4  H   UNL     1       0.950   7.864  20.870  0.00  0.00    +0.000 HD
ENDROOT
BRANCH   2   5
ATOM      5  C   UNL     1       2.510   6.744  19.352  0.00  0.00    +0.000 C 
ATOM      6  C   UNL     1       1.802   5.982  20.477  0.00  0.00    +0.000 C 
ATOM      7  C   UNL     1       1.803   4.628  19.865  0.00  0.00    +0.000 A 
ATOM      8  C   UNL     1       1.560   3.390  20.427  0.00  0.00    +0.000 A 
ATOM      9  C   UNL     1       1.540   2.272  19.580  0.00  0.00    +0.000 A 
ATOM     10  C   UNL     1       1.737   2.416  18.196  0.00  0.00    +0.000 A 
ATOM     11  C   UNL     1       1.986   3.673  17.646  0.00  0.00    +0.000 A 
ATOM     12  C   UNL     1       2.038   4.749  18.505  0.00  0.00    +0.000 A 
ATOM     13  O   UNL     1       2.319   6.025  18.102  0.00  0.00    +0.000 OA
ENDBRANCH   2   5
BRANCH   1  19
ATOM     14  C   UNL     1      -0.906   9.977  18.095  0.00  0.00    +0.000 C 
ATOM     15  C   UNL     1      -0.397  10.427  19.417  0.00  0.00    +0.000 A 
ATOM     16  N   UNL     1      -0.815  11.596  19.909  0.00  0.00    +0.000 NA
ATOM     17  N   UNL     1      -0.138  11.752  21.076  0.00  0.00    +0.000 N 
ATOM     18  C   UNL     1       0.673  10.668  21.329  0.00  0.00    +0.000 A 
ATOM     19  C   UNL     1       0.518   9.784  20.291  0.00  0.00    +0.000 A 
BRANCH  17  20
ATOM     20  C   UNL     1      -0.300  12.929  21.856  0.00  0.00    +0.000 A 
ATOM     21  C   UNL     1      -1.236  12.941  22.904  0.00  0.00    +0.000 A 
ATOM     22  C   UNL     1      -1.423  14.095  23.668  0.00  0.00    +0.000 A 
ATOM     23  C   UNL     1      -0.684  15.243  23.390  0.00  0.00    +0.000 A 
ATOM     24  C   UNL     1       0.248  15.238  22.353  0.00  0.00    +0.000 A 
ATOM     25  C   UNL     1       0.446  14.085  21.589  0.00  0.00    +0.000 A 
ENDBRANCH  17  20
ENDBRANCH   1  19
TORSDOF 3
ENDMDL
MODEL 8
REMARK VINA RESULT:      -7.3      4.755     10.113
REMARK  Name = 
REMARK  4 active torsions:
REMARK  status: ('A' for Active; 'I' for Inactive)
REMARK    1  A    between atoms: C_1  and  C_2
REMARK    2  A    between atoms: N_4  and  C_5
REMARK    3  A    between atoms: C_12  and  N_13
REMARK    4  A    between atoms: C_14  and  C_16
REMARK                            x       y       z     vdW  Elec       q    Type
REMARK                         _______ _______ _______ _____ _____    ______ ____
ROOT
ATOM      1  N   UNL     1       0.667   9.523  20.596  0.00  0.00    +0.000 N 
ATOM      2  C   UNL     1       0.810  10.105  21.853  0.00  0.00    +0.000 C 
ATOM      3  O   UNL     1       1.469   9.664  22.788  0.00  0.00    +0.000 OA
ATOM      4  H   UNL     1       0.096  10.032  19.927  0.00  0.00    +0.000 HD
ENDROOT
BRANCH   2   5
ATOM      5  C   UNL     1      -0.055  11.365  21.975  0.00  0.00    +0.000 C 
ATOM      6  C   UNL     1      -0.941  11.655  20.759  0.00  0.00    +0.000 C 
ATOM      7  C   UNL     1      -2.113  12.230  21.469  0.00  0.00    +0.000 A 
ATOM      8  C   UNL     1      -3.188  12.951  20.986  0.00  0.00    +0.000 A 
ATOM      9  C   UNL     1      -4.210  13.295  21.883  0.00  0.00    +0.000 A 
ATOM     10  C   UNL     1      -4.149  12.892  23.229  0.00  0.00    +0.000 A 
ATOM     11  C   UNL     1      -3.055  12.168  23.700  0.00  0.00    +0.000 A 
ATOM     12  C   UNL     1      -2.046  11.877  22.807  0.00  0.00    +0.000 A 
ATOM     13  O   UNL     1      -0.900  11.215  23.150  0.00  0.00    +0.000 OA
ENDBRANCH   2   5
BRANCH   1  19
ATOM     14  C   UNL     1       2.148   9.259  17.769  0.00  0.00    +0.000 C 
ATOM     15  C   UNL     1       2.030   8.285  18.885  0.00  0.00    +0.000 A 
ATOM     16  N   UNL     1       2.626   7.094  18.773  0.00  0.00    +0.000 NA
ATOM     17  N   UNL     1       2.289   6.422  19.903  0.00  0.00    +0.000 N 
ATOM     18  C   UNL     1       1.515   7.201  20.735  0.00  0.00    +0.000 A 
ATOM     19  C   UNL     1       1.344   8.416  20.120  0.00  0.00    +0.000 A 
BRANCH  17  20
ATOM     20  C   UNL     1       2.713   5.079  20.102  0.00  0.00    +0.000 A 
ATOM     21  C   UNL     1       2.081   4.291  21.078  0.00  0.00    +0.000 A 
ATOM     22  C   UNL     1       2.498   2.977  21.302  0.00  0.00    +0.000 A 
ATOM     23  C   UNL     1       3.548   2.444  20.559  0.00  0.00    +0.000 A 
ATOM     24  C   UNL     1       4.179   3.219  19.586  0.00  0.00    +0.000 A 
ATOM     25  C   UNL     1       3.763   4.531  19.352  0.00  0.00    +0.000 A 
ENDBRANCH  17  20
ENDBRANCH   1  19
TORSDOF 3
ENDMDL
MODEL 9
REMARK VINA RESULT:      -7.3      2.694      9.348
REMARK  Name = 
REMARK  4 active torsions:
REMARK  status: ('A' for Active; 'I' for Inactive)
REMARK    1  A    between atoms: C_1  and  C_2
REMARK    2  A    between atoms: N_4  and  C_5
REMARK    3  A    between atoms: C_12  and  N_13
REMARK    4  A    between atoms: C_14  and  C_16
REMARK                            x       y       z     vdW  Elec       q    Type
REMARK                         _______ _______ _______ _____ _____    ______ ____
ROOT
ATOM      1  N   UNL     1       2.070   8.544  19.469  0.00  0.00    +0.000 N 
ATOM      2  C   UNL     1       1.092   9.326  18.858  0.00  0.00    +0.000 C 
ATOM      3  O   UNL     1       0.654   9.187  17.722  0.00  0.00    +0.000 OA
ATOM      4  H   UNL     1       2.306   8.788  20.427  0.00  0.00    +0.000 HD
ENDROOT
BRANCH   2   5
ATOM      5  C   UNL     1       0.672  10.487  19.767  0.00  0.00    +0.000 C 
ATOM      6  C   UNL     1      -0.584  11.237  19.311  0.00  0.00    +0.000 C 
ATOM      7  C   UNL     1      -1.151  11.558  20.647  0.00  0.00    +0.000 A 
ATOM      8  C   UNL     1      -2.143  12.447  21.009  0.00  0.00    +0.000 A 
ATOM      9  C   UNL     1      -2.545  12.478  22.353  0.00  0.00    +0.000 A 
ATOM     10  C   UNL     1      -1.968  11.608  23.295  0.00  0.00    +0.000 A 
ATOM     11  C   UNL     1      -0.964  10.720  22.912  0.00  0.00    +0.000 A 
ATOM     12  C   UNL     1      -0.561  10.736  21.594  0.00  0.00    +0.000 A 
ATOM     13  O   UNL     1       0.443   9.951  21.100  0.00  0.00    +0.000 OA
ENDBRANCH   2   5
BRANCH   1  19
ATOM     14  C   UNL     1       1.665   5.577  20.602  0.00  0.00    +0.000 C 
ATOM     15  C   UNL     1       2.444   6.059  19.432  0.00  0.00    +0.000 A 
ATOM     16  N   UNL     1       3.090   5.170  18.672  0.00  0.00    +0.000 NA
ATOM     17  N   UNL     1       3.745   5.910  17.741  0.00  0.00    +0.000 N 
ATOM     18  C   UNL     1       3.480   7.253  17.896  0.00  0.00    +0.000 A 
ATOM     19  C   UNL     1       2.629   7.386  18.964  0.00  0.00    +0.000 A 
BRANCH  17  20
ATOM     20  C   UNL     1       4.589   5.287  16.782  0.00  0.00    +0.000 A 
ATOM     21  C   UNL     1       5.200   6.068  15.787  0.00  0.00    +0.000 A 
ATOM     22  C   UNL     1       6.016   5.470  14.824  0.00  0.00    +0.000 A 
ATOM     23  C   UNL     1       6.222   4.093  14.843  0.00  0.00    +0.000 A 
ATOM     24  C   UNL     1       5.619   3.311  15.828  0.00  0.00    +0.000 A 
ATOM     25  C   UNL     1       4.808   3.903  16.799  0.00  0.00    +0.000 A 
ENDBRANCH  17  20
ENDBRANCH   1  19
TORSDOF 3
ENDMDL
