MODEL 1
REMARK VINA RESULT:      -8.5      0.000      0.000
REMARK  Name = 
REMARK  5 active torsions:
REMARK  status: ('A' for Active; 'I' for Inactive)
REMARK    1  A    between atoms: C_2  and  C_11
REMARK    2  A    between atoms: N_3  and  C_4
REMARK    3  A    between atoms: C_4  and  C_5
REMARK    4  A    between atoms: C_15  and  S_16
REMARK    5  A    between atoms: S_16  and  N_19
REMARK                            x       y       z     vdW  Elec       q    Type
REMARK                         _______ _______ _______ _____ _____    ______ ____
ROOT
ATOM      1  C   UNL     1       1.412   8.122  20.893  0.00  0.00    +0.000 A 
ATOM      2  C   UNL     1       1.831   8.674  19.672  0.00  0.00    +0.000 A 
ATOM      3  C   UNL     1       2.254   7.842  18.632  0.00  0.00    +0.000 A 
ATOM      4  C   UNL     1       2.244   6.455  18.802  0.00  0.00    +0.000 A 
ATOM      5  C   UNL     1       1.777   5.898  19.999  0.00  0.00    +0.000 A 
ATOM      6  C   UNL     1       1.384   6.732  21.054  0.00  0.00    +0.000 A 
ENDROOT
BRANCH   1   8
ATOM      7  O   UNL     1       1.875   9.482  22.748  0.00  0.00    +0.000 OA
ATOM      8  C   UNL     1       1.020   9.062  21.976  0.00  0.00    +0.000 C 
ATOM      9  N   UNL     1      -0.316   9.382  22.073  0.00  0.00    +0.000 N 
ATOM     10  H   UNL     1      -0.990   8.933  21.470  0.00  0.00    +0.000 HD
BRANCH   9  11
ATOM     11  C   UNL     1      -0.823  10.164  23.182  0.00  0.00    +0.000 C 
BRANCH  11  12
ATOM     12  C   UNL     1      -1.272  11.522  22.737  0.00  0.00    +0.000 A 
ATOM     13  C   UNL     1      -0.476  12.338  21.929  0.00  0.00    +0.000 A 
ATOM     14  C   UNL     1      -0.944  13.592  21.542  0.00  0.00    +0.000 A 
ATOM     15  C   UNL     1      -2.195  13.990  21.981  0.00  0.00    +0.000 A 
ATOM     16  N   UNL     1      -2.989  13.235  22.769  0.00  0.00    +0.000 NA
ATOM     17  C   UNL     1      -2.510  12.022  23.130  0.00  0.00    +0.000 A 
ENDBRANCH  11  12
ENDBRANCH   9  11
ENDBRANCH   1   8
BRANCH   5  18
ATOM     18  S   UNL     1       1.965   4.147  20.298  0.00  0.00    +0.000 S 
ATOM     19  O   UNL     1       2.541   4.002  21.612  0.00  0.00    +0.000 OA
ATOM     20  O   UNL     1       0.675   3.559  19.987  0.00  0.00    +0.000 OA
BRANCH  18  21
ATOM     21  N   UNL     1       3.066   3.610  19.176  0.00  0.00    +0.000 NA
ATOM     22  C   UNL     1       2.715   2.770  18.017  0.00  0.00    +0.000 C 
ATOM     23  C   UNL     1       3.393   3.350  16.755  0.00  0.00    +0.000 C 
ATOM     24  C   UNL     1       4.833   3.789  16.973  0.00  0.00    +0.000 A 
ATOM     25  C   UNL     1       5.696   4.015  15.895  0.00  0.00    +0.000 A 
ATOM     26  C   UNL     1       6.931   4.634  16.106  0.00  0.00    +0.000 A 
ATOM     27  C   UNL     1       7.265   5.116  17.371  0.00  0.00    +0.000 A 
ATOM     28  C   UNL     1       6.432   4.857  18.459  0.00  0.00    +0.000 A 
ATOM     29  C   UNL     1       5.262   4.114  18.278  0.00  0.00    +0.000 A 
ATOM     30  C   UNL     1       4.498   3.545  19.450  0.00  0.00    +0.000 C 
ENDBRANCH  18  21
ENDBRANCH   5  18
TORSDOF 5
ENDMDL
MODEL 2
REMARK VINA RESULT:      -8.4      2.668      3.683
REMARK  Name = 
REMARK  5 active torsions:
REMARK  status: ('A' for Active; 'I' for Inactive)
REMARK    1  A    between atoms: C_2  and  C_11
REMARK    2  A    between atoms: N_3  and  C_4
REMARK    3  A    between atoms: C_4  and  C_5
REMARK    4  A    between atoms: C_15  and  S_16
REMARK    5  A    between atoms: S_16  and  N_19
REMARK                            x       y       z     vdW  Elec       q    Type
REMARK                         _______ _______ _______ _____ _____    ______ ____
ROOT
ATOM      1  C   UNL     1       1.988   6.242  19.838  0.00  0.00    +0.000 A 
ATOM      2  C   UNL     1       1.279   5.542  20.827  0.00  0.00    +0.000 A 
ATOM      3  C   UNL     1       1.262   4.145  20.826  0.00  0.00    +0.000 A 
ATOM      4  C   UNL     1       1.969   3.441  19.847  0.00  0.00    +0.000 A 
ATOM      5  C   UNL     1       2.721   4.134  18.890  0.00  0.00    +0.000 A 
ATOM      6  C   UNL     1       2.711   5.535  18.870  0.00  0.00    +0.000 A 
ENDROOT
BRANCH   1   8
ATOM      7  O   UNL     1       1.786   8.303  20.941  0.00  0.00    +0.000 OA
ATOM      8  C   UNL     1       1.927   7.728  19.867  0.00  0.00    +0.000 C 
ATOM      9  N   UNL     1       1.993   8.379  18.656  0.00  0.00    +0.000 N 
ATOM     10  H   UNL     1       2.013   7.851  17.796  0.00  0.00    +0.000 HD
BRANCH   9  11
ATOM     11  C   UNL     1       1.788   9.810  18.561  0.00  0.00    +0.000 C 
BRANCH  11  12
ATOM     12  C   UNL     1       0.331  10.154  18.508  0.00  0.00    +0.000 A 
ATOM     13  C   UNL     1      -0.513   9.656  17.512  0.00  0.00    +0.000 A 
ATOM     14  C   UNL     1      -1.861  10.006  17.511  0.00  0.00    +0.000 A 
ATOM     15  C   UNL     1      -2.321  10.849  18.508  0.00  0.00    +0.000 A 
ATOM     16  N   UNL     1      -1.536  11.359  19.481  0.00  0.00    +0.000 NA
ATOM     17  C   UNL     1      -0.231  11.003  19.458  0.00  0.00    +0.000 A 
ENDBRANCH  11  12
ENDBRANCH   9  11
ENDBRANCH   1   8
BRANCH   5  18
ATOM     18  S   UNL     1       3.443   3.250  17.516  0.00  0.00    +0.000 S 
ATOM     19  O   UNL     1       3.931   1.994  18.030  0.00  0.00    +0.000 OA
ATOM     20  O   UNL     1       2.442   3.281  16.465  0.00  0.00    +0.000 OA
BRANCH  18  21
ATOM     21  N   UNL     1       4.742   4.160  17.023  0.00  0.00    +0.000 NA
ATOM     22  C   UNL     1       4.815   4.851  15.723  0.00  0.00    +0.000 C 
ATOM     23  C   UNL     1       5.314   6.296  15.952  0.00  0.00    +0.000 C 
ATOM     24  C   UNL     1       6.465   6.403  16.942  0.00  0.00    +0.000 A 
ATOM     25  C   UNL     1       7.256   7.556  17.016  0.00  0.00    +0.000 A 
ATOM     26  C   UNL     1       8.149   7.723  18.077  0.00  0.00    +0.000 A 
ATOM     27  C   UNL     1       8.186   6.791  19.114  0.00  0.00    +0.000 A 
ATOM     28  C   UNL     1       7.436   5.620  19.026  0.00  0.00    +0.000 A 
ATOM     29  C   UNL     1       6.647   5.381  17.898  0.00  0.00    +0.000 A 
ATOM     30  C   UNL     1       6.070   4.015  17.610  0.00  0.00    +0.000 C 
ENDBRANCH  18  21
ENDBRANCH   5  18
TORSDOF 5
ENDMDL
MODEL 3
REMARK VINA RESULT:      -8.4      5.381      7.451
REMARK  Name = 
REMARK  5 active torsions:
REMARK  status: ('A' for Active; 'I' for Inactive)
REMARK    1  A    between atoms: C_2  and  C_11
REMARK    2  A    between atoms: N_3  and  C_4
REMARK    3  A    between atoms: C_4  and  C_5
REMARK    4  A    between atoms: C_15  and  S_16
REMARK    5  A    between atoms: S_16  and  N_19
REMARK                            x       y       z     vdW  Elec       q    Type
REMARK                         _______ _______ _______ _____ _____    ______ ____
ROOT
ATOM      1  C   UNL     1       8.037   7.962  18.215  0.00  0.00    +0.000 A 
ATOM      2  C   UNL     1       8.443   7.083  19.231  0.00  0.00    +0.000 A 
ATOM      3  C   UNL     1       8.017   5.753  19.223  0.00  0.00    +0.000 A 
ATOM      4  C   UNL     1       7.197   5.291  18.190  0.00  0.00    +0.000 A 
ATOM      5  C   UNL     1       6.833   6.149  17.146  0.00  0.00    +0.000 A 
ATOM      6  C   UNL     1       7.232   7.493  17.170  0.00  0.00    +0.000 A 
ENDROOT
BRANCH   1   8
ATOM      7  O   UNL     1       8.075  10.193  17.489  0.00  0.00    +0.000 OA
ATOM      8  C   UNL     1       8.486   9.377  18.307  0.00  0.00    +0.000 C 
ATOM      9  N   UNL     1       9.386   9.684  19.302  0.00  0.00    +0.000 N 
ATOM     10  H   UNL     1       9.764   8.953  19.887  0.00  0.00    +0.000 HD
BRANCH   9  11
ATOM     11  C   UNL     1      10.002  10.993  19.382  0.00  0.00    +0.000 C 
BRANCH  11  12
ATOM     12  C   UNL     1       9.293  11.874  20.364  0.00  0.00    +0.000 A 
ATOM     13  C   UNL     1       8.942  11.429  21.642  0.00  0.00    +0.000 A 
ATOM     14  C   UNL     1       8.286  12.292  22.517  0.00  0.00    +0.000 A 
ATOM     15  C   UNL     1       7.997  13.574  22.082  0.00  0.00    +0.000 A 
ATOM     16  N   UNL     1       8.309  14.037  20.853  0.00  0.00    +0.000 NA
ATOM     17  C   UNL     1       8.947  13.179  20.023  0.00  0.00    +0.000 A 
ENDBRANCH  11  12
ENDBRANCH   9  11
ENDBRANCH   1   8
BRANCH   5  18
ATOM     18  S   UNL     1       5.617   5.627  15.947  0.00  0.00    +0.000 S 
ATOM     19  O   UNL     1       5.045   6.821  15.375  0.00  0.00    +0.000 OA
ATOM     20  O   UNL     1       6.292   4.654  15.107  0.00  0.00    +0.000 OA
BRANCH  18  21
ATOM     21  N   UNL     1       4.437   4.838  16.810  0.00  0.00    +0.000 NA
ATOM     22  C   UNL     1       4.236   3.378  16.783  0.00  0.00    +0.000 C 
ATOM     23  C   UNL     1       4.069   2.869  18.233  0.00  0.00    +0.000 C 
ATOM     24  C   UNL     1       3.178   3.748  19.098  0.00  0.00    +0.000 A 
ATOM     25  C   UNL     1       2.645   3.281  20.305  0.00  0.00    +0.000 A 
ATOM     26  C   UNL     1       2.027   4.170  21.187  0.00  0.00    +0.000 A 
ATOM     27  C   UNL     1       2.024   5.538  20.915  0.00  0.00    +0.000 A 
ATOM     28  C   UNL     1       2.512   6.007  19.696  0.00  0.00    +0.000 A 
ATOM     29  C   UNL     1       3.004   5.105  18.749  0.00  0.00    +0.000 A 
ATOM     30  C   UNL     1       3.248   5.517  17.316  0.00  0.00    +0.000 C 
ENDBRANCH  18  21
ENDBRANCH   5  18
TORSDOF 5
ENDMDL
MODEL 4
REMARK VINA RESULT:      -8.3      2.957      3.950
REMARK  Name = 
REMARK  5 active torsions:
REMARK  status: ('A' for Active; 'I' for Inactive)
REMARK    1  A    between atoms: C_2  and  C_11
REMARK    2  A    between atoms: N_3  and  C_4
REMARK    3  A    between atoms: C_4  and  C_5
REMARK    4  A    between atoms: C_15  and  S_16
REMARK    5  A    between atoms: S_16  and  N_19
REMARK                            x       y       z     vdW  Elec       q    Type
REMARK                         _______ _______ _______ _____ _____    ______ ____
ROOT
ATOM      1  C   UNL     1       2.331   7.137  19.105  0.00  0.00    +0.000 A 
ATOM      2  C   UNL     1       1.573   6.728  20.214  0.00  0.00    +0.000 A 
ATOM      3  C   UNL     1       1.814   5.489  20.814  0.00  0.00    +0.000 A 
ATOM      4  C   UNL     1       2.825   4.661  20.318  0.00  0.00    +0.000 A 
ATOM      5  C   UNL     1       3.618   5.086  19.246  0.00  0.00    +0.000 A 
ATOM      6  C   UNL     1       3.356   6.314  18.622  0.00  0.00    +0.000 A 
ENDROOT
BRANCH   1   8
ATOM      7  O   UNL     1       2.515   8.758  17.419  0.00  0.00    +0.000 OA
ATOM      8  C   UNL     1       1.993   8.445  18.483  0.00  0.00    +0.000 C 
ATOM      9  N   UNL     1       1.126   9.260  19.175  0.00  0.00    +0.000 N 
ATOM     10  H   UNL     1       0.800   8.992  20.092  0.00  0.00    +0.000 HD
BRANCH   9  11
ATOM     11  C   UNL     1       0.853  10.613  18.734  0.00  0.00    +0.000 C 
BRANCH  11  12
ATOM     12  C   UNL     1      -0.616  10.848  18.559  0.00  0.00    +0.000 A 
ATOM     13  C   UNL     1      -1.374  10.140  17.621  0.00  0.00    +0.000 A 
ATOM     14  C   UNL     1      -2.738  10.397  17.502  0.00  0.00    +0.000 A 
ATOM     15  C   UNL     1      -3.300  11.360  18.323  0.00  0.00    +0.000 A 
ATOM     16  N   UNL     1      -2.600  12.071  19.233  0.00  0.00    +0.000 NA
ATOM     17  C   UNL     1      -1.277  11.801  19.329  0.00  0.00    +0.000 A 
ENDBRANCH  11  12
ENDBRANCH   9  11
ENDBRANCH   1   8
BRANCH   5  18
ATOM     18  S   UNL     1       4.758   3.948  18.476  0.00  0.00    +0.000 S 
ATOM     19  O   UNL     1       5.866   3.780  19.384  0.00  0.00    +0.000 OA
ATOM     20  O   UNL     1       3.955   2.809  18.070  0.00  0.00    +0.000 OA
BRANCH  18  21
ATOM     21  N   UNL     1       5.308   4.711  17.107  0.00  0.00    +0.000 NA
ATOM     22  C   UNL     1       6.277   5.822  17.118  0.00  0.00    +0.000 C 
ATOM     23  C   UNL     1       7.362   5.550  16.052  0.00  0.00    +0.000 C 
ATOM     24  C   UNL     1       6.816   5.026  14.733  0.00  0.00    +0.000 A 
ATOM     25  C   UNL     1       7.587   5.046  13.565  0.00  0.00    +0.000 A 
ATOM     26  C   UNL     1       7.156   4.355  12.430  0.00  0.00    +0.000 A 
ATOM     27  C   UNL     1       6.008   3.565  12.486  0.00  0.00    +0.000 A 
ATOM     28  C   UNL     1       5.211   3.573  13.629  0.00  0.00    +0.000 A 
ATOM     29  C   UNL     1       5.563   4.374  14.718  0.00  0.00    +0.000 A 
ATOM     30  C   UNL     1       4.590   4.660  15.838  0.00  0.00    +0.000 C 
ENDBRANCH  18  21
ENDBRANCH   5  18
TORSDOF 5
ENDMDL
MODEL 5
REMARK VINA RESULT:      -8.3      3.685      9.862
REMARK  Name = 
REMARK  5 active torsions:
REMARK  status: ('A' for Active; 'I' for Inactive)
REMARK    1  A    between atoms: C_2  and  C_11
REMARK    2  A    between atoms: N_3  and  C_4
REMARK    3  A    between atoms: C_4  and  C_5
REMARK    4  A    between atoms: C_15  and  S_16
REMARK    5  A    between atoms: S_16  and  N_19
REMARK                            x       y       z     vdW  Elec       q    Type
REMARK                         _______ _______ _______ _____ _____    ______ ____
ROOT
ATOM      1  C   UNL     1       0.818   9.247  20.857  0.00  0.00    +0.000 A 
ATOM      2  C   UNL     1       0.636   8.660  22.119  0.00  0.00    +0.000 A 
ATOM      3  C   UNL     1      -0.075   9.336  23.114  0.00  0.00    +0.000 A 
ATOM      4  C   UNL     1      -0.623  10.593  22.846  0.00  0.00    +0.000 A 
ATOM      5  C   UNL     1      -0.489  11.160  21.573  0.00  0.00    +0.000 A 
ATOM      6  C   UNL     1       0.252  10.498  20.584  0.00  0.00    +0.000 A 
ENDROOT
BRANCH   1   8
ATOM      7  O   UNL     1       1.753   8.951  18.726  0.00  0.00    +0.000 OA
ATOM      8  C   UNL     1       1.626   8.498  19.858  0.00  0.00    +0.000 C 
ATOM      9  N   UNL     1       2.160   7.295  20.261  0.00  0.00    +0.000 N 
ATOM     10  H   UNL     1       1.944   6.925  21.175  0.00  0.00    +0.000 HD
BRANCH   9  11
ATOM     11  C   UNL     1       2.829   6.418  19.323  0.00  0.00    +0.000 C 
BRANCH  11  12
ATOM     12  C   UNL     1       2.145   5.089  19.229  0.00  0.00    +0.000 A 
ATOM     13  C   UNL     1       1.504   4.505  20.325  0.00  0.00    +0.000 A 
ATOM     14  C   UNL     1       0.880   3.268  20.181  0.00  0.00    +0.000 A 
ATOM     15  C   UNL     1       0.922   2.651  18.942  0.00  0.00    +0.000 A 
ATOM     16  N   UNL     1       1.539   3.177  17.863  0.00  0.00    +0.000 NA
ATOM     17  C   UNL     1       2.136   4.380  18.030  0.00  0.00    +0.000 A 
ENDBRANCH  11  12
ENDBRANCH   9  11
ENDBRANCH   1   8
BRANCH   5  18
ATOM     18  S   UNL     1      -0.997  12.849  21.293  0.00  0.00    +0.000 S 
ATOM     19  O   UNL     1      -1.582  13.325  22.522  0.00  0.00    +0.000 OA
ATOM     20  O   UNL     1       0.161  13.513  20.720  0.00  0.00    +0.000 OA
BRANCH  18  21
ATOM     21  N   UNL     1      -2.184  12.782  20.134  0.00  0.00    +0.000 NA
ATOM     22  C   UNL     1      -1.922  12.554  18.701  0.00  0.00    +0.000 C 
ATOM     23  C   UNL     1      -2.907  11.484  18.177  0.00  0.00    +0.000 C 
ATOM     24  C   UNL     1      -4.334  11.659  18.676  0.00  0.00    +0.000 A 
ATOM     25  C   UNL     1      -5.408  11.010  18.054  0.00  0.00    +0.000 A 
ATOM     26  C   UNL     1      -6.665  11.000  18.663  0.00  0.00    +0.000 A 
ATOM     27  C   UNL     1      -6.832  11.552  19.933  0.00  0.00    +0.000 A 
ATOM     28  C   UNL     1      -5.781  12.238  20.540  0.00  0.00    +0.000 A 
ATOM     29  C   UNL     1      -4.561  12.373  19.873  0.00  0.00    +0.000 A 
ATOM     30  C   UNL     1      -3.511  13.355  20.335  0.00  0.00    +0.000 C 
ENDBRANCH  18  21
ENDBRANCH   5  18
TORSDOF 5
ENDMDL
MODEL 6
REMARK VINA RESULT:      -8.2      2.219      3.153
REMARK  Name = 
REMARK  5 active torsions:
REMARK  status: ('A' for Active; 'I' for Inactive)
REMARK    1  A    between atoms: C_2  and  C_11
REMARK    2  A    between atoms: N_3  and  C_4
REMARK    3  A    between atoms: C_4  and  C_5
REMARK    4  A    between atoms: C_15  and  S_16
REMARK    5  A    between atoms: S_16  and  N_19
REMARK                            x       y       z     vdW  Elec       q    Type
REMARK                         _______ _______ _______ _____ _____    ______ ____
ROOT
ATOM      1  C   UNL     1       2.084   6.181  19.826  0.00  0.00    +0.000 A 
ATOM      2  C   UNL     1       1.060   5.574  20.571  0.00  0.00    +0.000 A 
ATOM      3  C   UNL     1       1.081   4.197  20.803  0.00  0.00    +0.000 A 
ATOM      4  C   UNL     1       2.133   3.422  20.308  0.00  0.00    +0.000 A 
ATOM      5  C   UNL     1       3.184   4.030  19.610  0.00  0.00    +0.000 A 
ATOM      6  C   UNL     1       3.148   5.407  19.348  0.00  0.00    +0.000 A 
ENDROOT
BRANCH   1   8
ATOM      7  O   UNL     1       2.506   8.120  18.574  0.00  0.00    +0.000 OA
ATOM      8  C   UNL     1       1.979   7.643  19.574  0.00  0.00    +0.000 C 
ATOM      9  N   UNL     1       1.316   8.394  20.517  0.00  0.00    +0.000 N 
ATOM     10  H   UNL     1       0.984   7.963  21.367  0.00  0.00    +0.000 HD
BRANCH   9  11
ATOM     11  C   UNL     1       1.292   9.841  20.444  0.00  0.00    +0.000 C 
BRANCH  11  12
ATOM     12  C   UNL     1       0.241  10.419  21.342  0.00  0.00    +0.000 A 
ATOM     13  C   UNL     1      -0.567  11.488  20.945  0.00  0.00    +0.000 A 
ATOM     14  C   UNL     1      -1.532  11.985  21.819  0.00  0.00    +0.000 A 
ATOM     15  C   UNL     1      -1.653  11.396  23.067  0.00  0.00    +0.000 A 
ATOM     16  N   UNL     1      -0.886  10.369  23.489  0.00  0.00    +0.000 NA
ATOM     17  C   UNL     1       0.042   9.906  22.621  0.00  0.00    +0.000 A 
ENDBRANCH  11  12
ENDBRANCH   9  11
ENDBRANCH   1   8
BRANCH   5  18
ATOM     18  S   UNL     1       4.411   3.022  18.794  0.00  0.00    +0.000 S 
ATOM     19  O   UNL     1       5.239   2.445  19.824  0.00  0.00    +0.000 OA
ATOM     20  O   UNL     1       3.670   2.173  17.878  0.00  0.00    +0.000 OA
BRANCH  18  21
ATOM     21  N   UNL     1       5.337   4.070  17.898  0.00  0.00    +0.000 NA
ATOM     22  C   UNL     1       4.984   4.524  16.540  0.00  0.00    +0.000 C 
ATOM     23  C   UNL     1       5.171   6.057  16.462  0.00  0.00    +0.000 C 
ATOM     24  C   UNL     1       6.442   6.560  17.130  0.00  0.00    +0.000 A 
ATOM     25  C   UNL     1       6.944   7.841  16.871  0.00  0.00    +0.000 A 
ATOM     26  C   UNL     1       7.970   8.363  17.661  0.00  0.00    +0.000 A 
ATOM     27  C   UNL     1       8.432   7.651  18.769  0.00  0.00    +0.000 A 
ATOM     28  C   UNL     1       7.970   6.358  19.009  0.00  0.00    +0.000 A 
ATOM     29  C   UNL     1       7.045   5.776  18.138  0.00  0.00    +0.000 A 
ATOM     30  C   UNL     1       6.754   4.294  18.169  0.00  0.00    +0.000 C 
ENDBRANCH  18  21
ENDBRANCH   5  18
TORSDOF 5
ENDMDL
MODEL 7
REMARK VINA RESULT:      -8.1      3.949      9.821
REMARK  Name = 
REMARK  5 active torsions:
REMARK  status: ('A' for Active; 'I' for Inactive)
REMARK    1  A    between atoms: C_2  and  C_11
REMARK    2  A    between atoms: N_3  and  C_4
REMARK    3  A    between atoms: C_4  and  C_5
REMARK    4  A    between atoms: C_15  and  S_16
REMARK    5  A    between atoms: S_16  and  N_19
REMARK                            x       y       z     vdW  Elec       q    Type
REMARK                         _______ _______ _______ _____ _____    ______ ____
ROOT
ATOM      1  C   UNL     1       6.378   5.235  16.434  0.00  0.00    +0.000 A 
ATOM      2  C   UNL     1       7.262   5.956  17.252  0.00  0.00    +0.000 A 
ATOM      3  C   UNL     1       7.240   5.781  18.638  0.00  0.00    +0.000 A 
ATOM      4  C   UNL     1       6.345   4.873  19.211  0.00  0.00    +0.000 A 
ATOM      5  C   UNL     1       5.498   4.113  18.396  0.00  0.00    +0.000 A 
ATOM      6  C   UNL     1       5.497   4.311  17.008  0.00  0.00    +0.000 A 
ENDROOT
BRANCH   1   8
ATOM      7  O   UNL     1       5.547   6.195  14.461  0.00  0.00    +0.000 OA
ATOM      8  C   UNL     1       6.420   5.501  14.971  0.00  0.00    +0.000 C 
ATOM      9  N   UNL     1       7.436   4.908  14.257  0.00  0.00    +0.000 N 
ATOM     10  H   UNL     1       8.072   4.270  14.713  0.00  0.00    +0.000 HD
BRANCH   9  11
ATOM     11  C   UNL     1       7.478   4.977  12.811  0.00  0.00    +0.000 C 
BRANCH  11  12
ATOM     12  C   UNL     1       6.876   3.757  12.184  0.00  0.00    +0.000 A 
ATOM     13  C   UNL     1       5.494   3.549  12.144  0.00  0.00    +0.000 A 
ATOM     14  C   UNL     1       4.988   2.397  11.547  0.00  0.00    +0.000 A 
ATOM     15  C   UNL     1       5.883   1.486  11.012  0.00  0.00    +0.000 A 
ATOM     16  N   UNL     1       7.223   1.647  11.039  0.00  0.00    +0.000 NA
ATOM     17  C   UNL     1       7.688   2.774  11.625  0.00  0.00    +0.000 A 
ENDBRANCH  11  12
ENDBRANCH   9  11
ENDBRANCH   1   8
BRANCH   5  18
ATOM     18  S   UNL     1       4.212   3.117  19.132  0.00  0.00    +0.000 S 
ATOM     19  O   UNL     1       3.770   2.184  18.125  0.00  0.00    +0.000 OA
ATOM     20  O   UNL     1       4.759   2.643  20.391  0.00  0.00    +0.000 OA
BRANCH  18  21
ATOM     21  N   UNL     1       2.964   4.162  19.468  0.00  0.00    +0.000 NA
ATOM     22  C   UNL     1       2.089   4.043  20.649  0.00  0.00    +0.000 C 
ATOM     23  C   UNL     1       1.949   5.435  21.308  0.00  0.00    +0.000 C 
ATOM     24  C   UNL     1       1.747   6.571  20.317  0.00  0.00    +0.000 A 
ATOM     25  C   UNL     1       1.270   7.821  20.729  0.00  0.00    +0.000 A 
ATOM     26  C   UNL     1       1.312   8.909  19.854  0.00  0.00    +0.000 A 
ATOM     27  C   UNL     1       1.916   8.778  18.604  0.00  0.00    +0.000 A 
ATOM     28  C   UNL     1       2.355   7.528  18.168  0.00  0.00    +0.000 A 
ATOM     29  C   UNL     1       2.186   6.408  18.985  0.00  0.00    +0.000 A 
ATOM     30  C   UNL     1       2.350   5.005  18.448  0.00  0.00    +0.000 C 
ENDBRANCH  18  21
ENDBRANCH   5  18
TORSDOF 5
ENDMDL
MODEL 8
REMARK VINA RESULT:      -8.0      1.223      1.482
REMARK  Name = 
REMARK  5 active torsions:
REMARK  status: ('A' for Active; 'I' for Inactive)
REMARK    1  A    between atoms: C_2  and  C_11
REMARK    2  A    between atoms: N_3  and  C_4
REMARK    3  A    between atoms: C_4  and  C_5
REMARK    4  A    between atoms: C_15  and  S_16
REMARK    5  A    between atoms: S_16  and  N_19
REMARK                            x       y       z     vdW  Elec       q    Type
REMARK                         _______ _______ _______ _____ _____    ______ ____
ROOT
ATOM      1  C   UNL     1       1.379   8.717  20.326  0.00  0.00    +0.000 A 
ATOM      2  C   UNL     1       1.703   9.138  19.027  0.00  0.00    +0.000 A 
ATOM      3  C   UNL     1       2.110   8.209  18.066  0.00  0.00    +0.000 A 
ATOM      4  C   UNL     1       2.180   6.852  18.396  0.00  0.00    +0.000 A 
ATOM      5  C   UNL     1       1.808   6.421  19.675  0.00  0.00    +0.000 A 
ATOM      6  C   UNL     1       1.430   7.356  20.649  0.00  0.00    +0.000 A 
ENDROOT
BRANCH   1   8
ATOM      7  O   UNL     1       1.123   9.530  22.512  0.00  0.00    +0.000 OA
ATOM      8  C   UNL     1       0.999   9.761  21.314  0.00  0.00    +0.000 C 
ATOM      9  N   UNL     1       0.482  10.936  20.815  0.00  0.00    +0.000 N 
ATOM     10  H   UNL     1       0.314  11.035  19.825  0.00  0.00    +0.000 HD
BRANCH   9  11
ATOM     11  C   UNL     1      -0.060  11.952  21.694  0.00  0.00    +0.000 C 
BRANCH  11  12
ATOM     12  C   UNL     1      -1.506  12.215  21.403  0.00  0.00    +0.000 A 
ATOM     13  C   UNL     1      -2.431  12.475  22.418  0.00  0.00    +0.000 A 
ATOM     14  C   UNL     1      -3.764  12.716  22.091  0.00  0.00    +0.000 A 
ATOM     15  C   UNL     1      -4.128  12.685  20.755  0.00  0.00    +0.000 A 
ATOM     16  N   UNL     1      -3.267  12.428  19.749  0.00  0.00    +0.000 NA
ATOM     17  C   UNL     1      -1.979  12.198  20.094  0.00  0.00    +0.000 A 
ENDBRANCH  11  12
ENDBRANCH   9  11
ENDBRANCH   1   8
BRANCH   5  18
ATOM     18  S   UNL     1       2.100   4.728  20.163  0.00  0.00    +0.000 S 
ATOM     19  O   UNL     1       2.587   4.757  21.521  0.00  0.00    +0.000 OA
ATOM     20  O   UNL     1       0.883   4.011  19.829  0.00  0.00    +0.000 OA
BRANCH  18  21
ATOM     21  N   UNL     1       3.317   4.174  19.178  0.00  0.00    +0.000 NA
ATOM     22  C   UNL     1       3.181   3.016  18.277  0.00  0.00    +0.000 C 
ATOM     23  C   UNL     1       3.749   3.392  16.889  0.00  0.00    +0.000 C 
ATOM     24  C   UNL     1       5.056   4.169  16.945  0.00  0.00    +0.000 A 
ATOM     25  C   UNL     1       5.876   4.296  15.818  0.00  0.00    +0.000 A 
ATOM     26  C   UNL     1       6.944   5.196  15.829  0.00  0.00    +0.000 A 
ATOM     27  C   UNL     1       7.137   6.040  16.922  0.00  0.00    +0.000 A 
ATOM     28  C   UNL     1       6.353   5.891  18.065  0.00  0.00    +0.000 A 
ATOM     29  C   UNL     1       5.375   4.894  18.113  0.00  0.00    +0.000 A 
ATOM     30  C   UNL     1       4.723   4.487  19.414  0.00  0.00    +0.000 C 
ENDBRANCH  18  21
ENDBRANCH   5  18
TORSDOF 5
ENDMDL
MODEL 9
REMARK VINA RESULT:      -8.0      3.830      9.784
REMARK  Name = 
REMARK  5 active torsions:
REMARK  status: ('A' for Active; 'I' for Inactive)
REMARK    1  A    between atoms: C_2  and  C_11
REMARK    2  A    between atoms: N_3  and  C_4
REMARK    3  A    between atoms: C_4  and  C_5
REMARK    4  A    between atoms: C_15  and  S_16
REMARK    5  A    between atoms: S_16  and  N_19
REMARK                            x       y       z     vdW  Elec       q    Type
REMARK                         _______ _______ _______ _____ _____    ______ ____
ROOT
ATOM      1  C   UNL     1       1.437   8.777  19.239  0.00  0.00    +0.000 A 
ATOM      2  C   UNL     1       1.457   8.359  20.579  0.00  0.00    +0.000 A 
ATOM      3  C   UNL     1       0.649   8.992  21.526  0.00  0.00    +0.000 A 
ATOM      4  C   UNL     1      -0.197  10.034  21.135  0.00  0.00    +0.000 A 
ATOM      5  C   UNL     1      -0.260  10.419  19.791  0.00  0.00    +0.000 A 
ATOM      6  C   UNL     1       0.575   9.807  18.845  0.00  0.00    +0.000 A 
ENDROOT
BRANCH   1   8
ATOM      7  O   UNL     1       2.633   8.637  17.225  0.00  0.00    +0.000 OA
ATOM      8  C   UNL     1       2.356   8.094  18.289  0.00  0.00    +0.000 C 
ATOM      9  N   UNL     1       2.819   6.850  18.653  0.00  0.00    +0.000 N 
ATOM     10  H   UNL     1       2.484   6.411  19.498  0.00  0.00    +0.000 HD
BRANCH   9  11
ATOM     11  C   UNL     1       3.593   6.038  17.736  0.00  0.00    +0.000 C 
BRANCH  11  12
ATOM     12  C   UNL     1       5.046   6.032  18.100  0.00  0.00    +0.000 A 
ATOM     13  C   UNL     1       6.006   6.694  17.329  0.00  0.00    +0.000 A 
ATOM     14  C   UNL     1       7.344   6.657  17.715  0.00  0.00    +0.000 A 
ATOM     15  C   UNL     1       7.679   5.954  18.859  0.00  0.00    +0.000 A 
ATOM     16  N   UNL     1       6.783   5.294  19.624  0.00  0.00    +0.000 NA
ATOM     17  C   UNL     1       5.490   5.346  19.227  0.00  0.00    +0.000 A 
ENDBRANCH  11  12
ENDBRANCH   9  11
ENDBRANCH   1   8
BRANCH   5  18
ATOM     18  S   UNL     1      -1.170  11.884  19.327  0.00  0.00    +0.000 S 
ATOM     19  O   UNL     1      -1.488  11.759  17.926  0.00  0.00    +0.000 OA
ATOM     20  O   UNL     1      -2.225  12.016  20.316  0.00  0.00    +0.000 OA
BRANCH  18  21
ATOM     21  N   UNL     1      -0.116  13.154  19.518  0.00  0.00    +0.000 NA
ATOM     22  C   UNL     1       1.309  12.995  19.857  0.00  0.00    +0.000 C 
ATOM     23  C   UNL     1       2.149  13.896  18.922  0.00  0.00    +0.000 C 
ATOM     24  C   UNL     1       1.563  15.284  18.711  0.00  0.00    +0.000 A 
ATOM     25  C   UNL     1       2.335  16.328  18.187  0.00  0.00    +0.000 A 
ATOM     26  C   UNL     1       1.722  17.518  17.788  0.00  0.00    +0.000 A 
ATOM     27  C   UNL     1       0.332  17.634  17.819  0.00  0.00    +0.000 A 
ATOM     28  C   UNL     1      -0.441  16.618  18.379  0.00  0.00    +0.000 A 
ATOM     29  C   UNL     1       0.179  15.483  18.909  0.00  0.00    +0.000 A 
ATOM     30  C   UNL     1      -0.568  14.514  19.795  0.00  0.00    +0.000 C 
ENDBRANCH  18  21
ENDBRANCH   5  18
TORSDOF 5
ENDMDL
