MODEL 1
REMARK VINA RESULT:      -9.0      0.000      0.000
REMARK  Name = 
REMARK  6 active torsions:
REMARK  status: ('A' for Active; 'I' for Inactive)
REMARK    1  A    between atoms: C_1  and  C_2
REMARK    2  A    between atoms: N_6  and  C_7
REMARK    3  A    between atoms: C_11  and  N_12
REMARK    4  A    between atoms: C_13  and  C_15
REMARK    5  A    between atoms: C_19  and  N_20
REMARK    6  A    between atoms: C_21  and  C_23
REMARK                            x       y       z     vdW  Elec       q    Type
REMARK                         _______ _______ _______ _____ _____    ______ ____
ROOT
ATOM      1  N   UNL     1       2.200   7.976  18.247  0.00  0.00    +0.000 N 
ATOM      2  C   UNL     1       1.664   8.523  19.413  0.00  0.00    +0.000 C 
ATOM      3  O   UNL     1       1.549   7.950  20.493  0.00  0.00    +0.000 OA
ATOM      4  H   UNL     1       2.326   8.589  17.452  0.00  0.00    +0.000 HD
ENDROOT
BRANCH   1   9
ATOM      5  C   UNL     1       4.581   5.132  17.745  0.00  0.00    +0.000 A 
ATOM      6  C   UNL     1       3.713   4.037  17.806  0.00  0.00    +0.000 A 
ATOM      7  C   UNL     1       2.352   4.241  17.984  0.00  0.00    +0.000 A 
ATOM      8  C   UNL     1       1.842   5.532  18.108  0.00  0.00    +0.000 A 
ATOM      9  C   UNL     1       2.680   6.648  18.080  0.00  0.00    +0.000 A 
ATOM     10  C   UNL     1       4.061   6.439  17.894  0.00  0.00    +0.000 A 
BRANCH   5  16
ATOM     11  C   UNL     1       6.420   4.786  15.093  0.00  0.00    +0.000 C 
ATOM     12  C   UNL     1       6.775   4.611  16.521  0.00  0.00    +0.000 A 
ATOM     13  N   UNL     1       7.971   4.280  16.961  0.00  0.00    +0.000 NA
ATOM     14  N   UNL     1       7.958   4.484  18.311  0.00  0.00    +0.000 NA
ATOM     15  N   UNL     1       6.785   4.945  18.709  0.00  0.00    +0.000 NA
ATOM     16  N   UNL     1       5.979   4.922  17.622  0.00  0.00    +0.000 N 
ENDBRANCH   5  16
ENDBRANCH   1   9
BRANCH   2  17
ATOM     17  C   UNL     1       1.194   9.943  19.355  0.00  0.00    +0.000 A 
ATOM     18  C   UNL     1       1.819  10.892  18.542  0.00  0.00    +0.000 A 
ATOM     19  C   UNL     1       1.317  12.190  18.488  0.00  0.00    +0.000 A 
ATOM     20  C   UNL     1       0.170  12.534  19.208  0.00  0.00    +0.000 A 
ATOM     21  C   UNL     1      -0.512  11.591  19.981  0.00  0.00    +0.000 A 
ATOM     22  C   UNL     1       0.030  10.301  20.076  0.00  0.00    +0.000 A 
BRANCH  21  23
ATOM     23  N   UNL     1      -1.733  11.880  20.652  0.00  0.00    +0.000 N 
ATOM     24  C   UNL     1      -1.835  12.191  22.005  0.00  0.00    +0.000 C 
ATOM     25  O   UNL     1      -0.893  12.295  22.786  0.00  0.00    +0.000 OA
ATOM     26  H   UNL     1      -2.543  12.038  20.065  0.00  0.00    +0.000 HD
BRANCH  24  27
ATOM     27  C   UNL     1      -3.181  12.482  22.556  0.00  0.00    +0.000 A 
ATOM     28  C   UNL     1      -4.262  12.941  21.804  0.00  0.00    +0.000 A 
ATOM     29  C   UNL     1      -5.511  13.074  22.421  0.00  0.00    +0.000 A 
ATOM     30  C   UNL     1      -5.633  12.754  23.767  0.00  0.00    +0.000 A 
ATOM     31  N   UNL     1      -4.607  12.322  24.523  0.00  0.00    +0.000 NA
ATOM     32  C   UNL     1      -3.409  12.185  23.899  0.00  0.00    +0.000 A 
ENDBRANCH  24  27
ENDBRANCH  21  23
ENDBRANCH   2  17
TORSDOF 5
ENDMDL
MODEL 2
REMARK VINA RESULT:      -9.0      2.817      4.610
REMARK  Name = 
REMARK  6 active torsions:
REMARK  status: ('A' for Active; 'I' for Inactive)
REMARK    1  A    between atoms: C_1  and  C_2
REMARK    2  A    between atoms: N_6  and  C_7
REMARK    3  A    between atoms: C_11  and  N_12
REMARK    4  A    between atoms: C_13  and  C_15
REMARK    5  A    between atoms: C_19  and  N_20
REMARK    6  A    between atoms: C_21  and  C_23
REMARK                            x       y       z     vdW  Elec       q    Type
REMARK                         _______ _______ _______ _____ _____    ______ ____
ROOT
ATOM      1  N   UNL     1       2.026   7.304  19.017  0.00  0.00    +0.000 N 
ATOM      2  C   UNL     1       1.556   7.391  20.327  0.00  0.00    +0.000 C 
ATOM      3  O   UNL     1       1.575   6.491  21.163  0.00  0.00    +0.000 OA
ATOM      4  H   UNL     1       2.039   8.150  18.462  0.00  0.00    +0.000 HD
ENDROOT
BRANCH   1   9
ATOM      5  C   UNL     1       4.575   4.924  17.656  0.00  0.00    +0.000 A 
ATOM      6  C   UNL     1       3.761   3.872  17.225  0.00  0.00    +0.000 A 
ATOM      7  C   UNL     1       2.382   3.962  17.358  0.00  0.00    +0.000 A 
ATOM      8  C   UNL     1       1.801   5.095  17.926  0.00  0.00    +0.000 A 
ATOM      9  C   UNL     1       2.583   6.153  18.394  0.00  0.00    +0.000 A 
ATOM     10  C   UNL     1       3.981   6.061  18.252  0.00  0.00    +0.000 A 
BRANCH   5  16
ATOM     11  C   UNL     1       6.517   4.802  15.058  0.00  0.00    +0.000 C 
ATOM     12  C   UNL     1       6.836   4.593  16.489  0.00  0.00    +0.000 A 
ATOM     13  N   UNL     1       8.036   4.319  16.957  0.00  0.00    +0.000 NA
ATOM     14  N   UNL     1       7.966   4.467  18.313  0.00  0.00    +0.000 NA
ATOM     15  N   UNL     1       6.754   4.837  18.688  0.00  0.00    +0.000 NA
ATOM     16  N   UNL     1       5.987   4.807  17.574  0.00  0.00    +0.000 N 
ENDBRANCH   5  16
ENDBRANCH   1   9
BRANCH   2  17
ATOM     17  C   UNL     1       0.985   8.702  20.769  0.00  0.00    +0.000 A 
ATOM     18  C   UNL     1       0.278   8.831  21.967  0.00  0.00    +0.000 A 
ATOM     19  C   UNL     1      -0.195  10.082  22.355  0.00  0.00    +0.000 A 
ATOM     20  C   UNL     1       0.070  11.211  21.576  0.00  0.00    +0.000 A 
ATOM     21  C   UNL     1       0.827  11.123  20.404  0.00  0.00    +0.000 A 
ATOM     22  C   UNL     1       1.253   9.853  19.989  0.00  0.00    +0.000 A 
BRANCH  21  23
ATOM     23  N   UNL     1       1.196  12.263  19.637  0.00  0.00    +0.000 N 
ATOM     24  C   UNL     1       2.104  13.232  20.052  0.00  0.00    +0.000 C 
ATOM     25  O   UNL     1       2.732  13.216  21.107  0.00  0.00    +0.000 OA
ATOM     26  H   UNL     1       0.909  12.264  18.665  0.00  0.00    +0.000 HD
BRANCH  24  27
ATOM     27  C   UNL     1       2.395  14.358  19.131  0.00  0.00    +0.000 A 
ATOM     28  C   UNL     1       1.578  15.475  18.963  0.00  0.00    +0.000 A 
ATOM     29  C   UNL     1       2.018  16.521  18.143  0.00  0.00    +0.000 A 
ATOM     30  C   UNL     1       3.251  16.410  17.515  0.00  0.00    +0.000 A 
ATOM     31  N   UNL     1       4.057  15.339  17.646  0.00  0.00    +0.000 NA
ATOM     32  C   UNL     1       3.617  14.345  18.458  0.00  0.00    +0.000 A 
ENDBRANCH  24  27
ENDBRANCH  21  23
ENDBRANCH   2  17
TORSDOF 5
ENDMDL
MODEL 3
REMARK VINA RESULT:      -8.8      3.006      4.410
REMARK  Name = 
REMARK  6 active torsions:
REMARK  status: ('A' for Active; 'I' for Inactive)
REMARK    1  A    between atoms: C_1  and  C_2
REMARK    2  A    between atoms: N_6  and  C_7
REMARK    3  A    between atoms: C_11  and  N_12
REMARK    4  A    between atoms: C_13  and  C_15
REMARK    5  A    between atoms: C_19  and  N_20
REMARK    6  A    between atoms: C_21  and  C_23
REMARK                            x       y       z     vdW  Elec       q    Type
REMARK                         _______ _______ _______ _____ _____    ______ ____
ROOT
ATOM      1  N   UNL     1       2.053   7.619  19.049  0.00  0.00    +0.000 N 
ATOM      2  C   UNL     1       1.764   8.848  18.457  0.00  0.00    +0.000 C 
ATOM      3  O   UNL     1       1.954   9.146  17.280  0.00  0.00    +0.000 OA
ATOM      4  H   UNL     1       1.757   7.474  20.006  0.00  0.00    +0.000 HD
ENDROOT
BRANCH   1   9
ATOM      5  C   UNL     1       4.486   5.579  17.067  0.00  0.00    +0.000 A 
ATOM      6  C   UNL     1       3.928   4.302  17.184  0.00  0.00    +0.000 A 
ATOM      7  C   UNL     1       2.746   4.124  17.888  0.00  0.00    +0.000 A 
ATOM      8  C   UNL     1       2.110   5.211  18.486  0.00  0.00    +0.000 A 
ATOM      9  C   UNL     1       2.651   6.496  18.415  0.00  0.00    +0.000 A 
ATOM     10  C   UNL     1       3.848   6.675  17.695  0.00  0.00    +0.000 A 
BRANCH   5  16
ATOM     11  C   UNL     1       5.558   4.301  14.283  0.00  0.00    +0.000 C 
ATOM     12  C   UNL     1       6.280   5.105  15.295  0.00  0.00    +0.000 A 
ATOM     13  N   UNL     1       7.546   5.457  15.208  0.00  0.00    +0.000 NA
ATOM     14  N   UNL     1       7.755   6.397  16.178  0.00  0.00    +0.000 NA
ATOM     15  N   UNL     1       6.643   6.639  16.849  0.00  0.00    +0.000 NA
ATOM     16  N   UNL     1       5.725   5.753  16.397  0.00  0.00    +0.000 N 
ENDBRANCH   5  16
ENDBRANCH   1   9
BRANCH   2  17
ATOM     17  C   UNL     1       1.153   9.904  19.324  0.00  0.00    +0.000 A 
ATOM     18  C   UNL     1       0.884   9.681  20.677  0.00  0.00    +0.000 A 
ATOM     19  C   UNL     1       0.357  10.710  21.453  0.00  0.00    +0.000 A 
ATOM     20  C   UNL     1       0.137  11.973  20.897  0.00  0.00    +0.000 A 
ATOM     21  C   UNL     1       0.455  12.244  19.563  0.00  0.00    +0.000 A 
ATOM     22  C   UNL     1       0.933  11.189  18.773  0.00  0.00    +0.000 A 
BRANCH  21  23
ATOM     23  N   UNL     1       0.334  13.540  18.990  0.00  0.00    +0.000 N 
ATOM     24  C   UNL     1       1.104  14.640  19.357  0.00  0.00    +0.000 C 
ATOM     25  O   UNL     1       2.009  14.631  20.187  0.00  0.00    +0.000 OA
ATOM     26  H   UNL     1      -0.225  13.610  18.147  0.00  0.00    +0.000 HD
BRANCH  24  27
ATOM     27  C   UNL     1       0.868  15.925  18.655  0.00  0.00    +0.000 A 
ATOM     28  C   UNL     1      -0.387  16.504  18.466  0.00  0.00    +0.000 A 
ATOM     29  C   UNL     1      -0.467  17.774  17.883  0.00  0.00    +0.000 A 
ATOM     30  C   UNL     1       0.704  18.414  17.502  0.00  0.00    +0.000 A 
ATOM     31  N   UNL     1       1.929  17.877  17.659  0.00  0.00    +0.000 NA
ATOM     32  C   UNL     1       1.983  16.652  18.241  0.00  0.00    +0.000 A 
ENDBRANCH  24  27
ENDBRANCH  21  23
ENDBRANCH   2  17
TORSDOF 5
ENDMDL
MODEL 4
REMARK VINA RESULT:      -8.8      2.437      2.684
REMARK  Name = 
REMARK  6 active torsions:
REMARK  status: ('A' for Active; 'I' for Inactive)
REMARK    1  A    between atoms: C_1  and  C_2
REMARK    2  A    between atoms: N_6  and  C_7
REMARK    3  A    between atoms: C_11  and  N_12
REMARK    4  A    between atoms: C_13  and  C_15
REMARK    5  A    between atoms: C_19  and  N_20
REMARK    6  A    between atoms: C_21  and  C_23
REMARK                            x       y       z     vdW  Elec       q    Type
REMARK                         _______ _______ _______ _____ _____    ______ ____
ROOT
ATOM      1  N   UNL     1       2.080   7.989  19.423  0.00  0.00    +0.000 N 
ATOM      2  C   UNL     1       1.920   8.830  18.321  0.00  0.00    +0.000 C 
ATOM      3  O   UNL     1       2.222   8.565  17.160  0.00  0.00    +0.000 OA
ATOM      4  H   UNL     1       1.700   8.294  20.309  0.00  0.00    +0.000 HD
ENDROOT
BRANCH   1   9
ATOM      5  C   UNL     1       4.513   5.217  18.780  0.00  0.00    +0.000 A 
ATOM      6  C   UNL     1       3.878   4.146  19.417  0.00  0.00    +0.000 A 
ATOM      7  C   UNL     1       2.647   4.334  20.029  0.00  0.00    +0.000 A 
ATOM      8  C   UNL     1       2.037   5.588  20.017  0.00  0.00    +0.000 A 
ATOM      9  C   UNL     1       2.653   6.687  19.416  0.00  0.00    +0.000 A 
ATOM     10  C   UNL     1       3.900   6.492  18.791  0.00  0.00    +0.000 A 
BRANCH   5  16
ATOM     11  C   UNL     1       5.450   5.324  15.674  0.00  0.00    +0.000 C 
ATOM     12  C   UNL     1       6.211   4.920  16.879  0.00  0.00    +0.000 A 
ATOM     13  N   UNL     1       7.468   4.529  16.876  0.00  0.00    +0.000 NA
ATOM     14  N   UNL     1       7.871   4.508  18.181  0.00  0.00    +0.000 NA
ATOM     15  N   UNL     1       6.894   4.889  18.985  0.00  0.00    +0.000 NA
ATOM     16  N   UNL     1       5.798   5.040  18.206  0.00  0.00    +0.000 N 
ENDBRANCH   5  16
ENDBRANCH   1   9
BRANCH   2  17
ATOM     17  C   UNL     1       1.313  10.176  18.564  0.00  0.00    +0.000 A 
ATOM     18  C   UNL     1       2.050  11.353  18.418  0.00  0.00    +0.000 A 
ATOM     19  C   UNL     1       1.428  12.584  18.612  0.00  0.00    +0.000 A 
ATOM     20  C   UNL     1       0.064  12.646  18.909  0.00  0.00    +0.000 A 
ATOM     21  C   UNL     1      -0.713  11.489  19.001  0.00  0.00    +0.000 A 
ATOM     22  C   UNL     1      -0.069  10.251  18.859  0.00  0.00    +0.000 A 
BRANCH  21  23
ATOM     23  N   UNL     1      -2.121  11.518  19.208  0.00  0.00    +0.000 N 
ATOM     24  C   UNL     1      -3.065  11.599  18.188  0.00  0.00    +0.000 C 
ATOM     25  O   UNL     1      -2.818  11.616  16.986  0.00  0.00    +0.000 OA
ATOM     26  H   UNL     1      -2.444  11.290  20.140  0.00  0.00    +0.000 HD
BRANCH  24  27
ATOM     27  C   UNL     1      -4.501  11.607  18.565  0.00  0.00    +0.000 A 
ATOM     28  C   UNL     1      -5.475  10.795  17.985  0.00  0.00    +0.000 A 
ATOM     29  C   UNL     1      -6.775  10.820  18.504  0.00  0.00    +0.000 A 
ATOM     30  C   UNL     1      -7.056  11.659  19.573  0.00  0.00    +0.000 A 
ATOM     31  N   UNL     1      -6.142  12.465  20.145  0.00  0.00    +0.000 NA
ATOM     32  C   UNL     1      -4.885  12.412  19.636  0.00  0.00    +0.000 A 
ENDBRANCH  24  27
ENDBRANCH  21  23
ENDBRANCH   2  17
TORSDOF 5
ENDMDL
MODEL 5
REMARK VINA RESULT:      -8.8      2.789      3.843
REMARK  Name = 
REMARK  6 active torsions:
REMARK  status: ('A' for Active; 'I' for Inactive)
REMARK    1  A    between atoms: C_1  and  C_2
REMARK    2  A    between atoms: N_6  and  C_7
REMARK    3  A    between atoms: C_11  and  N_12
REMARK    4  A    between atoms: C_13  and  C_15
REMARK    5  A    between atoms: C_19  and  N_20
REMARK    6  A    between atoms: C_21  and  C_23
REMARK                            x       y       z     vdW  Elec       q    Type
REMARK                         _______ _______ _______ _____ _____    ______ ____
ROOT
ATOM      1  N   UNL     1       1.935   6.561  19.583  0.00  0.00    +0.000 N 
ATOM      2  C   UNL     1       1.830   7.903  19.218  0.00  0.00    +0.000 C 
ATOM      3  O   UNL     1       2.209   8.396  18.158  0.00  0.00    +0.000 OA
ATOM      4  H   UNL     1       1.494   6.270  20.446  0.00  0.00    +0.000 HD
ENDROOT
BRANCH   1   9
ATOM      5  C   UNL     1       4.533   4.575  17.761  0.00  0.00    +0.000 A 
ATOM      6  C   UNL     1       3.788   3.464  17.353  0.00  0.00    +0.000 A 
ATOM      7  C   UNL     1       2.435   3.387  17.655  0.00  0.00    +0.000 A 
ATOM      8  C   UNL     1       1.812   4.410  18.368  0.00  0.00    +0.000 A 
ATOM      9  C   UNL     1       2.528   5.521  18.816  0.00  0.00    +0.000 A 
ATOM     10  C   UNL     1       3.899   5.599  18.504  0.00  0.00    +0.000 A 
BRANCH   5  16
ATOM     11  C   UNL     1       6.132   4.999  14.969  0.00  0.00    +0.000 C 
ATOM     12  C   UNL     1       6.648   4.647  16.311  0.00  0.00    +0.000 A 
ATOM     13  N   UNL     1       7.918   4.451  16.599  0.00  0.00    +0.000 NA
ATOM     14  N   UNL     1       8.008   4.417  17.961  0.00  0.00    +0.000 NA
ATOM     15  N   UNL     1       6.823   4.600  18.518  0.00  0.00    +0.000 NA
ATOM     16  N   UNL     1       5.927   4.627  17.504  0.00  0.00    +0.000 N 
ENDBRANCH   5  16
ENDBRANCH   1   9
BRANCH   2  17
ATOM     17  C   UNL     1       1.186   8.835  20.196  0.00  0.00    +0.000 A 
ATOM     18  C   UNL     1       0.887   8.440  21.502  0.00  0.00    +0.000 A 
ATOM     19  C   UNL     1       0.329   9.357  22.388  0.00  0.00    +0.000 A 
ATOM     20  C   UNL     1       0.107  10.679  21.991  0.00  0.00    +0.000 A 
ATOM     21  C   UNL     1       0.453  11.119  20.711  0.00  0.00    +0.000 A 
ATOM     22  C   UNL     1       0.963  10.177  19.805  0.00  0.00    +0.000 A 
BRANCH  21  23
ATOM     23  N   UNL     1       0.329  12.476  20.302  0.00  0.00    +0.000 N 
ATOM     24  C   UNL     1       1.242  13.480  20.615  0.00  0.00    +0.000 C 
ATOM     25  O   UNL     1       2.286  13.324  21.243  0.00  0.00    +0.000 OA
ATOM     26  H   UNL     1      -0.373  12.674  19.599  0.00  0.00    +0.000 HD
BRANCH  24  27
ATOM     27  C   UNL     1       0.980  14.848  20.103  0.00  0.00    +0.000 A 
ATOM     28  C   UNL     1       1.767  15.963  20.387  0.00  0.00    +0.000 A 
ATOM     29  C   UNL     1       1.477  17.178  19.756  0.00  0.00    +0.000 A 
ATOM     30  C   UNL     1       0.408  17.237  18.872  0.00  0.00    +0.000 A 
ATOM     31  N   UNL     1      -0.379  16.182  18.587  0.00  0.00    +0.000 NA
ATOM     32  C   UNL     1      -0.069  15.011  19.200  0.00  0.00    +0.000 A 
ENDBRANCH  24  27
ENDBRANCH  21  23
ENDBRANCH   2  17
TORSDOF 5
ENDMDL
MODEL 6
REMARK VINA RESULT:      -8.7      2.820      4.154
REMARK  Name = 
REMARK  6 active torsions:
REMARK  status: ('A' for Active; 'I' for Inactive)
REMARK    1  A    between atoms: C_1  and  C_2
REMARK    2  A    between atoms: N_6  and  C_7
REMARK    3  A    between atoms: C_11  and  N_12
REMARK    4  A    between atoms: C_13  and  C_15
REMARK    5  A    between atoms: C_19  and  N_20
REMARK    6  A    between atoms: C_21  and  C_23
REMARK                            x       y       z     vdW  Elec       q    Type
REMARK                         _______ _______ _______ _____ _____    ______ ____
ROOT
ATOM      1  N   UNL     1       1.938   6.604  20.508  0.00  0.00    +0.000 N 
ATOM      2  C   UNL     1       1.714   7.808  19.839  0.00  0.00    +0.000 C 
ATOM      3  O   UNL     1       2.028   8.059  18.679  0.00  0.00    +0.000 OA
ATOM      4  H   UNL     1       1.541   6.496  21.433  0.00  0.00    +0.000 HD
ENDROOT
BRANCH   1   9
ATOM      5  C   UNL     1       4.587   4.488  18.922  0.00  0.00    +0.000 A 
ATOM      6  C   UNL     1       4.000   3.221  18.991  0.00  0.00    +0.000 A 
ATOM      7  C   UNL     1       2.730   3.074  19.531  0.00  0.00    +0.000 A 
ATOM      8  C   UNL     1       2.035   4.182  20.012  0.00  0.00    +0.000 A 
ATOM      9  C   UNL     1       2.600   5.459  19.987  0.00  0.00    +0.000 A 
ATOM     10  C   UNL     1       3.886   5.606  19.433  0.00  0.00    +0.000 A 
BRANCH   5  16
ATOM     11  C   UNL     1       5.680   4.513  15.866  0.00  0.00    +0.000 C 
ATOM     12  C   UNL     1       6.434   4.489  17.141  0.00  0.00    +0.000 A 
ATOM     13  N   UNL     1       7.747   4.485  17.235  0.00  0.00    +0.000 NA
ATOM     14  N   UNL     1       8.043   4.731  18.546  0.00  0.00    +0.000 NA
ATOM     15  N   UNL     1       6.941   4.898  19.256  0.00  0.00    +0.000 NA
ATOM     16  N   UNL     1       5.908   4.631  18.424  0.00  0.00    +0.000 N 
ENDBRANCH   5  16
ENDBRANCH   1   9
BRANCH   2  17
ATOM     17  C   UNL     1       1.014   8.895  20.594  0.00  0.00    +0.000 A 
ATOM     18  C   UNL     1       0.299   8.635  21.766  0.00  0.00    +0.000 A 
ATOM     19  C   UNL     1      -0.296   9.687  22.456  0.00  0.00    +0.000 A 
ATOM     20  C   UNL     1      -0.146  11.002  22.007  0.00  0.00    +0.000 A 
ATOM     21  C   UNL     1       0.615  11.299  20.874  0.00  0.00    +0.000 A 
ATOM     22  C   UNL     1       1.166  10.231  20.151  0.00  0.00    +0.000 A 
BRANCH  21  23
ATOM     23  N   UNL     1       0.868  12.631  20.442  0.00  0.00    +0.000 N 
ATOM     24  C   UNL     1       0.280  13.223  19.327  0.00  0.00    +0.000 C 
ATOM     25  O   UNL     1      -0.555  12.697  18.597  0.00  0.00    +0.000 OA
ATOM     26  H   UNL     1       1.369  13.228  21.089  0.00  0.00    +0.000 HD
BRANCH  24  27
ATOM     27  C   UNL     1       0.637  14.628  19.012  0.00  0.00    +0.000 A 
ATOM     28  C   UNL     1       1.924  15.070  18.712  0.00  0.00    +0.000 A 
ATOM     29  C   UNL     1       2.113  16.402  18.325  0.00  0.00    +0.000 A 
ATOM     30  C   UNL     1       1.012  17.245  18.262  0.00  0.00    +0.000 A 
ATOM     31  N   UNL     1      -0.242  16.853  18.559  0.00  0.00    +0.000 NA
ATOM     32  C   UNL     1      -0.402  15.553  18.916  0.00  0.00    +0.000 A 
ENDBRANCH  24  27
ENDBRANCH  21  23
ENDBRANCH   2  17
TORSDOF 5
ENDMDL
MODEL 7
REMARK VINA RESULT:      -8.7      3.132     10.886
REMARK  Name = 
REMARK  6 active torsions:
REMARK  status: ('A' for Active; 'I' for Inactive)
REMARK    1  A    between atoms: C_1  and  C_2
REMARK    2  A    between atoms: N_6  and  C_7
REMARK    3  A    between atoms: C_11  and  N_12
REMARK    4  A    between atoms: C_13  and  C_15
REMARK    5  A    between atoms: C_19  and  N_20
REMARK    6  A    between atoms: C_21  and  C_23
REMARK                            x       y       z     vdW  Elec       q    Type
REMARK                         _______ _______ _______ _____ _____    ______ ____
ROOT
ATOM      1  N   UNL     1       0.957   8.989  18.850  0.00  0.00    +0.000 N 
ATOM      2  C   UNL     1       1.308   8.346  20.037  0.00  0.00    +0.000 C 
ATOM      3  O   UNL     1       1.102   8.764  21.174  0.00  0.00    +0.000 OA
ATOM      4  H   UNL     1       1.097   8.489  17.982  0.00  0.00    +0.000 HD
ENDROOT
BRANCH   1   9
ATOM      5  C   UNL     1      -1.695  11.564  18.255  0.00  0.00    +0.000 A 
ATOM      6  C   UNL     1      -0.998  12.742  18.540  0.00  0.00    +0.000 A 
ATOM      7  C   UNL     1       0.342  12.686  18.898  0.00  0.00    +0.000 A 
ATOM      8  C   UNL     1       0.999  11.459  18.981  0.00  0.00    +0.000 A 
ATOM      9  C   UNL     1       0.329  10.260  18.732  0.00  0.00    +0.000 A 
ATOM     10  C   UNL     1      -1.029  10.320  18.364  0.00  0.00    +0.000 A 
BRANCH   5  16
ATOM     11  C   UNL     1      -3.253  10.841  15.501  0.00  0.00    +0.000 C 
ATOM     12  C   UNL     1      -3.765  11.469  16.741  0.00  0.00    +0.000 A 
ATOM     13  N   UNL     1      -5.012  11.843  16.933  0.00  0.00    +0.000 NA
ATOM     14  N   UNL     1      -5.135  12.118  18.265  0.00  0.00    +0.000 NA
ATOM     15  N   UNL     1      -3.995  11.909  18.899  0.00  0.00    +0.000 NA
ATOM     16  N   UNL     1      -3.079  11.616  17.946  0.00  0.00    +0.000 N 
ENDBRANCH   5  16
ENDBRANCH   1   9
BRANCH   2  17
ATOM     17  C   UNL     1       1.986   7.016  19.925  0.00  0.00    +0.000 A 
ATOM     18  C   UNL     1       1.785   6.005  20.868  0.00  0.00    +0.000 A 
ATOM     19  C   UNL     1       2.404   4.770  20.695  0.00  0.00    +0.000 A 
ATOM     20  C   UNL     1       3.188   4.525  19.564  0.00  0.00    +0.000 A 
ATOM     21  C   UNL     1       3.357   5.496  18.574  0.00  0.00    +0.000 A 
ATOM     22  C   UNL     1       2.777   6.755  18.781  0.00  0.00    +0.000 A 
BRANCH  21  23
ATOM     23  N   UNL     1       4.069   5.250  17.367  0.00  0.00    +0.000 N 
ATOM     24  C   UNL     1       5.438   5.006  17.295  0.00  0.00    +0.000 C 
ATOM     25  O   UNL     1       6.200   4.930  18.255  0.00  0.00    +0.000 OA
ATOM     26  H   UNL     1       3.510   5.071  16.541  0.00  0.00    +0.000 HD
BRANCH  24  27
ATOM     27  C   UNL     1       6.034   4.754  15.960  0.00  0.00    +0.000 A 
ATOM     28  C   UNL     1       5.468   3.938  14.982  0.00  0.00    +0.000 A 
ATOM     29  C   UNL     1       6.073   3.868  13.722  0.00  0.00    +0.000 A 
ATOM     30  C   UNL     1       7.226   4.606  13.489  0.00  0.00    +0.000 A 
ATOM     31  N   UNL     1       7.805   5.392  14.416  0.00  0.00    +0.000 NA
ATOM     32  C   UNL     1       7.191   5.456  15.624  0.00  0.00    +0.000 A 
ENDBRANCH  24  27
ENDBRANCH  21  23
ENDBRANCH   2  17
TORSDOF 5
ENDMDL
MODEL 8
REMARK VINA RESULT:      -8.7      3.096      4.526
REMARK  Name = 
REMARK  6 active torsions:
REMARK  status: ('A' for Active; 'I' for Inactive)
REMARK    1  A    between atoms: C_1  and  C_2
REMARK    2  A    between atoms: N_6  and  C_7
REMARK    3  A    between atoms: C_11  and  N_12
REMARK    4  A    between atoms: C_13  and  C_15
REMARK    5  A    between atoms: C_19  and  N_20
REMARK    6  A    between atoms: C_21  and  C_23
REMARK                            x       y       z     vdW  Elec       q    Type
REMARK                         _______ _______ _______ _____ _____    ______ ____
ROOT
ATOM      1  N   UNL     1       2.056   7.335  19.092  0.00  0.00    +0.000 N 
ATOM      2  C   UNL     1       1.758   8.568  18.511  0.00  0.00    +0.000 C 
ATOM      3  O   UNL     1       1.886   8.858  17.325  0.00  0.00    +0.000 OA
ATOM      4  H   UNL     1       1.812   7.199  20.064  0.00  0.00    +0.000 HD
ENDROOT
BRANCH   1   9
ATOM      5  C   UNL     1       4.365   5.230  17.030  0.00  0.00    +0.000 A 
ATOM      6  C   UNL     1       3.759   3.974  17.142  0.00  0.00    +0.000 A 
ATOM      7  C   UNL     1       2.585   3.833  17.868  0.00  0.00    +0.000 A 
ATOM      8  C   UNL     1       2.006   4.935  18.495  0.00  0.00    +0.000 A 
ATOM      9  C   UNL     1       2.596   6.199  18.430  0.00  0.00    +0.000 A 
ATOM     10  C   UNL     1       3.784   6.341  17.687  0.00  0.00    +0.000 A 
BRANCH   5  16
ATOM     11  C   UNL     1       7.354   5.795  18.161  0.00  0.00    +0.000 C 
ATOM     12  C   UNL     1       6.861   5.762  16.765  0.00  0.00    +0.000 A 
ATOM     13  N   UNL     1       7.610   5.957  15.701  0.00  0.00    +0.000 NA
ATOM     14  N   UNL     1       6.859   5.584  14.623  0.00  0.00    +0.000 NA
ATOM     15  N   UNL     1       5.669   5.151  15.002  0.00  0.00    +0.000 NA
ATOM     16  N   UNL     1       5.595   5.364  16.337  0.00  0.00    +0.000 N 
ENDBRANCH   5  16
ENDBRANCH   1   9
BRANCH   2  17
ATOM     17  C   UNL     1       1.218   9.639  19.408  0.00  0.00    +0.000 A 
ATOM     18  C   UNL     1       0.998   9.417  20.769  0.00  0.00    +0.000 A 
ATOM     19  C   UNL     1       0.537  10.458  21.570  0.00  0.00    +0.000 A 
ATOM     20  C   UNL     1       0.334  11.730  21.028  0.00  0.00    +0.000 A 
ATOM     21  C   UNL     1       0.604  11.997  19.684  0.00  0.00    +0.000 A 
ATOM     22  C   UNL     1       1.015  10.932  18.870  0.00  0.00    +0.000 A 
BRANCH  21  23
ATOM     23  N   UNL     1       0.500  13.300  19.120  0.00  0.00    +0.000 N 
ATOM     24  C   UNL     1       1.414  14.328  19.337  0.00  0.00    +0.000 C 
ATOM     25  O   UNL     1       2.442  14.240  20.002  0.00  0.00    +0.000 OA
ATOM     26  H   UNL     1      -0.185  13.419  18.383  0.00  0.00    +0.000 HD
BRANCH  24  27
ATOM     27  C   UNL     1       1.173  15.629  18.666  0.00  0.00    +0.000 A 
ATOM     28  C   UNL     1      -0.081  16.213  18.499  0.00  0.00    +0.000 A 
ATOM     29  C   UNL     1      -0.165  17.497  17.946  0.00  0.00    +0.000 A 
ATOM     30  C   UNL     1       1.005  18.144  17.572  0.00  0.00    +0.000 A 
ATOM     31  N   UNL     1       2.230  17.603  17.709  0.00  0.00    +0.000 NA
ATOM     32  C   UNL     1       2.287  16.364  18.262  0.00  0.00    +0.000 A 
ENDBRANCH  24  27
ENDBRANCH  21  23
ENDBRANCH   2  17
TORSDOF 5
ENDMDL
MODEL 9
REMARK VINA RESULT:      -8.6      2.970     11.230
REMARK  Name = 
REMARK  6 active torsions:
REMARK  status: ('A' for Active; 'I' for Inactive)
REMARK    1  A    between atoms: C_1  and  C_2
REMARK    2  A    between atoms: N_6  and  C_7
REMARK    3  A    between atoms: C_11  and  N_12
REMARK    4  A    between atoms: C_13  and  C_15
REMARK    5  A    between atoms: C_19  and  N_20
REMARK    6  A    between atoms: C_21  and  C_23
REMARK                            x       y       z     vdW  Elec       q    Type
REMARK                         _______ _______ _______ _____ _____    ______ ____
ROOT
ATOM      1  N   UNL     1       0.899   9.282  19.591  0.00  0.00    +0.000 N 
ATOM      2  C   UNL     1       1.713   8.993  18.496  0.00  0.00    +0.000 C 
ATOM      3  O   UNL     1       1.821   9.670  17.477  0.00  0.00    +0.000 OA
ATOM      4  H   UNL     1       0.978   8.691  20.408  0.00  0.00    +0.000 HD
ENDROOT
BRANCH   1   9
ATOM      5  C   UNL     1      -2.060  11.508  19.039  0.00  0.00    +0.000 A 
ATOM      6  C   UNL     1      -1.809  12.526  19.964  0.00  0.00    +0.000 A 
ATOM      7  C   UNL     1      -0.660  12.490  20.741  0.00  0.00    +0.000 A 
ATOM      8  C   UNL     1       0.247  11.440  20.610  0.00  0.00    +0.000 A 
ATOM      9  C   UNL     1       0.017  10.390  19.719  0.00  0.00    +0.000 A 
ATOM     10  C   UNL     1      -1.147  10.432  18.928  0.00  0.00    +0.000 A 
BRANCH   5  16
ATOM     11  C   UNL     1      -2.632  10.525  15.999  0.00  0.00    +0.000 C 
ATOM     12  C   UNL     1      -3.514  11.252  16.941  0.00  0.00    +0.000 A 
ATOM     13  N   UNL     1      -4.749  11.625  16.676  0.00  0.00    +0.000 NA
ATOM     14  N   UNL     1      -5.301  12.013  17.863  0.00  0.00    +0.000 NA
ATOM     15  N   UNL     1      -4.437  11.876  18.854  0.00  0.00    +0.000 NA
ATOM     16  N   UNL     1      -3.263  11.513  18.287  0.00  0.00    +0.000 N 
ENDBRANCH   5  16
ENDBRANCH   1   9
BRANCH   2  17
ATOM     17  C   UNL     1       2.547   7.752  18.566  0.00  0.00    +0.000 A 
ATOM     18  C   UNL     1       2.430   6.845  19.622  0.00  0.00    +0.000 A 
ATOM     19  C   UNL     1       3.195   5.682  19.619  0.00  0.00    +0.000 A 
ATOM     20  C   UNL     1       4.047   5.399  18.547  0.00  0.00    +0.000 A 
ATOM     21  C   UNL     1       4.139   6.257  17.449  0.00  0.00    +0.000 A 
ATOM     22  C   UNL     1       3.408   7.453  17.483  0.00  0.00    +0.000 A 
BRANCH  21  23
ATOM     23  N   UNL     1       4.921   5.956  16.299  0.00  0.00    +0.000 N 
ATOM     24  C   UNL     1       5.201   4.668  15.851  0.00  0.00    +0.000 C 
ATOM     25  O   UNL     1       4.783   3.630  16.357  0.00  0.00    +0.000 OA
ATOM     26  H   UNL     1       5.133   6.731  15.682  0.00  0.00    +0.000 HD
BRANCH  24  27
ATOM     27  C   UNL     1       6.023   4.517  14.625  0.00  0.00    +0.000 A 
ATOM     28  C   UNL     1       5.688   3.704  13.543  0.00  0.00    +0.000 A 
ATOM     29  C   UNL     1       6.493   3.732  12.398  0.00  0.00    +0.000 A 
ATOM     30  C   UNL     1       7.606   4.561  12.379  0.00  0.00    +0.000 A 
ATOM     31  N   UNL     1       7.964   5.347  13.412  0.00  0.00    +0.000 NA
ATOM     32  C   UNL     1       7.159   5.315  14.505  0.00  0.00    +0.000 A 
ENDBRANCH  24  27
ENDBRANCH  21  23
ENDBRANCH   2  17
TORSDOF 5
ENDMDL
