MODEL 1
REMARK VINA RESULT:      -8.7      0.000      0.000
REMARK  Name = 
REMARK  5 active torsions:
REMARK  status: ('A' for Active; 'I' for Inactive)
REMARK    1  A    between atoms: C_2  and  C_18
REMARK    2  A    between atoms: N_3  and  C_4
REMARK    3  A    between atoms: C_4  and  C_5
REMARK    4  A    between atoms: C_5  and  C_6
REMARK    5  A    between atoms: C_5  and  N_13
REMARK                            x       y       z     vdW  Elec       q    Type
REMARK                         _______ _______ _______ _____ _____    ______ ____
ROOT
ATOM      1  O   UNL     1       2.169   9.301  17.181  0.00  0.00    +0.000 OA
ATOM      2  C   UNL     1       1.865   8.940  18.313  0.00  0.00    +0.000 C 
ATOM      3  N   UNL     1       2.277   7.744  18.832  0.00  0.00    +0.000 N 
ATOM      4  H   UNL     1       1.974   7.489  19.775  0.00  0.00    +0.000 HD
ENDROOT
BRANCH   2   5
ATOM      5  C   UNL     1       0.992   9.770  19.198  0.00  0.00    +0.000 A 
ATOM      6  C   UNL     1       0.315  10.781  18.649  0.00  0.00    +0.000 A 
ATOM      7  N   UNL     1      -0.562  11.607  19.297  0.00  0.00    +0.000 NA
ATOM      8  C   UNL     1      -0.776  11.372  20.559  0.00  0.00    +0.000 A 
ATOM      9  C   UNL     1      -1.750  12.223  21.295  0.00  0.00    +0.000 A 
ATOM     10  C   UNL     1      -2.001  11.987  22.589  0.00  0.00    +0.000 A 
ATOM     11  C   UNL     1      -1.327  10.915  23.274  0.00  0.00    +0.000 A 
ATOM     12  C   UNL     1      -0.440  10.154  22.622  0.00  0.00    +0.000 A 
ATOM     13  N   UNL     1      -0.149  10.356  21.271  0.00  0.00    +0.000 N 
ATOM     14  C   UNL     1       0.781   9.529  20.645  0.00  0.00    +0.000 A 
ATOM     15  O   UNL     1       1.400   8.635  21.221  0.00  0.00    +0.000 OA
ENDBRANCH   2   5
BRANCH   3  16
ATOM     16  C   UNL     1       2.926   6.715  18.035  0.00  0.00    +0.000 C 
BRANCH  16  17
ATOM     17  C   UNL     1       3.780   5.647  18.808  0.00  0.00    +0.000 C 
BRANCH  17  18
ATOM     18  C   UNL     1       3.024   4.458  19.445  0.00  0.00    +0.000 A 
ATOM     19  C   UNL     1       2.910   4.406  20.853  0.00  0.00    +0.000 A 
ATOM     20  C   UNL     1       1.939   3.626  21.494  0.00  0.00    +0.000 A 
ATOM     21  C   UNL     1       1.001   2.938  20.741  0.00  0.00    +0.000 A 
ATOM     22  C   UNL     1       1.157   2.882  19.362  0.00  0.00    +0.000 A 
ATOM     23  C   UNL     1       2.224   3.545  18.735  0.00  0.00    +0.000 A 
ATOM     24 CL   UNL     1       2.571   3.005  17.130  0.00  0.00    +0.000 Cl
ENDBRANCH  17  18
BRANCH  17  25
ATOM     25  N   UNL     1       4.972   5.365  17.983  0.00  0.00    +0.000 NA
ATOM     26  C   UNL     1       6.058   4.612  18.585  0.00  0.00    +0.000 C 
ATOM     27  C   UNL     1       7.120   5.650  18.872  0.00  0.00    +0.000 C 
ATOM     28  C   UNL     1       6.936   6.696  17.782  0.00  0.00    +0.000 C 
ATOM     29  C   UNL     1       5.553   6.439  17.195  0.00  0.00    +0.000 C 
ENDBRANCH  17  25
ENDBRANCH  16  17
ENDBRANCH   3  16
TORSDOF 5
ENDMDL
MODEL 2
REMARK VINA RESULT:      -8.7      0.679      1.133
REMARK  Name = 
REMARK  5 active torsions:
REMARK  status: ('A' for Active; 'I' for Inactive)
REMARK    1  A    between atoms: C_2  and  C_18
REMARK    2  A    between atoms: N_3  and  C_4
REMARK    3  A    between atoms: C_4  and  C_5
REMARK    4  A    between atoms: C_5  and  C_6
REMARK    5  A    between atoms: C_5  and  N_13
REMARK                            x       y       z     vdW  Elec       q    Type
REMARK                         _______ _______ _______ _____ _____    ______ ____
ROOT
ATOM      1  O   UNL     1       2.047   9.404  17.358  0.00  0.00    +0.000 OA
ATOM      2  C   UNL     1       1.676   9.083  18.482  0.00  0.00    +0.000 C 
ATOM      3  N   UNL     1       2.058   7.908  19.067  0.00  0.00    +0.000 N 
ATOM      4  H   UNL     1       1.699   7.686  19.999  0.00  0.00    +0.000 HD
ENDROOT
BRANCH   2   5
ATOM      5  C   UNL     1       0.750   9.941  19.282  0.00  0.00    +0.000 A 
ATOM      6  C   UNL     1      -0.014  10.824  18.632  0.00  0.00    +0.000 A 
ATOM      7  N   UNL     1      -0.946  11.649  19.198  0.00  0.00    +0.000 NA
ATOM      8  C   UNL     1      -1.125  11.550  20.483  0.00  0.00    +0.000 A 
ATOM      9  C   UNL     1      -2.155  12.402  21.136  0.00  0.00    +0.000 A 
ATOM     10  C   UNL     1      -2.371  12.302  22.453  0.00  0.00    +0.000 A 
ATOM     11  C   UNL     1      -1.605  11.376  23.244  0.00  0.00    +0.000 A 
ATOM     12  C   UNL     1      -0.668  10.615  22.667  0.00  0.00    +0.000 A 
ATOM     13  N   UNL     1      -0.410  10.678  21.296  0.00  0.00    +0.000 N 
ATOM     14  C   UNL     1       0.576   9.858  20.751  0.00  0.00    +0.000 A 
ATOM     15  O   UNL     1       1.272   9.089  21.415  0.00  0.00    +0.000 OA
ENDBRANCH   2   5
BRANCH   3  16
ATOM     16  C   UNL     1       2.755   6.854  18.349  0.00  0.00    +0.000 C 
BRANCH  16  17
ATOM     17  C   UNL     1       3.598   5.842  19.207  0.00  0.00    +0.000 C 
BRANCH  17  18
ATOM     18  C   UNL     1       2.890   4.554  19.684  0.00  0.00    +0.000 A 
ATOM     19  C   UNL     1       2.961   4.211  21.053  0.00  0.00    +0.000 A 
ATOM     20  C   UNL     1       2.056   3.322  21.648  0.00  0.00    +0.000 A 
ATOM     21  C   UNL     1       1.001   2.814  20.906  0.00  0.00    +0.000 A 
ATOM     22  C   UNL     1       0.971   3.045  19.537  0.00  0.00    +0.000 A 
ATOM     23  C   UNL     1       1.970   3.815  18.919  0.00  0.00    +0.000 A 
ATOM     24 CL   UNL     1       2.081   3.618  17.205  0.00  0.00    +0.000 Cl
ENDBRANCH  17  18
BRANCH  17  25
ATOM     25  N   UNL     1       4.921   5.724  18.562  0.00  0.00    +0.000 NA
ATOM     26  C   UNL     1       5.175   6.517  17.372  0.00  0.00    +0.000 C 
ATOM     27  C   UNL     1       5.088   5.524  16.234  0.00  0.00    +0.000 C 
ATOM     28  C   UNL     1       5.555   4.208  16.838  0.00  0.00    +0.000 C 
ATOM     29  C   UNL     1       5.485   4.401  18.349  0.00  0.00    +0.000 C 
ENDBRANCH  17  25
ENDBRANCH  16  17
ENDBRANCH   3  16
TORSDOF 5
ENDMDL
MODEL 3
REMARK VINA RESULT:      -8.5      1.389      2.129
REMARK  Name = 
REMARK  5 active torsions:
REMARK  status: ('A' for Active; 'I' for Inactive)
REMARK    1  A    between atoms: C_2  and  C_18
REMARK    2  A    between atoms: N_3  and  C_4
REMARK    3  A    between atoms: C_4  and  C_5
REMARK    4  A    between atoms: C_5  and  C_6
REMARK    5  A    between atoms: C_5  and  N_13
REMARK                            x       y       z     vdW  Elec       q    Type
REMARK                         _______ _______ _______ _____ _____    ______ ____
ROOT
ATOM      1  O   UNL     1       1.839   9.429  17.433  0.00  0.00    +0.000 OA
ATOM      2  C   UNL     1       1.846   8.912  18.545  0.00  0.00    +0.000 C 
ATOM      3  N   UNL     1       2.618   7.822  18.836  0.00  0.00    +0.000 N 
ATOM      4  H   UNL     1       2.565   7.423  19.776  0.00  0.00    +0.000 HD
ENDROOT
BRANCH   2   5
ATOM      5  C   UNL     1       0.983   9.419  19.655  0.00  0.00    +0.000 A 
ATOM      6  C   UNL     1       1.122   8.869  20.864  0.00  0.00    +0.000 A 
ATOM      7  N   UNL     1       0.453   9.242  21.997  0.00  0.00    +0.000 NA
ATOM      8  C   UNL     1      -0.377  10.239  21.896  0.00  0.00    +0.000 A 
ATOM      9  C   UNL     1      -1.099  10.702  23.112  0.00  0.00    +0.000 A 
ATOM     10  C   UNL     1      -1.942  11.739  23.036  0.00  0.00    +0.000 A 
ATOM     11  C   UNL     1      -2.159  12.406  21.779  0.00  0.00    +0.000 A 
ATOM     12  C   UNL     1      -1.523  11.987  20.678  0.00  0.00    +0.000 A 
ATOM     13  N   UNL     1      -0.629  10.914  20.708  0.00  0.00    +0.000 N 
ATOM     14  C   UNL     1       0.007  10.526  19.530  0.00  0.00    +0.000 A 
ATOM     15  O   UNL     1      -0.195  11.054  18.437  0.00  0.00    +0.000 OA
ENDBRANCH   2   5
BRANCH   3  16
ATOM     16  C   UNL     1       3.330   7.060  17.824  0.00  0.00    +0.000 C 
BRANCH  16  17
ATOM     17  C   UNL     1       3.968   5.697  18.274  0.00  0.00    +0.000 C 
BRANCH  17  18
ATOM     18  C   UNL     1       3.018   4.490  18.445  0.00  0.00    +0.000 A 
ATOM     19  C   UNL     1       2.947   3.533  17.406  0.00  0.00    +0.000 A 
ATOM     20  C   UNL     1       2.449   2.241  17.615  0.00  0.00    +0.000 A 
ATOM     21  C   UNL     1       2.084   1.842  18.891  0.00  0.00    +0.000 A 
ATOM     22  C   UNL     1       2.039   2.790  19.904  0.00  0.00    +0.000 A 
ATOM     23  C   UNL     1       2.397   4.125  19.651  0.00  0.00    +0.000 A 
ATOM     24 CL   UNL     1       1.842   5.260  20.831  0.00  0.00    +0.000 Cl
ENDBRANCH  17  18
BRANCH  17  25
ATOM     25  N   UNL     1       5.205   5.516  17.487  0.00  0.00    +0.000 NA
ATOM     26  C   UNL     1       6.300   4.779  18.092  0.00  0.00    +0.000 C 
ATOM     27  C   UNL     1       7.299   5.846  18.482  0.00  0.00    +0.000 C 
ATOM     28  C   UNL     1       7.111   6.944  17.445  0.00  0.00    +0.000 C 
ATOM     29  C   UNL     1       5.766   6.659  16.785  0.00  0.00    +0.000 C 
ENDBRANCH  17  25
ENDBRANCH  16  17
ENDBRANCH   3  16
TORSDOF 5
ENDMDL
MODEL 4
REMARK VINA RESULT:      -8.4      3.504      8.511
REMARK  Name = 
REMARK  5 active torsions:
REMARK  status: ('A' for Active; 'I' for Inactive)
REMARK    1  A    between atoms: C_2  and  C_18
REMARK    2  A    between atoms: N_3  and  C_4
REMARK    3  A    between atoms: C_4  and  C_5
REMARK    4  A    between atoms: C_5  and  C_6
REMARK    5  A    between atoms: C_5  and  N_13
REMARK                            x       y       z     vdW  Elec       q    Type
REMARK                         _______ _______ _______ _____ _____    ______ ____
ROOT
ATOM      1  O   UNL     1       6.517   4.457  19.048  0.00  0.00    +0.000 OA
ATOM      2  C   UNL     1       5.787   4.939  18.187  0.00  0.00    +0.000 C 
ATOM      3  N   UNL     1       4.577   5.499  18.489  0.00  0.00    +0.000 N 
ATOM      4  H   UNL     1       4.004   5.866  17.725  0.00  0.00    +0.000 HD
ENDROOT
BRANCH   2   5
ATOM      5  C   UNL     1       6.156   4.918  16.739  0.00  0.00    +0.000 A 
ATOM      6  C   UNL     1       7.231   5.608  16.351  0.00  0.00    +0.000 A 
ATOM      7  N   UNL     1       7.737   5.660  15.081  0.00  0.00    +0.000 NA
ATOM      8  C   UNL     1       7.131   4.953  14.172  0.00  0.00    +0.000 A 
ATOM      9  C   UNL     1       7.669   4.951  12.784  0.00  0.00    +0.000 A 
ATOM     10  C   UNL     1       7.075   4.216  11.837  0.00  0.00    +0.000 A 
ATOM     11  C   UNL     1       5.911   3.430  12.153  0.00  0.00    +0.000 A 
ATOM     12  C   UNL     1       5.414   3.437  13.396  0.00  0.00    +0.000 A 
ATOM     13  N   UNL     1       6.002   4.183  14.420  0.00  0.00    +0.000 N 
ATOM     14  C   UNL     1       5.441   4.147  15.695  0.00  0.00    +0.000 A 
ATOM     15  O   UNL     1       4.423   3.517  15.978  0.00  0.00    +0.000 OA
ENDBRANCH   2   5
BRANCH   3  16
ATOM     16  C   UNL     1       3.958   5.393  19.800  0.00  0.00    +0.000 C 
BRANCH  16  17
ATOM     17  C   UNL     1       2.493   5.943  19.944  0.00  0.00    +0.000 C 
BRANCH  17  18
ATOM     18  C   UNL     1       2.233   7.397  19.491  0.00  0.00    +0.000 A 
ATOM     19  C   UNL     1       2.529   7.752  18.155  0.00  0.00    +0.000 A 
ATOM     20  C   UNL     1       1.977   8.886  17.544  0.00  0.00    +0.000 A 
ATOM     21  C   UNL     1       1.047   9.652  18.228  0.00  0.00    +0.000 A 
ATOM     22  C   UNL     1       0.821   9.392  19.573  0.00  0.00    +0.000 A 
ATOM     23  C   UNL     1       1.494   8.344  20.222  0.00  0.00    +0.000 A 
ATOM     24 CL   UNL     1       1.493   8.440  21.949  0.00  0.00    +0.000 Cl
ENDBRANCH  17  18
BRANCH  17  25
ATOM     25  N   UNL     1       1.583   4.881  19.469  0.00  0.00    +0.000 NA
ATOM     26  C   UNL     1       0.725   4.229  20.443  0.00  0.00    +0.000 C 
ATOM     27  C   UNL     1       1.371   2.881  20.668  0.00  0.00    +0.000 C 
ATOM     28  C   UNL     1       2.032   2.546  19.339  0.00  0.00    +0.000 C 
ATOM     29  C   UNL     1       2.099   3.861  18.571  0.00  0.00    +0.000 C 
ENDBRANCH  17  25
ENDBRANCH  16  17
ENDBRANCH   3  16
TORSDOF 5
ENDMDL
MODEL 5
REMARK VINA RESULT:      -8.4      0.978      1.589
REMARK  Name = 
REMARK  5 active torsions:
REMARK  status: ('A' for Active; 'I' for Inactive)
REMARK    1  A    between atoms: C_2  and  C_18
REMARK    2  A    between atoms: N_3  and  C_4
REMARK    3  A    between atoms: C_4  and  C_5
REMARK    4  A    between atoms: C_5  and  C_6
REMARK    5  A    between atoms: C_5  and  N_13
REMARK                            x       y       z     vdW  Elec       q    Type
REMARK                         _______ _______ _______ _____ _____    ______ ____
ROOT
ATOM      1  O   UNL     1       2.030   9.584  17.515  0.00  0.00    +0.000 OA
ATOM      2  C   UNL     1       1.734   9.109  18.606  0.00  0.00    +0.000 C 
ATOM      3  N   UNL     1       2.160   7.871  19.001  0.00  0.00    +0.000 N 
ATOM      4  H   UNL     1       1.863   7.521  19.915  0.00  0.00    +0.000 HD
ENDROOT
BRANCH   2   5
ATOM      5  C   UNL     1       0.858   9.839  19.573  0.00  0.00    +0.000 A 
ATOM      6  C   UNL     1       1.226   9.876  20.856  0.00  0.00    +0.000 A 
ATOM      7  N   UNL     1       0.573  10.535  21.860  0.00  0.00    +0.000 NA
ATOM      8  C   UNL     1      -0.491  11.210  21.533  0.00  0.00    +0.000 A 
ATOM      9  C   UNL     1      -1.213  11.973  22.587  0.00  0.00    +0.000 A 
ATOM     10  C   UNL     1      -2.298  12.690  22.271  0.00  0.00    +0.000 A 
ATOM     11  C   UNL     1      -2.774  12.722  20.913  0.00  0.00    +0.000 A 
ATOM     12  C   UNL     1      -2.138  12.028  19.962  0.00  0.00    +0.000 A 
ATOM     13  N   UNL     1      -0.998  11.270  20.241  0.00  0.00    +0.000 N 
ATOM     14  C   UNL     1      -0.377  10.572  19.208  0.00  0.00    +0.000 A 
ATOM     15  O   UNL     1      -0.791  10.550  18.049  0.00  0.00    +0.000 OA
ENDBRANCH   2   5
BRANCH   3  16
ATOM     16  C   UNL     1       2.814   6.933  18.104  0.00  0.00    +0.000 C 
BRANCH  16  17
ATOM     17  C   UNL     1       3.697   5.813  18.763  0.00  0.00    +0.000 C 
BRANCH  17  18
ATOM     18  C   UNL     1       2.965   4.592  19.364  0.00  0.00    +0.000 A 
ATOM     19  C   UNL     1       2.870   4.486  20.771  0.00  0.00    +0.000 A 
ATOM     20  C   UNL     1       1.918   3.670  21.395  0.00  0.00    +0.000 A 
ATOM     21  C   UNL     1       0.978   2.999  20.629  0.00  0.00    +0.000 A 
ATOM     22  C   UNL     1       1.116   2.997  19.247  0.00  0.00    +0.000 A 
ATOM     23  C   UNL     1       2.166   3.696  18.632  0.00  0.00    +0.000 A 
ATOM     24 CL   UNL     1       2.498   3.221  17.003  0.00  0.00    +0.000 Cl
ENDBRANCH  17  18
BRANCH  17  25
ATOM     25  N   UNL     1       4.841   5.575  17.859  0.00  0.00    +0.000 NA
ATOM     26  C   UNL     1       5.975   4.828  18.373  0.00  0.00    +0.000 C 
ATOM     27  C   UNL     1       7.034   5.878  18.622  0.00  0.00    +0.000 C 
ATOM     28  C   UNL     1       6.766   6.949  17.575  0.00  0.00    +0.000 C 
ATOM     29  C   UNL     1       5.354   6.681  17.066  0.00  0.00    +0.000 C 
ENDBRANCH  17  25
ENDBRANCH  16  17
ENDBRANCH   3  16
TORSDOF 5
ENDMDL
MODEL 6
REMARK VINA RESULT:      -8.3      2.063      4.541
REMARK  Name = 
REMARK  5 active torsions:
REMARK  status: ('A' for Active; 'I' for Inactive)
REMARK    1  A    between atoms: C_2  and  C_18
REMARK    2  A    between atoms: N_3  and  C_4
REMARK    3  A    between atoms: C_4  and  C_5
REMARK    4  A    between atoms: C_5  and  C_6
REMARK    5  A    between atoms: C_5  and  N_13
REMARK                            x       y       z     vdW  Elec       q    Type
REMARK                         _______ _______ _______ _____ _____    ______ ____
ROOT
ATOM      1  O   UNL     1       1.396   5.771  20.944  0.00  0.00    +0.000 OA
ATOM      2  C   UNL     1       2.005   6.675  20.382  0.00  0.00    +0.000 C 
ATOM      3  N   UNL     1       3.153   6.451  19.675  0.00  0.00    +0.000 N 
ATOM      4  H   UNL     1       3.627   7.249  19.246  0.00  0.00    +0.000 HD
ENDROOT
BRANCH   2   5
ATOM      5  C   UNL     1       1.551   8.097  20.459  0.00  0.00    +0.000 A 
ATOM      6  C   UNL     1       1.262   8.605  21.659  0.00  0.00    +0.000 A 
ATOM      7  N   UNL     1       0.882   9.893  21.916  0.00  0.00    +0.000 NA
ATOM      8  C   UNL     1       0.820  10.707  20.903  0.00  0.00    +0.000 A 
ATOM      9  C   UNL     1       0.446  12.128  21.141  0.00  0.00    +0.000 A 
ATOM     10  C   UNL     1       0.395  12.988  20.117  0.00  0.00    +0.000 A 
ATOM     11  C   UNL     1       0.695  12.542  18.781  0.00  0.00    +0.000 A 
ATOM     12  C   UNL     1       1.020  11.263  18.557  0.00  0.00    +0.000 A 
ATOM     13  N   UNL     1       1.092  10.330  19.594  0.00  0.00    +0.000 N 
ATOM     14  C   UNL     1       1.439   9.013  19.299  0.00  0.00    +0.000 A 
ATOM     15  O   UNL     1       1.658   8.601  18.160  0.00  0.00    +0.000 OA
ENDBRANCH   2   5
BRANCH   3  16
ATOM     16  C   UNL     1       3.862   5.182  19.694  0.00  0.00    +0.000 C 
BRANCH  16  17
ATOM     17  C   UNL     1       3.837   4.330  18.374  0.00  0.00    +0.000 C 
BRANCH  17  18
ATOM     18  C   UNL     1       5.080   4.403  17.458  0.00  0.00    +0.000 A 
ATOM     19  C   UNL     1       4.996   3.853  16.159  0.00  0.00    +0.000 A 
ATOM     20  C   UNL     1       5.888   4.207  15.139  0.00  0.00    +0.000 A 
ATOM     21  C   UNL     1       6.843   5.185  15.368  0.00  0.00    +0.000 A 
ATOM     22  C   UNL     1       7.020   5.660  16.661  0.00  0.00    +0.000 A 
ATOM     23  C   UNL     1       6.218   5.188  17.713  0.00  0.00    +0.000 A 
ATOM     24 CL   UNL     1       6.850   5.484  19.295  0.00  0.00    +0.000 Cl
ENDBRANCH  17  18
BRANCH  17  25
ATOM     25  N   UNL     1       3.295   3.002  18.725  0.00  0.00    +0.000 NA
ATOM     26  C   UNL     1       2.172   2.497  17.955  0.00  0.00    +0.000 C 
ATOM     27  C   UNL     1       0.982   2.670  18.872  0.00  0.00    +0.000 C 
ATOM     28  C   UNL     1       1.552   2.517  20.274  0.00  0.00    +0.000 C 
ATOM     29  C   UNL     1       3.061   2.684  20.124  0.00  0.00    +0.000 C 
ENDBRANCH  17  25
ENDBRANCH  16  17
ENDBRANCH   3  16
TORSDOF 5
ENDMDL
MODEL 7
REMARK VINA RESULT:      -8.3      1.166      1.477
REMARK  Name = 
REMARK  5 active torsions:
REMARK  status: ('A' for Active; 'I' for Inactive)
REMARK    1  A    between atoms: C_2  and  C_18
REMARK    2  A    between atoms: N_3  and  C_4
REMARK    3  A    between atoms: C_4  and  C_5
REMARK    4  A    between atoms: C_5  and  C_6
REMARK    5  A    between atoms: C_5  and  N_13
REMARK                            x       y       z     vdW  Elec       q    Type
REMARK                         _______ _______ _______ _____ _____    ______ ____
ROOT
ATOM      1  O   UNL     1       2.274   9.974  17.265  0.00  0.00    +0.000 OA
ATOM      2  C   UNL     1       1.826   9.468  18.289  0.00  0.00    +0.000 C 
ATOM      3  N   UNL     1       2.154   8.199  18.678  0.00  0.00    +0.000 N 
ATOM      4  H   UNL     1       1.732   7.824  19.531  0.00  0.00    +0.000 HD
ENDROOT
BRANCH   2   5
ATOM      5  C   UNL     1       0.861  10.194  19.170  0.00  0.00    +0.000 A 
ATOM      6  C   UNL     1       0.030  11.073  18.607  0.00  0.00    +0.000 A 
ATOM      7  N   UNL     1      -0.944  11.785  19.252  0.00  0.00    +0.000 NA
ATOM      8  C   UNL     1      -1.092  11.568  20.527  0.00  0.00    +0.000 A 
ATOM      9  C   UNL     1      -2.163  12.294  21.262  0.00  0.00    +0.000 A 
ATOM     10  C   UNL     1      -2.347  12.072  22.569  0.00  0.00    +0.000 A 
ATOM     11  C   UNL     1      -1.506  11.136  23.270  0.00  0.00    +0.000 A 
ATOM     12  C   UNL     1      -0.532  10.490  22.619  0.00  0.00    +0.000 A 
ATOM     13  N   UNL     1      -0.306  10.683  21.254  0.00  0.00    +0.000 N 
ATOM     14  C   UNL     1       0.721   9.978  20.630  0.00  0.00    +0.000 A 
ATOM     15  O   UNL     1       1.479   9.206  21.218  0.00  0.00    +0.000 OA
ENDBRANCH   2   5
BRANCH   3  16
ATOM     16  C   UNL     1       2.883   7.272  17.828  0.00  0.00    +0.000 C 
BRANCH  16  17
ATOM     17  C   UNL     1       3.355   5.924  18.483  0.00  0.00    +0.000 C 
BRANCH  17  18
ATOM     18  C   UNL     1       2.268   4.878  18.818  0.00  0.00    +0.000 A 
ATOM     19  C   UNL     1       2.023   3.838  17.893  0.00  0.00    +0.000 A 
ATOM     20  C   UNL     1       1.374   2.651  18.259  0.00  0.00    +0.000 A 
ATOM     21  C   UNL     1       1.025   2.437  19.583  0.00  0.00    +0.000 A 
ATOM     22  C   UNL     1       1.153   3.482  20.488  0.00  0.00    +0.000 A 
ATOM     23  C   UNL     1       1.666   4.724  20.080  0.00  0.00    +0.000 A 
ATOM     24 CL   UNL     1       1.322   6.038  21.149  0.00  0.00    +0.000 Cl
ENDBRANCH  17  18
BRANCH  17  25
ATOM     25  N   UNL     1       4.557   5.482  17.747  0.00  0.00    +0.000 NA
ATOM     26  C   UNL     1       5.554   4.710  18.467  0.00  0.00    +0.000 C 
ATOM     27  C   UNL     1       6.679   5.690  18.716  0.00  0.00    +0.000 C 
ATOM     28  C   UNL     1       6.625   6.643  17.531  0.00  0.00    +0.000 C 
ATOM     29  C   UNL     1       5.254   6.435  16.899  0.00  0.00    +0.000 C 
ENDBRANCH  17  25
ENDBRANCH  16  17
ENDBRANCH   3  16
TORSDOF 5
ENDMDL
MODEL 8
REMARK VINA RESULT:      -8.3      1.196      2.005
REMARK  Name = 
REMARK  5 active torsions:
REMARK  status: ('A' for Active; 'I' for Inactive)
REMARK    1  A    between atoms: C_2  and  C_18
REMARK    2  A    between atoms: N_3  and  C_4
REMARK    3  A    between atoms: C_4  and  C_5
REMARK    4  A    between atoms: C_5  and  C_6
REMARK    5  A    between atoms: C_5  and  N_13
REMARK                            x       y       z     vdW  Elec       q    Type
REMARK                         _______ _______ _______ _____ _____    ______ ____
ROOT
ATOM      1  O   UNL     1       1.950   9.487  17.490  0.00  0.00    +0.000 OA
ATOM      2  C   UNL     1       1.616   9.133  18.616  0.00  0.00    +0.000 C 
ATOM      3  N   UNL     1       2.034   7.952  19.163  0.00  0.00    +0.000 N 
ATOM      4  H   UNL     1       1.705   7.702  20.099  0.00  0.00    +0.000 HD
ENDROOT
BRANCH   2   5
ATOM      5  C   UNL     1       0.698   9.956  19.461  0.00  0.00    +0.000 A 
ATOM      6  C   UNL     1       1.066  10.226  20.716  0.00  0.00    +0.000 A 
ATOM      7  N   UNL     1       0.374  10.999  21.607  0.00  0.00    +0.000 NA
ATOM      8  C   UNL     1      -0.731  11.545  21.188  0.00  0.00    +0.000 A 
ATOM      9  C   UNL     1      -1.496  12.424  22.112  0.00  0.00    +0.000 A 
ATOM     10  C   UNL     1      -2.624  13.012  21.696  0.00  0.00    +0.000 A 
ATOM     11  C   UNL     1      -3.105  12.792  20.357  0.00  0.00    +0.000 A 
ATOM     12  C   UNL     1      -2.428  11.991  19.524  0.00  0.00    +0.000 A 
ATOM     13  N   UNL     1      -1.243  11.361  19.909  0.00  0.00    +0.000 N 
ATOM     14  C   UNL     1      -0.581  10.542  18.997  0.00  0.00    +0.000 A 
ATOM     15  O   UNL     1      -0.996  10.306  17.862  0.00  0.00    +0.000 OA
ENDBRANCH   2   5
BRANCH   3  16
ATOM     16  C   UNL     1       2.729   6.927  18.402  0.00  0.00    +0.000 C 
BRANCH  16  17
ATOM     17  C   UNL     1       3.579   5.886  19.216  0.00  0.00    +0.000 C 
BRANCH  17  18
ATOM     18  C   UNL     1       2.866   4.598  19.684  0.00  0.00    +0.000 A 
ATOM     19  C   UNL     1       2.975   4.220  21.042  0.00  0.00    +0.000 A 
ATOM     20  C   UNL     1       2.075   3.332  21.645  0.00  0.00    +0.000 A 
ATOM     21  C   UNL     1       0.989   2.859  20.925  0.00  0.00    +0.000 A 
ATOM     22  C   UNL     1       0.919   3.123  19.564  0.00  0.00    +0.000 A 
ATOM     23  C   UNL     1       1.910   3.893  18.932  0.00  0.00    +0.000 A 
ATOM     24 CL   UNL     1       1.963   3.736  17.211  0.00  0.00    +0.000 Cl
ENDBRANCH  17  18
BRANCH  17  25
ATOM     25  N   UNL     1       4.883   5.763  18.533  0.00  0.00    +0.000 NA
ATOM     26  C   UNL     1       5.090   6.520  17.311  0.00  0.00    +0.000 C 
ATOM     27  C   UNL     1       4.980   5.490  16.209  0.00  0.00    +0.000 C 
ATOM     28  C   UNL     1       5.484   4.200  16.840  0.00  0.00    +0.000 C 
ATOM     29  C   UNL     1       5.458   4.441  18.345  0.00  0.00    +0.000 C 
ENDBRANCH  17  25
ENDBRANCH  16  17
ENDBRANCH   3  16
TORSDOF 5
ENDMDL
MODEL 9
REMARK VINA RESULT:      -8.3      1.288      1.848
REMARK  Name = 
REMARK  5 active torsions:
REMARK  status: ('A' for Active; 'I' for Inactive)
REMARK    1  A    between atoms: C_2  and  C_18
REMARK    2  A    between atoms: N_3  and  C_4
REMARK    3  A    between atoms: C_4  and  C_5
REMARK    4  A    between atoms: C_5  and  C_6
REMARK    5  A    between atoms: C_5  and  N_13
REMARK                            x       y       z     vdW  Elec       q    Type
REMARK                         _______ _______ _______ _____ _____    ______ ____
ROOT
ATOM      1  O   UNL     1       2.213   9.881  17.443  0.00  0.00    +0.000 OA
ATOM      2  C   UNL     1       1.676   9.400  18.436  0.00  0.00    +0.000 C 
ATOM      3  N   UNL     1       1.883   8.104  18.820  0.00  0.00    +0.000 N 
ATOM      4  H   UNL     1       1.391   7.754  19.645  0.00  0.00    +0.000 HD
ENDROOT
BRANCH   2   5
ATOM      5  C   UNL     1       0.728  10.189  19.280  0.00  0.00    +0.000 A 
ATOM      6  C   UNL     1      -0.039  11.104  18.682  0.00  0.00    +0.000 A 
ATOM      7  N   UNL     1      -0.990  11.876  19.290  0.00  0.00    +0.000 NA
ATOM      8  C   UNL     1      -1.184  11.686  20.563  0.00  0.00    +0.000 A 
ATOM      9  C   UNL     1      -2.234  12.479  21.258  0.00  0.00    +0.000 A 
ATOM     10  C   UNL     1      -2.466  12.286  22.562  0.00  0.00    +0.000 A 
ATOM     11  C   UNL     1      -1.696  11.318  23.299  0.00  0.00    +0.000 A 
ATOM     12  C   UNL     1      -0.741  10.610  22.683  0.00  0.00    +0.000 A 
ATOM     13  N   UNL     1      -0.467  10.770  21.323  0.00  0.00    +0.000 N 
ATOM     14  C   UNL     1       0.537  10.002  20.737  0.00  0.00    +0.000 A 
ATOM     15  O   UNL     1       1.235   9.200  21.356  0.00  0.00    +0.000 OA
ENDBRANCH   2   5
BRANCH   3  16
ATOM     16  C   UNL     1       2.579   7.132  17.993  0.00  0.00    +0.000 C 
BRANCH  16  17
ATOM     17  C   UNL     1       3.394   6.014  18.737  0.00  0.00    +0.000 C 
BRANCH  17  18
ATOM     18  C   UNL     1       2.783   4.595  18.773  0.00  0.00    +0.000 A 
ATOM     19  C   UNL     1       2.554   3.926  17.549  0.00  0.00    +0.000 A 
ATOM     20  C   UNL     1       2.390   2.537  17.477  0.00  0.00    +0.000 A 
ATOM     21  C   UNL     1       2.534   1.766  18.620  0.00  0.00    +0.000 A 
ATOM     22  C   UNL     1       2.648   2.403  19.849  0.00  0.00    +0.000 A 
ATOM     23  C   UNL     1       2.660   3.805  19.930  0.00  0.00    +0.000 A 
ATOM     24 CL   UNL     1       2.321   4.444  21.501  0.00  0.00    +0.000 Cl
ENDBRANCH  17  18
BRANCH  17  25
ATOM     25  N   UNL     1       4.806   6.165  18.332  0.00  0.00    +0.000 NA
ATOM     26  C   UNL     1       5.086   6.730  17.024  0.00  0.00    +0.000 C 
ATOM     27  C   UNL     1       5.493   5.541  16.182  0.00  0.00    +0.000 C 
ATOM     28  C   UNL     1       6.150   4.583  17.164  0.00  0.00    +0.000 C 
ATOM     29  C   UNL     1       5.723   5.058  18.549  0.00  0.00    +0.000 C 
ENDBRANCH  17  25
ENDBRANCH  16  17
ENDBRANCH   3  16
TORSDOF 5
ENDMDL
