MODEL 1
REMARK VINA RESULT:      -8.1      0.000      0.000
REMARK  Name = 
REMARK  6 active torsions:
REMARK  status: ('A' for Active; 'I' for Inactive)
REMARK    1  A    between atoms: C_2  and  C_18
REMARK    2  A    between atoms: N_3  and  C_4
REMARK    3  A    between atoms: C_4  and  C_5
REMARK    4  A    between atoms: C_5  and  C_6
REMARK    5  A    between atoms: C_8  and  C_9
REMARK    6  A    between atoms: C_20  and  C_21
REMARK                            x       y       z     vdW  Elec       q    Type
REMARK                         _______ _______ _______ _____ _____    ______ ____
ROOT
ATOM      1  O   UNL     1       1.442   4.890  20.208  0.00  0.00    +0.000 OA
ATOM      2  C   UNL     1       2.305   5.692  19.878  0.00  0.00    +0.000 C 
ATOM      3  N   UNL     1       2.356   6.980  20.367  0.00  0.00    +0.000 N 
ATOM      4  H   UNL     1       3.132   7.561  20.067  0.00  0.00    +0.000 HD
ENDROOT
BRANCH   2   5
ATOM      5  C   UNL     1       3.370   5.300  18.909  0.00  0.00    +0.000 A 
ATOM      6  C   UNL     1       4.693   5.577  19.228  0.00  0.00    +0.000 A 
ATOM      7  C   UNL     1       5.696   5.213  18.328  0.00  0.00    +0.000 A 
ATOM      8  C   UNL     1       5.317   4.593  17.131  0.00  0.00    +0.000 A 
ATOM      9  C   UNL     1       3.968   4.348  16.899  0.00  0.00    +0.000 A 
ATOM     10  N   UNL     1       2.979   4.683  17.760  0.00  0.00    +0.000 NA
BRANCH   7  11
ATOM     11  C   UNL     1       7.145   5.471  18.642  0.00  0.00    +0.000 C 
ATOM     12  F   UNL     1       7.396   5.603  19.974  0.00  0.00    +0.000 F 
ATOM     13  F   UNL     1       7.954   4.466  18.207  0.00  0.00    +0.000 F 
ATOM     14  F   UNL     1       7.609   6.608  18.057  0.00  0.00    +0.000 F 
ENDBRANCH   7  11
ENDBRANCH   2   5
BRANCH   3  15
ATOM     15  C   UNL     1       1.325   7.482  21.259  0.00  0.00    +0.000 C 
BRANCH  15  16
ATOM     16  C   UNL     1       1.215   9.003  21.228  0.00  0.00    +0.000 C 
BRANCH  16  17
ATOM     17  C   UNL     1       0.536   9.453  19.994  0.00  0.00    +0.000 A 
ATOM     18  N   UNL     1      -0.716   9.805  19.807  0.00  0.00    +0.000 NA
ATOM     19  C   UNL     1      -0.746  10.100  18.460  0.00  0.00    +0.000 A 
ATOM     20  N   UNL     1       0.440   9.953  17.847  0.00  0.00    +0.000 NA
ATOM     21  O   UNL     1       1.291   9.525  18.862  0.00  0.00    +0.000 OA
BRANCH  19  22
ATOM     22  C   UNL     1      -1.966  10.529  17.784  0.00  0.00    +0.000 A 
ATOM     23  C   UNL     1      -2.921  11.315  18.448  0.00  0.00    +0.000 A 
ATOM     24  C   UNL     1      -4.089  11.720  17.799  0.00  0.00    +0.000 A 
ATOM     25  C   UNL     1      -4.319  11.338  16.478  0.00  0.00    +0.000 A 
ATOM     26  C   UNL     1      -3.376  10.557  15.812  0.00  0.00    +0.000 A 
ATOM     27 CL   UNL     1      -3.666  10.079  14.185  0.00  0.00    +0.000 Cl
ATOM     28  C   UNL     1      -2.204  10.156  16.453  0.00  0.00    +0.000 A 
ENDBRANCH  19  22
ENDBRANCH  16  17
ENDBRANCH  15  16
ENDBRANCH   3  15
TORSDOF 6
ENDMDL
MODEL 2
REMARK VINA RESULT:      -8.1      4.847      8.883
REMARK  Name = 
REMARK  6 active torsions:
REMARK  status: ('A' for Active; 'I' for Inactive)
REMARK    1  A    between atoms: C_2  and  C_18
REMARK    2  A    between atoms: N_3  and  C_4
REMARK    3  A    between atoms: C_4  and  C_5
REMARK    4  A    between atoms: C_5  and  C_6
REMARK    5  A    between atoms: C_8  and  C_9
REMARK    6  A    between atoms: C_20  and  C_21
REMARK                            x       y       z     vdW  Elec       q    Type
REMARK                         _______ _______ _______ _____ _____    ______ ____
ROOT
ATOM      1  O   UNL     1       1.587   5.060  20.626  0.00  0.00    +0.000 OA
ATOM      2  C   UNL     1       2.146   5.934  19.978  0.00  0.00    +0.000 C 
ATOM      3  N   UNL     1       3.189   5.674  19.114  0.00  0.00    +0.000 N 
ATOM      4  H   UNL     1       3.565   6.457  18.589  0.00  0.00    +0.000 HD
ENDROOT
BRANCH   2   5
ATOM      5  C   UNL     1       1.711   7.357  20.095  0.00  0.00    +0.000 A 
ATOM      6  C   UNL     1       1.126   7.777  21.283  0.00  0.00    +0.000 A 
ATOM      7  C   UNL     1       0.717   9.107  21.402  0.00  0.00    +0.000 A 
ATOM      8  C   UNL     1       0.905   9.957  20.306  0.00  0.00    +0.000 A 
ATOM      9  C   UNL     1       1.506   9.451  19.159  0.00  0.00    +0.000 A 
ATOM     10  N   UNL     1       1.919   8.169  19.023  0.00  0.00    +0.000 NA
BRANCH   7  11
ATOM     11  C   UNL     1       0.102   9.612  22.679  0.00  0.00    +0.000 C 
ATOM     12  F   UNL     1      -0.234  10.931  22.635  0.00  0.00    +0.000 F 
ATOM     13  F   UNL     1      -1.041   8.946  23.000  0.00  0.00    +0.000 F 
ATOM     14  F   UNL     1       0.933   9.471  23.747  0.00  0.00    +0.000 F 
ENDBRANCH   7  11
ENDBRANCH   2   5
BRANCH   3  15
ATOM     15  C   UNL     1       3.734   4.334  18.983  0.00  0.00    +0.000 C 
BRANCH  15  16
ATOM     16  C   UNL     1       5.226   4.277  19.294  0.00  0.00    +0.000 C 
BRANCH  16  17
ATOM     17  C   UNL     1       6.023   4.381  18.054  0.00  0.00    +0.000 A 
ATOM     18  N   UNL     1       5.633   4.334  16.800  0.00  0.00    +0.000 NA
ATOM     19  C   UNL     1       6.822   4.466  16.111  0.00  0.00    +0.000 A 
ATOM     20  N   UNL     1       7.896   4.605  16.906  0.00  0.00    +0.000 NA
ATOM     21  O   UNL     1       7.368   4.549  18.194  0.00  0.00    +0.000 OA
BRANCH  19  22
ATOM     22  C   UNL     1       6.883   4.451  14.654  0.00  0.00    +0.000 A 
ATOM     23  C   UNL     1       7.814   5.244  13.962  0.00  0.00    +0.000 A 
ATOM     24  C   UNL     1       7.867   5.230  12.567  0.00  0.00    +0.000 A 
ATOM     25  C   UNL     1       6.986   4.426  11.846  0.00  0.00    +0.000 A 
ATOM     26  C   UNL     1       6.059   3.637  12.524  0.00  0.00    +0.000 A 
ATOM     27 CL   UNL     1       4.965   2.653  11.631  0.00  0.00    +0.000 Cl
ATOM     28  C   UNL     1       6.006   3.641  13.918  0.00  0.00    +0.000 A 
ENDBRANCH  19  22
ENDBRANCH  16  17
ENDBRANCH  15  16
ENDBRANCH   3  15
TORSDOF 6
ENDMDL
MODEL 3
REMARK VINA RESULT:      -8.0      4.934      7.945
REMARK  Name = 
REMARK  6 active torsions:
REMARK  status: ('A' for Active; 'I' for Inactive)
REMARK    1  A    between atoms: C_2  and  C_18
REMARK    2  A    between atoms: N_3  and  C_4
REMARK    3  A    between atoms: C_4  and  C_5
REMARK    4  A    between atoms: C_5  and  C_6
REMARK    5  A    between atoms: C_8  and  C_9
REMARK    6  A    between atoms: C_20  and  C_21
REMARK                            x       y       z     vdW  Elec       q    Type
REMARK                         _______ _______ _______ _____ _____    ______ ____
ROOT
ATOM      1  O   UNL     1       2.651   4.913  21.648  0.00  0.00    +0.000 OA
ATOM      2  C   UNL     1       1.923   5.121  20.688  0.00  0.00    +0.000 C 
ATOM      3  N   UNL     1       1.088   4.159  20.159  0.00  0.00    +0.000 N 
ATOM      4  H   UNL     1       0.491   4.435  19.386  0.00  0.00    +0.000 HD
ENDROOT
BRANCH   2   5
ATOM      5  C   UNL     1       1.904   6.461  20.030  0.00  0.00    +0.000 A 
ATOM      6  C   UNL     1       1.337   7.529  20.714  0.00  0.00    +0.000 A 
ATOM      7  C   UNL     1       1.316   8.786  20.106  0.00  0.00    +0.000 A 
ATOM      8  C   UNL     1       1.859   8.909  18.821  0.00  0.00    +0.000 A 
ATOM      9  C   UNL     1       2.412   7.786  18.216  0.00  0.00    +0.000 A 
ATOM     10  N   UNL     1       2.453   6.560  18.788  0.00  0.00    +0.000 NA
BRANCH   7  11
ATOM     11  C   UNL     1       0.734   9.976  20.819  0.00  0.00    +0.000 C 
ATOM     12  F   UNL     1      -0.605  10.125  20.625  0.00  0.00    +0.000 F 
ATOM     13  F   UNL     1       0.912   9.907  22.167  0.00  0.00    +0.000 F 
ATOM     14  F   UNL     1       1.304  11.147  20.424  0.00  0.00    +0.000 F 
ENDBRANCH   7  11
ENDBRANCH   2   5
BRANCH   3  15
ATOM     15  C   UNL     1       1.085   2.804  20.681  0.00  0.00    +0.000 C 
BRANCH  15  16
ATOM     16  C   UNL     1       2.008   1.875  19.899  0.00  0.00    +0.000 C 
BRANCH  16  17
ATOM     17  C   UNL     1       2.587   2.573  18.732  0.00  0.00    +0.000 A 
ATOM     18  N   UNL     1       3.810   3.014  18.541  0.00  0.00    +0.000 NA
ATOM     19  C   UNL     1       3.731   3.583  17.287  0.00  0.00    +0.000 A 
ATOM     20  N   UNL     1       2.516   3.482  16.722  0.00  0.00    +0.000 NA
ATOM     21  O   UNL     1       1.757   2.813  17.679  0.00  0.00    +0.000 OA
BRANCH  19  22
ATOM     22  C   UNL     1       4.873   4.232  16.653  0.00  0.00    +0.000 A 
ATOM     23  C   UNL     1       5.299   3.850  15.370  0.00  0.00    +0.000 A 
ATOM     24  C   UNL     1       6.396   4.472  14.768  0.00  0.00    +0.000 A 
ATOM     25  C   UNL     1       7.083   5.478  15.444  0.00  0.00    +0.000 A 
ATOM     26  C   UNL     1       6.666   5.863  16.717  0.00  0.00    +0.000 A 
ATOM     27 CL   UNL     1       7.522   7.100  17.554  0.00  0.00    +0.000 Cl
ATOM     28  C   UNL     1       5.567   5.251  17.321  0.00  0.00    +0.000 A 
ENDBRANCH  19  22
ENDBRANCH  16  17
ENDBRANCH  15  16
ENDBRANCH   3  15
TORSDOF 6
ENDMDL
MODEL 4
REMARK VINA RESULT:      -8.0      4.380      5.813
REMARK  Name = 
REMARK  6 active torsions:
REMARK  status: ('A' for Active; 'I' for Inactive)
REMARK    1  A    between atoms: C_2  and  C_18
REMARK    2  A    between atoms: N_3  and  C_4
REMARK    3  A    between atoms: C_4  and  C_5
REMARK    4  A    between atoms: C_5  and  C_6
REMARK    5  A    between atoms: C_8  and  C_9
REMARK    6  A    between atoms: C_20  and  C_21
REMARK                            x       y       z     vdW  Elec       q    Type
REMARK                         _______ _______ _______ _____ _____    ______ ____
ROOT
ATOM      1  O   UNL     1       2.918   3.588  16.661  0.00  0.00    +0.000 OA
ATOM      2  C   UNL     1       4.084   3.310  16.903  0.00  0.00    +0.000 C 
ATOM      3  N   UNL     1       4.458   2.495  17.951  0.00  0.00    +0.000 N 
ATOM      4  H   UNL     1       5.446   2.288  18.050  0.00  0.00    +0.000 HD
ENDROOT
BRANCH   2   5
ATOM      5  C   UNL     1       5.183   3.854  16.051  0.00  0.00    +0.000 A 
ATOM      6  C   UNL     1       5.215   3.506  14.707  0.00  0.00    +0.000 A 
ATOM      7  C   UNL     1       6.239   4.010  13.902  0.00  0.00    +0.000 A 
ATOM      8  C   UNL     1       7.199   4.838  14.496  0.00  0.00    +0.000 A 
ATOM      9  C   UNL     1       7.084   5.139  15.849  0.00  0.00    +0.000 A 
ATOM     10  N   UNL     1       6.095   4.670  16.646  0.00  0.00    +0.000 NA
BRANCH   7  11
ATOM     11  C   UNL     1       6.300   3.681  12.436  0.00  0.00    +0.000 C 
ATOM     12  F   UNL     1       5.092   3.758  11.811  0.00  0.00    +0.000 F 
ATOM     13  F   UNL     1       7.128   4.518  11.753  0.00  0.00    +0.000 F 
ATOM     14  F   UNL     1       6.762   2.422  12.205  0.00  0.00    +0.000 F 
ENDBRANCH   7  11
ENDBRANCH   2   5
BRANCH   3  15
ATOM     15  C   UNL     1       3.471   1.974  18.880  0.00  0.00    +0.000 C 
BRANCH  15  16
ATOM     16  C   UNL     1       3.463   2.728  20.206  0.00  0.00    +0.000 C 
BRANCH  16  17
ATOM     17  C   UNL     1       3.383   4.186  19.979  0.00  0.00    +0.000 A 
ATOM     18  N   UNL     1       2.362   5.002  20.120  0.00  0.00    +0.000 NA
ATOM     19  C   UNL     1       2.895   6.217  19.745  0.00  0.00    +0.000 A 
ATOM     20  N   UNL     1       4.193   6.157  19.403  0.00  0.00    +0.000 NA
ATOM     21  O   UNL     1       4.517   4.811  19.558  0.00  0.00    +0.000 OA
BRANCH  19  22
ATOM     22  C   UNL     1       2.104   7.443  19.726  0.00  0.00    +0.000 A 
ATOM     23  C   UNL     1       2.067   8.260  18.585  0.00  0.00    +0.000 A 
ATOM     24  C   UNL     1       1.311   9.435  18.572  0.00  0.00    +0.000 A 
ATOM     25  C   UNL     1       0.587   9.808  19.702  0.00  0.00    +0.000 A 
ATOM     26  C   UNL     1       0.619   9.002  20.839  0.00  0.00    +0.000 A 
ATOM     27 CL   UNL     1      -0.268   9.471  22.238  0.00  0.00    +0.000 Cl
ATOM     28  C   UNL     1       1.366   7.825  20.856  0.00  0.00    +0.000 A 
ENDBRANCH  19  22
ENDBRANCH  16  17
ENDBRANCH  15  16
ENDBRANCH   3  15
TORSDOF 6
ENDMDL
MODEL 5
REMARK VINA RESULT:      -8.0      3.966      5.204
REMARK  Name = 
REMARK  6 active torsions:
REMARK  status: ('A' for Active; 'I' for Inactive)
REMARK    1  A    between atoms: C_2  and  C_18
REMARK    2  A    between atoms: N_3  and  C_4
REMARK    3  A    between atoms: C_4  and  C_5
REMARK    4  A    between atoms: C_5  and  C_6
REMARK    5  A    between atoms: C_8  and  C_9
REMARK    6  A    between atoms: C_20  and  C_21
REMARK                            x       y       z     vdW  Elec       q    Type
REMARK                         _______ _______ _______ _____ _____    ______ ____
ROOT
ATOM      1  O   UNL     1       5.021   2.717  20.329  0.00  0.00    +0.000 OA
ATOM      2  C   UNL     1       4.668   3.103  19.224  0.00  0.00    +0.000 C 
ATOM      3  N   UNL     1       3.486   2.705  18.634  0.00  0.00    +0.000 N 
ATOM      4  H   UNL     1       3.258   3.108  17.731  0.00  0.00    +0.000 HD
ENDROOT
BRANCH   2   5
ATOM      5  C   UNL     1       5.520   4.049  18.445  0.00  0.00    +0.000 A 
ATOM      6  C   UNL     1       5.274   4.200  17.086  0.00  0.00    +0.000 A 
ATOM      7  C   UNL     1       6.066   5.083  16.350  0.00  0.00    +0.000 A 
ATOM      8  C   UNL     1       7.087   5.769  17.017  0.00  0.00    +0.000 A 
ATOM      9  C   UNL     1       7.256   5.561  18.381  0.00  0.00    +0.000 A 
ATOM     10  N   UNL     1       6.495   4.717  19.118  0.00  0.00    +0.000 NA
BRANCH   7  11
ATOM     11  C   UNL     1       5.819   5.297  14.881  0.00  0.00    +0.000 C 
ATOM     12  F   UNL     1       5.079   6.407  14.611  0.00  0.00    +0.000 F 
ATOM     13  F   UNL     1       6.977   5.440  14.179  0.00  0.00    +0.000 F 
ATOM     14  F   UNL     1       5.158   4.255  14.308  0.00  0.00    +0.000 F 
ENDBRANCH   7  11
ENDBRANCH   2   5
BRANCH   3  15
ATOM     15  C   UNL     1       2.621   1.732  19.278  0.00  0.00    +0.000 C 
BRANCH  15  16
ATOM     16  C   UNL     1       1.440   2.382  19.990  0.00  0.00    +0.000 C 
BRANCH  16  17
ATOM     17  C   UNL     1       1.665   3.833  20.161  0.00  0.00    +0.000 A 
ATOM     18  N   UNL     1       1.452   4.819  19.319  0.00  0.00    +0.000 NA
ATOM     19  C   UNL     1       1.870   5.921  20.036  0.00  0.00    +0.000 A 
ATOM     20  N   UNL     1       2.306   5.628  21.273  0.00  0.00    +0.000 NA
ATOM     21  O   UNL     1       2.171   4.245  21.357  0.00  0.00    +0.000 OA
BRANCH  19  22
ATOM     22  C   UNL     1       1.834   7.270  19.482  0.00  0.00    +0.000 A 
ATOM     23  C   UNL     1       2.319   7.532  18.191  0.00  0.00    +0.000 A 
ATOM     24  C   UNL     1       2.287   8.826  17.665  0.00  0.00    +0.000 A 
ATOM     25  C   UNL     1       1.775   9.874  18.428  0.00  0.00    +0.000 A 
ATOM     26  C   UNL     1       1.292   9.622  19.711  0.00  0.00    +0.000 A 
ATOM     27 CL   UNL     1       0.669  10.919  20.655  0.00  0.00    +0.000 Cl
ATOM     28  C   UNL     1       1.315   8.330  20.239  0.00  0.00    +0.000 A 
ENDBRANCH  19  22
ENDBRANCH  16  17
ENDBRANCH  15  16
ENDBRANCH   3  15
TORSDOF 6
ENDMDL
MODEL 6
REMARK VINA RESULT:      -7.9      6.913      9.304
REMARK  Name = 
REMARK  6 active torsions:
REMARK  status: ('A' for Active; 'I' for Inactive)
REMARK    1  A    between atoms: C_2  and  C_18
REMARK    2  A    between atoms: N_3  and  C_4
REMARK    3  A    between atoms: C_4  and  C_5
REMARK    4  A    between atoms: C_5  and  C_6
REMARK    5  A    between atoms: C_8  and  C_9
REMARK    6  A    between atoms: C_20  and  C_21
REMARK                            x       y       z     vdW  Elec       q    Type
REMARK                         _______ _______ _______ _____ _____    ______ ____
ROOT
ATOM      1  O   UNL     1       7.335   5.410  19.975  0.00  0.00    +0.000 OA
ATOM      2  C   UNL     1       6.676   5.655  18.975  0.00  0.00    +0.000 C 
ATOM      3  N   UNL     1       7.011   6.652  18.083  0.00  0.00    +0.000 N 
ATOM      4  H   UNL     1       6.426   6.757  17.260  0.00  0.00    +0.000 HD
ENDROOT
BRANCH   2   5
ATOM      5  C   UNL     1       5.448   4.865  18.666  0.00  0.00    +0.000 A 
ATOM      6  C   UNL     1       4.462   4.762  19.639  0.00  0.00    +0.000 A 
ATOM      7  C   UNL     1       3.309   4.025  19.359  0.00  0.00    +0.000 A 
ATOM      8  C   UNL     1       3.207   3.409  18.105  0.00  0.00    +0.000 A 
ATOM      9  C   UNL     1       4.241   3.573  17.190  0.00  0.00    +0.000 A 
ATOM     10  N   UNL     1       5.363   4.289  17.435  0.00  0.00    +0.000 NA
BRANCH   7  11
ATOM     11  C   UNL     1       2.204   3.907  20.373  0.00  0.00    +0.000 C 
ATOM     12  F   UNL     1       2.378   4.708  21.461  0.00  0.00    +0.000 F 
ATOM     13  F   UNL     1       0.991   4.239  19.854  0.00  0.00    +0.000 F 
ATOM     14  F   UNL     1       2.075   2.641  20.855  0.00  0.00    +0.000 F 
ENDBRANCH   7  11
ENDBRANCH   2   5
BRANCH   3  15
ATOM     15  C   UNL     1       8.146   7.525  18.330  0.00  0.00    +0.000 C 
BRANCH  15  16
ATOM     16  C   UNL     1       8.033   8.853  17.590  0.00  0.00    +0.000 C 
BRANCH  16  17
ATOM     17  C   UNL     1       8.719   9.929  18.338  0.00  0.00    +0.000 A 
ATOM     18  N   UNL     1       9.025  11.149  17.959  0.00  0.00    +0.000 NA
ATOM     19  C   UNL     1       9.664  11.656  19.072  0.00  0.00    +0.000 A 
ATOM     20  N   UNL     1       9.734  10.792  20.098  0.00  0.00    +0.000 NA
ATOM     21  O   UNL     1       9.108   9.646  19.613  0.00  0.00    +0.000 OA
BRANCH  19  22
ATOM     22  C   UNL     1      10.209  13.010  19.107  0.00  0.00    +0.000 A 
ATOM     23  C   UNL     1      10.673  13.569  20.309  0.00  0.00    +0.000 A 
ATOM     24  C   UNL     1      11.190  14.866  20.340  0.00  0.00    +0.000 A 
ATOM     25  C   UNL     1      11.243  15.621  19.170  0.00  0.00    +0.000 A 
ATOM     26  C   UNL     1      10.784  15.073  17.974  0.00  0.00    +0.000 A 
ATOM     27 CL   UNL     1      10.842  16.012  16.532  0.00  0.00    +0.000 Cl
ATOM     28  C   UNL     1      10.274  13.776  17.935  0.00  0.00    +0.000 A 
ENDBRANCH  19  22
ENDBRANCH  16  17
ENDBRANCH  15  16
ENDBRANCH   3  15
TORSDOF 6
ENDMDL
MODEL 7
REMARK VINA RESULT:      -7.9      6.646      9.240
REMARK  Name = 
REMARK  6 active torsions:
REMARK  status: ('A' for Active; 'I' for Inactive)
REMARK    1  A    between atoms: C_2  and  C_18
REMARK    2  A    between atoms: N_3  and  C_4
REMARK    3  A    between atoms: C_4  and  C_5
REMARK    4  A    between atoms: C_5  and  C_6
REMARK    5  A    between atoms: C_8  and  C_9
REMARK    6  A    between atoms: C_20  and  C_21
REMARK                            x       y       z     vdW  Elec       q    Type
REMARK                         _______ _______ _______ _____ _____    ______ ____
ROOT
ATOM      1  O   UNL     1       9.436  10.147  20.028  0.00  0.00    +0.000 OA
ATOM      2  C   UNL     1       9.257  10.439  18.854  0.00  0.00    +0.000 C 
ATOM      3  N   UNL     1       8.605   9.609  17.966  0.00  0.00    +0.000 N 
ATOM      4  H   UNL     1       8.468   9.953  17.022  0.00  0.00    +0.000 HD
ENDROOT
BRANCH   2   5
ATOM      5  C   UNL     1       9.749  11.742  18.315  0.00  0.00    +0.000 A 
ATOM      6  C   UNL     1       8.916  12.850  18.396  0.00  0.00    +0.000 A 
ATOM      7  C   UNL     1       9.368  14.073  17.896  0.00  0.00    +0.000 A 
ATOM      8  C   UNL     1      10.643  14.122  17.320  0.00  0.00    +0.000 A 
ATOM      9  C   UNL     1      11.411  12.963  17.290  0.00  0.00    +0.000 A 
ATOM     10  N   UNL     1      10.998  11.769  17.776  0.00  0.00    +0.000 NA
BRANCH   7  11
ATOM     11  C   UNL     1       8.510  15.306  17.984  0.00  0.00    +0.000 C 
ATOM     12  F   UNL     1       9.039  16.384  17.341  0.00  0.00    +0.000 F 
ATOM     13  F   UNL     1       7.276  15.116  17.441  0.00  0.00    +0.000 F 
ATOM     14  F   UNL     1       8.299  15.702  19.269  0.00  0.00    +0.000 F 
ENDBRANCH   7  11
ENDBRANCH   2   5
BRANCH   3  15
ATOM     15  C   UNL     1       8.152   8.290  18.373  0.00  0.00    +0.000 C 
BRANCH  15  16
ATOM     16  C   UNL     1       7.662   7.453  17.196  0.00  0.00    +0.000 C 
BRANCH  16  17
ATOM     17  C   UNL     1       6.770   6.369  17.661  0.00  0.00    +0.000 A 
ATOM     18  N   UNL     1       5.461   6.351  17.772  0.00  0.00    +0.000 NA
ATOM     19  C   UNL     1       5.220   5.087  18.271  0.00  0.00    +0.000 A 
ATOM     20  N   UNL     1       6.332   4.352  18.444  0.00  0.00    +0.000 NA
ATOM     21  O   UNL     1       7.360   5.201  18.040  0.00  0.00    +0.000 OA
BRANCH  19  22
ATOM     22  C   UNL     1       3.875   4.614  18.578  0.00  0.00    +0.000 A 
ATOM     23  C   UNL     1       2.873   4.600  17.593  0.00  0.00    +0.000 A 
ATOM     24  C   UNL     1       1.585   4.150  17.892  0.00  0.00    +0.000 A 
ATOM     25  C   UNL     1       1.282   3.715  19.180  0.00  0.00    +0.000 A 
ATOM     26  C   UNL     1       2.270   3.726  20.163  0.00  0.00    +0.000 A 
ATOM     27 CL   UNL     1       1.891   3.197  21.756  0.00  0.00    +0.000 Cl
ATOM     28  C   UNL     1       3.560   4.167  19.869  0.00  0.00    +0.000 A 
ENDBRANCH  19  22
ENDBRANCH  16  17
ENDBRANCH  15  16
ENDBRANCH   3  15
TORSDOF 6
ENDMDL
MODEL 8
REMARK VINA RESULT:      -7.9      4.562      6.530
REMARK  Name = 
REMARK  6 active torsions:
REMARK  status: ('A' for Active; 'I' for Inactive)
REMARK    1  A    between atoms: C_2  and  C_18
REMARK    2  A    between atoms: N_3  and  C_4
REMARK    3  A    between atoms: C_4  and  C_5
REMARK    4  A    between atoms: C_5  and  C_6
REMARK    5  A    between atoms: C_8  and  C_9
REMARK    6  A    between atoms: C_20  and  C_21
REMARK                            x       y       z     vdW  Elec       q    Type
REMARK                         _______ _______ _______ _____ _____    ______ ____
ROOT
ATOM      1  O   UNL     1       4.963   5.753  15.936  0.00  0.00    +0.000 OA
ATOM      2  C   UNL     1       5.778   4.858  15.762  0.00  0.00    +0.000 C 
ATOM      3  N   UNL     1       6.207   4.028  16.777  0.00  0.00    +0.000 N 
ATOM      4  H   UNL     1       6.856   3.288  16.530  0.00  0.00    +0.000 HD
ENDROOT
BRANCH   2   5
ATOM      5  C   UNL     1       6.358   4.616  14.408  0.00  0.00    +0.000 A 
ATOM      6  C   UNL     1       5.830   3.591  13.633  0.00  0.00    +0.000 A 
ATOM      7  C   UNL     1       6.366   3.358  12.365  0.00  0.00    +0.000 A 
ATOM      8  C   UNL     1       7.426   4.165  11.936  0.00  0.00    +0.000 A 
ATOM      9  C   UNL     1       7.886   5.173  12.777  0.00  0.00    +0.000 A 
ATOM     10  N   UNL     1       7.376   5.424  14.006  0.00  0.00    +0.000 NA
BRANCH   7  11
ATOM     11  C   UNL     1       5.810   2.275  11.480  0.00  0.00    +0.000 C 
ATOM     12  F   UNL     1       6.604   1.984  10.413  0.00  0.00    +0.000 F 
ATOM     13  F   UNL     1       5.637   1.102  12.149  0.00  0.00    +0.000 F 
ATOM     14  F   UNL     1       4.592   2.599  10.966  0.00  0.00    +0.000 F 
ENDBRANCH   7  11
ENDBRANCH   2   5
BRANCH   3  15
ATOM     15  C   UNL     1       5.758   4.227  18.144  0.00  0.00    +0.000 C 
BRANCH  15  16
ATOM     16  C   UNL     1       4.380   3.626  18.399  0.00  0.00    +0.000 C 
BRANCH  16  17
ATOM     17  C   UNL     1       3.508   4.593  19.098  0.00  0.00    +0.000 A 
ATOM     18  N   UNL     1       3.234   5.843  18.799  0.00  0.00    +0.000 NA
ATOM     19  C   UNL     1       2.388   6.218  19.822  0.00  0.00    +0.000 A 
ATOM     20  N   UNL     1       2.138   5.236  20.705  0.00  0.00    +0.000 NA
ATOM     21  O   UNL     1       2.879   4.159  20.226  0.00  0.00    +0.000 OA
BRANCH  19  22
ATOM     22  C   UNL     1       1.830   7.562  19.919  0.00  0.00    +0.000 A 
ATOM     23  C   UNL     1       1.858   8.436  18.820  0.00  0.00    +0.000 A 
ATOM     24  C   UNL     1       1.326   9.724  18.917  0.00  0.00    +0.000 A 
ATOM     25  C   UNL     1       0.765  10.155  20.118  0.00  0.00    +0.000 A 
ATOM     26  C   UNL     1       0.734   9.294  21.214  0.00  0.00    +0.000 A 
ATOM     27 CL   UNL     1       0.050   9.832  22.698  0.00  0.00    +0.000 Cl
ATOM     28  C   UNL     1       1.257   8.004  21.120  0.00  0.00    +0.000 A 
ENDBRANCH  19  22
ENDBRANCH  16  17
ENDBRANCH  15  16
ENDBRANCH   3  15
TORSDOF 6
ENDMDL
MODEL 9
REMARK VINA RESULT:      -7.9      5.606      8.790
REMARK  Name = 
REMARK  6 active torsions:
REMARK  status: ('A' for Active; 'I' for Inactive)
REMARK    1  A    between atoms: C_2  and  C_18
REMARK    2  A    between atoms: N_3  and  C_4
REMARK    3  A    between atoms: C_4  and  C_5
REMARK    4  A    between atoms: C_5  and  C_6
REMARK    5  A    between atoms: C_8  and  C_9
REMARK    6  A    between atoms: C_20  and  C_21
REMARK                            x       y       z     vdW  Elec       q    Type
REMARK                         _______ _______ _______ _____ _____    ______ ____
ROOT
ATOM      1  O   UNL     1       3.024   5.201  18.682  0.00  0.00    +0.000 OA
ATOM      2  C   UNL     1       3.329   6.273  18.178  0.00  0.00    +0.000 C 
ATOM      3  N   UNL     1       4.388   6.415  17.305  0.00  0.00    +0.000 N 
ATOM      4  H   UNL     1       4.542   7.335  16.906  0.00  0.00    +0.000 HD
ENDROOT
BRANCH   2   5
ATOM      5  C   UNL     1       2.548   7.505  18.490  0.00  0.00    +0.000 A 
ATOM      6  C   UNL     1       1.949   7.613  19.739  0.00  0.00    +0.000 A 
ATOM      7  C   UNL     1       1.216   8.763  20.040  0.00  0.00    +0.000 A 
ATOM      8  C   UNL     1       1.108   9.754  19.057  0.00  0.00    +0.000 A 
ATOM      9  C   UNL     1       1.748   9.564  17.838  0.00  0.00    +0.000 A 
ATOM     10  N   UNL     1       2.471   8.462  17.526  0.00  0.00    +0.000 NA
BRANCH   7  11
ATOM     11  C   UNL     1       0.571   8.934  21.388  0.00  0.00    +0.000 C 
ATOM     12  F   UNL     1       1.429   8.746  22.429  0.00  0.00    +0.000 F 
ATOM     13  F   UNL     1       0.048  10.180  21.555  0.00  0.00    +0.000 F 
ATOM     14  F   UNL     1      -0.457   8.065  21.587  0.00  0.00    +0.000 F 
ENDBRANCH   7  11
ENDBRANCH   2   5
BRANCH   3  15
ATOM     15  C   UNL     1       5.255   5.292  16.993  0.00  0.00    +0.000 C 
BRANCH  15  16
ATOM     16  C   UNL     1       6.563   5.727  16.341  0.00  0.00    +0.000 C 
BRANCH  16  17
ATOM     17  C   UNL     1       7.251   6.737  17.172  0.00  0.00    +0.000 A 
ATOM     18  N   UNL     1       7.358   8.035  16.997  0.00  0.00    +0.000 NA
ATOM     19  C   UNL     1       8.123   8.421  18.077  0.00  0.00    +0.000 A 
ATOM     20  N   UNL     1       8.461   7.407  18.892  0.00  0.00    +0.000 NA
ATOM     21  O   UNL     1       7.884   6.291  18.293  0.00  0.00    +0.000 OA
BRANCH  19  22
ATOM     22  C   UNL     1       8.521   9.808  18.294  0.00  0.00    +0.000 A 
ATOM     23  C   UNL     1       8.101  10.824  17.421  0.00  0.00    +0.000 A 
ATOM     24  C   UNL     1       8.487  12.150  17.630  0.00  0.00    +0.000 A 
ATOM     25  C   UNL     1       9.302  12.475  18.712  0.00  0.00    +0.000 A 
ATOM     26  C   UNL     1       9.723  11.472  19.584  0.00  0.00    +0.000 A 
ATOM     27 CL   UNL     1      10.738  11.873  20.915  0.00  0.00    +0.000 Cl
ATOM     28  C   UNL     1       9.335  10.147  19.385  0.00  0.00    +0.000 A 
ENDBRANCH  19  22
ENDBRANCH  16  17
ENDBRANCH  15  16
ENDBRANCH   3  15
TORSDOF 6
ENDMDL
