MODEL 1
REMARK VINA RESULT:      -8.6      0.000      0.000
REMARK  Name = 
REMARK  4 active torsions:
REMARK  status: ('A' for Active; 'I' for Inactive)
REMARK    1  A    between atoms: S_2  and  N_4
REMARK    2  A    between atoms: S_2  and  C_21
REMARK    3  A    between atoms: N_4  and  C_5
REMARK    4  A    between atoms: C_14  and  N_15
REMARK                            x       y       z     vdW  Elec       q    Type
REMARK                         _______ _______ _______ _____ _____    ______ ____
ROOT
ATOM      1  C   UNL     1       3.361   6.420  18.336  0.00  0.00    +0.000 A 
ATOM      2  N   UNL     1       4.307   6.827  17.466  0.00  0.00    +0.000 NA
ATOM      3  C   UNL     1       4.834   5.863  16.699  0.00  0.00    +0.000 A 
ATOM      4  C   UNL     1       5.831   6.200  15.791  0.00  0.00    +0.000 A 
ATOM      5  C   UNL     1       6.419   5.244  14.963  0.00  0.00    +0.000 A 
ATOM      6  C   UNL     1       6.002   3.925  15.048  0.00  0.00    +0.000 A 
ATOM      7  C   UNL     1       5.005   3.570  15.969  0.00  0.00    +0.000 A 
ATOM      8  C   UNL     1       4.409   4.512  16.801  0.00  0.00    +0.000 A 
ATOM      9  N   UNL     1       3.452   4.128  17.683  0.00  0.00    +0.000 NA
ATOM     10  C   UNL     1       2.886   5.083  18.457  0.00  0.00    +0.000 A 
ENDROOT
BRANCH  10  11
ATOM     11  N   UNL     1       1.926   4.719  19.408  0.00  0.00    +0.000 N 
ATOM     12  C   UNL     1       2.197   4.981  20.825  0.00  0.00    +0.000 C 
ATOM     13  C   UNL     1       2.413   3.706  21.641  0.00  0.00    +0.000 C 
ATOM     14  C   UNL     1       1.321   2.673  21.387  0.00  0.00    +0.000 C 
ATOM     15  C   UNL     1       1.267   2.363  19.907  0.00  0.00    +0.000 C 
ATOM     16  C   UNL     1       1.007   3.622  19.099  0.00  0.00    +0.000 C 
ENDBRANCH  10  11
BRANCH   1  17
ATOM     17  N   UNL     1       2.910   7.471  19.183  0.00  0.00    +0.000 N 
ATOM     18  H   UNL     1       2.457   7.104  20.019  0.00  0.00    +0.000 HD
BRANCH  17  20
ATOM     19  O   UNL     1       2.629   9.617  17.762  0.00  0.00    +0.000 OA
ATOM     20  S   UNL     1       1.884   8.572  18.428  0.00  0.00    +0.000 S 
ATOM     21  O   UNL     1       0.952   7.751  17.677  0.00  0.00    +0.000 OA
BRANCH  20  22
ATOM     22  C   UNL     1       0.986   9.312  19.746  0.00  0.00    +0.000 A 
ATOM     23  C   UNL     1       0.845   8.606  20.945  0.00  0.00    +0.000 A 
ATOM     24  C   UNL     1       0.322   9.254  22.061  0.00  0.00    +0.000 A 
ATOM     25  C   UNL     1      -0.046  10.596  21.971  0.00  0.00    +0.000 A 
ATOM     26  C   UNL     1       0.112  11.298  20.768  0.00  0.00    +0.000 A 
ATOM     27  C   UNL     1       0.618  10.655  19.645  0.00  0.00    +0.000 A 
ATOM     28  O   UNL     1      -0.182  12.628  20.626  0.00  0.00    +0.000 OA
ATOM     29  C   UNL     1      -0.294  13.268  21.901  0.00  0.00    +0.000 C 
ATOM     30  C   UNL     1      -1.150  12.435  22.842  0.00  0.00    +0.000 C 
ATOM     31  O   UNL     1      -0.531  11.173  23.116  0.00  0.00    +0.000 OA
ENDBRANCH  20  22
ENDBRANCH  17  20
ENDBRANCH   1  17
TORSDOF 4
ENDMDL
MODEL 2
REMARK VINA RESULT:      -8.6      3.349      8.472
REMARK  Name = 
REMARK  4 active torsions:
REMARK  status: ('A' for Active; 'I' for Inactive)
REMARK    1  A    between atoms: S_2  and  N_4
REMARK    2  A    between atoms: S_2  and  C_21
REMARK    3  A    between atoms: N_4  and  C_5
REMARK    4  A    between atoms: C_14  and  N_15
REMARK                            x       y       z     vdW  Elec       q    Type
REMARK                         _______ _______ _______ _____ _____    ______ ____
ROOT
ATOM      1  C   UNL     1      -0.191  10.758  19.630  0.00  0.00    +0.000 A 
ATOM      2  N   UNL     1      -0.501  10.207  18.439  0.00  0.00    +0.000 NA
ATOM      3  C   UNL     1      -1.708  10.529  17.955  0.00  0.00    +0.000 A 
ATOM      4  C   UNL     1      -2.109   9.983  16.740  0.00  0.00    +0.000 A 
ATOM      5  C   UNL     1      -3.352  10.279  16.182  0.00  0.00    +0.000 A 
ATOM      6  C   UNL     1      -4.211  11.136  16.853  0.00  0.00    +0.000 A 
ATOM      7  C   UNL     1      -3.823  11.683  18.085  0.00  0.00    +0.000 A 
ATOM      8  C   UNL     1      -2.586  11.398  18.655  0.00  0.00    +0.000 A 
ATOM      9  N   UNL     1      -2.249  11.942  19.851  0.00  0.00    +0.000 NA
ATOM     10  C   UNL     1      -1.027  11.652  20.357  0.00  0.00    +0.000 A 
ENDROOT
BRANCH  10  11
ATOM     11  N   UNL     1      -0.661  12.161  21.608  0.00  0.00    +0.000 N 
ATOM     12  C   UNL     1      -1.382  11.698  22.799  0.00  0.00    +0.000 C 
ATOM     13  C   UNL     1      -2.248  12.785  23.436  0.00  0.00    +0.000 C 
ATOM     14  C   UNL     1      -1.483  14.088  23.627  0.00  0.00    +0.000 C 
ATOM     15  C   UNL     1      -0.942  14.546  22.290  0.00  0.00    +0.000 C 
ATOM     16  C   UNL     1      -0.044  13.486  21.678  0.00  0.00    +0.000 C 
ENDBRANCH  10  11
BRANCH   1  17
ATOM     17  N   UNL     1       1.061  10.304  20.132  0.00  0.00    +0.000 N 
ATOM     18  H   UNL     1       1.739  10.180  19.380  0.00  0.00    +0.000 HD
BRANCH  17  20
ATOM     19  O   UNL     1       1.773   8.974  22.236  0.00  0.00    +0.000 OA
ATOM     20  S   UNL     1       0.967   8.889  21.039  0.00  0.00    +0.000 S 
ATOM     21  O   UNL     1      -0.454   8.607  21.137  0.00  0.00    +0.000 OA
BRANCH  20  22
ATOM     22  C   UNL     1       1.676   7.656  20.005  0.00  0.00    +0.000 A 
ATOM     23  C   UNL     1       2.252   8.044  18.791  0.00  0.00    +0.000 A 
ATOM     24  C   UNL     1       2.996   7.120  18.062  0.00  0.00    +0.000 A 
ATOM     25  C   UNL     1       3.161   5.826  18.554  0.00  0.00    +0.000 A 
ATOM     26  C   UNL     1       2.591   5.451  19.778  0.00  0.00    +0.000 A 
ATOM     27  C   UNL     1       1.833   6.361  20.504  0.00  0.00    +0.000 A 
ATOM     28  O   UNL     1       2.757   4.213  20.340  0.00  0.00    +0.000 OA
ATOM     29  C   UNL     1       3.854   3.519  19.739  0.00  0.00    +0.000 C 
ATOM     30  C   UNL     1       3.783   3.620  18.224  0.00  0.00    +0.000 C 
ATOM     31  O   UNL     1       3.926   4.979  17.794  0.00  0.00    +0.000 OA
ENDBRANCH  20  22
ENDBRANCH  17  20
ENDBRANCH   1  17
TORSDOF 4
ENDMDL
MODEL 3
REMARK VINA RESULT:      -8.4      0.800      1.397
REMARK  Name = 
REMARK  4 active torsions:
REMARK  status: ('A' for Active; 'I' for Inactive)
REMARK    1  A    between atoms: S_2  and  N_4
REMARK    2  A    between atoms: S_2  and  C_21
REMARK    3  A    between atoms: N_4  and  C_5
REMARK    4  A    between atoms: C_14  and  N_15
REMARK                            x       y       z     vdW  Elec       q    Type
REMARK                         _______ _______ _______ _____ _____    ______ ____
ROOT
ATOM      1  C   UNL     1       3.178   6.517  18.270  0.00  0.00    +0.000 A 
ATOM      2  N   UNL     1       4.104   6.918  17.376  0.00  0.00    +0.000 NA
ATOM      3  C   UNL     1       4.757   5.934  16.746  0.00  0.00    +0.000 A 
ATOM      4  C   UNL     1       5.743   6.268  15.823  0.00  0.00    +0.000 A 
ATOM      5  C   UNL     1       6.459   5.290  15.133  0.00  0.00    +0.000 A 
ATOM      6  C   UNL     1       6.184   3.953  15.371  0.00  0.00    +0.000 A 
ATOM      7  C   UNL     1       5.200   3.602  16.308  0.00  0.00    +0.000 A 
ATOM      8  C   UNL     1       4.478   4.566  17.005  0.00  0.00    +0.000 A 
ATOM      9  N   UNL     1       3.539   4.187  17.907  0.00  0.00    +0.000 NA
ATOM     10  C   UNL     1       2.847   5.159  18.546  0.00  0.00    +0.000 A 
ENDROOT
BRANCH  10  11
ATOM     11  N   UNL     1       1.899   4.807  19.514  0.00  0.00    +0.000 N 
ATOM     12  C   UNL     1       2.221   5.019  20.930  0.00  0.00    +0.000 C 
ATOM     13  C   UNL     1       2.407   3.714  21.704  0.00  0.00    +0.000 C 
ATOM     14  C   UNL     1       1.267   2.733  21.455  0.00  0.00    +0.000 C 
ATOM     15  C   UNL     1       1.159   2.467  19.969  0.00  0.00    +0.000 C 
ATOM     16  C   UNL     1       0.928   3.757  19.203  0.00  0.00    +0.000 C 
ENDBRANCH  10  11
BRANCH   1  17
ATOM     17  N   UNL     1       2.588   7.605  18.972  0.00  0.00    +0.000 N 
ATOM     18  H   UNL     1       1.944   7.277  19.691  0.00  0.00    +0.000 HD
BRANCH  17  20
ATOM     19  O   UNL     1       2.744   9.549  17.269  0.00  0.00    +0.000 OA
ATOM     20  S   UNL     1       1.800   8.716  17.981  0.00  0.00    +0.000 S 
ATOM     21  O   UNL     1       0.824   7.931  17.249  0.00  0.00    +0.000 OA
BRANCH  20  22
ATOM     22  C   UNL     1       0.914   9.747  19.096  0.00  0.00    +0.000 A 
ATOM     23  C   UNL     1      -0.051  10.621  18.584  0.00  0.00    +0.000 A 
ATOM     24  C   UNL     1      -0.901  11.288  19.461  0.00  0.00    +0.000 A 
ATOM     25  C   UNL     1      -0.785  11.073  20.833  0.00  0.00    +0.000 A 
ATOM     26  C   UNL     1       0.177  10.186  21.335  0.00  0.00    +0.000 A 
ATOM     27  C   UNL     1       1.041   9.528  20.469  0.00  0.00    +0.000 A 
ATOM     28  O   UNL     1       0.310   9.892  22.667  0.00  0.00    +0.000 OA
ATOM     29  C   UNL     1      -0.854  10.286  23.399  0.00  0.00    +0.000 C 
ATOM     30  C   UNL     1      -1.277  11.693  23.009  0.00  0.00    +0.000 C 
ATOM     31  O   UNL     1      -1.671  11.747  21.633  0.00  0.00    +0.000 OA
ENDBRANCH  20  22
ENDBRANCH  17  20
ENDBRANCH   1  17
TORSDOF 4
ENDMDL
MODEL 4
REMARK VINA RESULT:      -8.3      2.494      3.223
REMARK  Name = 
REMARK  4 active torsions:
REMARK  status: ('A' for Active; 'I' for Inactive)
REMARK    1  A    between atoms: S_2  and  N_4
REMARK    2  A    between atoms: S_2  and  C_21
REMARK    3  A    between atoms: N_4  and  C_5
REMARK    4  A    between atoms: C_14  and  N_15
REMARK                            x       y       z     vdW  Elec       q    Type
REMARK                         _______ _______ _______ _____ _____    ______ ____
ROOT
ATOM      1  C   UNL     1       2.896   6.804  18.056  0.00  0.00    +0.000 A 
ATOM      2  N   UNL     1       3.941   7.434  17.484  0.00  0.00    +0.000 NA
ATOM      3  C   UNL     1       5.127   6.828  17.629  0.00  0.00    +0.000 A 
ATOM      4  C   UNL     1       6.257   7.427  17.085  0.00  0.00    +0.000 A 
ATOM      5  C   UNL     1       7.519   6.846  17.201  0.00  0.00    +0.000 A 
ATOM      6  C   UNL     1       7.654   5.643  17.876  0.00  0.00    +0.000 A 
ATOM      7  C   UNL     1       6.523   5.034  18.441  0.00  0.00    +0.000 A 
ATOM      8  C   UNL     1       5.257   5.601  18.334  0.00  0.00    +0.000 A 
ATOM      9  N   UNL     1       4.189   4.985  18.899  0.00  0.00    +0.000 NA
ATOM     10  C   UNL     1       2.973   5.563  18.751  0.00  0.00    +0.000 A 
ENDROOT
BRANCH  10  11
ATOM     11  N   UNL     1       1.855   4.979  19.355  0.00  0.00    +0.000 N 
ATOM     12  C   UNL     1       1.697   5.089  20.809  0.00  0.00    +0.000 C 
ATOM     13  C   UNL     1       1.863   3.753  21.534  0.00  0.00    +0.000 C 
ATOM     14  C   UNL     1       1.037   2.646  20.891  0.00  0.00    +0.000 C 
ATOM     15  C   UNL     1       1.425   2.520  19.434  0.00  0.00    +0.000 C 
ATOM     16  C   UNL     1       1.217   3.835  18.703  0.00  0.00    +0.000 C 
ENDBRANCH  10  11
BRANCH   1  17
ATOM     17  N   UNL     1       1.686   7.544  17.947  0.00  0.00    +0.000 N 
ATOM     18  H   UNL     1       1.478   7.774  16.976  0.00  0.00    +0.000 HD
BRANCH  17  20
ATOM     19  O   UNL     1       1.799   8.656  20.283  0.00  0.00    +0.000 OA
ATOM     20  S   UNL     1       1.652   8.949  18.874  0.00  0.00    +0.000 S 
ATOM     21  O   UNL     1       2.581   9.848  18.216  0.00  0.00    +0.000 OA
BRANCH  20  22
ATOM     22  C   UNL     1       0.035   9.597  18.631  0.00  0.00    +0.000 A 
ATOM     23  C   UNL     1      -0.485  10.486  19.578  0.00  0.00    +0.000 A 
ATOM     24  C   UNL     1      -1.668  11.165  19.300  0.00  0.00    +0.000 A 
ATOM     25  C   UNL     1      -2.313  10.955  18.082  0.00  0.00    +0.000 A 
ATOM     26  C   UNL     1      -1.777  10.073  17.135  0.00  0.00    +0.000 A 
ATOM     27  C   UNL     1      -0.606   9.378  17.410  0.00  0.00    +0.000 A 
ATOM     28  O   UNL     1      -2.334   9.861  15.901  0.00  0.00    +0.000 OA
ATOM     29  C   UNL     1      -3.264  10.896  15.572  0.00  0.00    +0.000 C 
ATOM     30  C   UNL     1      -4.191  11.172  16.745  0.00  0.00    +0.000 C 
ATOM     31  O   UNL     1      -3.460  11.676  17.869  0.00  0.00    +0.000 OA
ENDBRANCH  20  22
ENDBRANCH  17  20
ENDBRANCH   1  17
TORSDOF 4
ENDMDL
MODEL 5
REMARK VINA RESULT:      -8.2      3.215      8.242
REMARK  Name = 
REMARK  4 active torsions:
REMARK  status: ('A' for Active; 'I' for Inactive)
REMARK    1  A    between atoms: S_2  and  N_4
REMARK    2  A    between atoms: S_2  and  C_21
REMARK    3  A    between atoms: N_4  and  C_5
REMARK    4  A    between atoms: C_14  and  N_15
REMARK                            x       y       z     vdW  Elec       q    Type
REMARK                         _______ _______ _______ _____ _____    ______ ____
ROOT
ATOM      1  C   UNL     1      -0.133  10.416  19.362  0.00  0.00    +0.000 A 
ATOM      2  N   UNL     1      -0.500   9.903  18.171  0.00  0.00    +0.000 NA
ATOM      3  C   UNL     1      -1.683  10.324  17.704  0.00  0.00    +0.000 A 
ATOM      4  C   UNL     1      -2.141   9.823  16.490  0.00  0.00    +0.000 A 
ATOM      5  C   UNL     1      -3.362  10.222  15.950  0.00  0.00    +0.000 A 
ATOM      6  C   UNL     1      -4.142  11.139  16.638  0.00  0.00    +0.000 A 
ATOM      7  C   UNL     1      -3.697  11.643  17.869  0.00  0.00    +0.000 A 
ATOM      8  C   UNL     1      -2.480  11.254  18.422  0.00  0.00    +0.000 A 
ATOM      9  N   UNL     1      -2.087  11.759  19.618  0.00  0.00    +0.000 NA
ATOM     10  C   UNL     1      -0.887  11.368  20.106  0.00  0.00    +0.000 A 
ENDROOT
BRANCH  10  11
ATOM     11  N   UNL     1      -0.467  11.836  21.356  0.00  0.00    +0.000 N 
ATOM     12  C   UNL     1      -1.233  11.455  22.548  0.00  0.00    +0.000 C 
ATOM     13  C   UNL     1      -1.975  12.631  23.184  0.00  0.00    +0.000 C 
ATOM     14  C   UNL     1      -1.072  13.843  23.374  0.00  0.00    +0.000 C 
ATOM     15  C   UNL     1      -0.486  14.238  22.036  0.00  0.00    +0.000 C 
ATOM     16  C   UNL     1       0.291  13.086  21.425  0.00  0.00    +0.000 C 
ENDBRANCH  10  11
BRANCH   1  17
ATOM     17  N   UNL     1       1.084   9.860  19.845  0.00  0.00    +0.000 N 
ATOM     18  H   UNL     1       1.632   9.452  19.088  0.00  0.00    +0.000 HD
BRANCH  17  20
ATOM     19  O   UNL     1       1.501   9.151  22.300  0.00  0.00    +0.000 OA
ATOM     20  S   UNL     1       0.882   8.719  21.067  0.00  0.00    +0.000 S 
ATOM     21  O   UNL     1      -0.532   8.394  21.038  0.00  0.00    +0.000 OA
BRANCH  20  22
ATOM     22  C   UNL     1       1.758   7.305  20.498  0.00  0.00    +0.000 A 
ATOM     23  C   UNL     1       1.393   6.045  20.984  0.00  0.00    +0.000 A 
ATOM     24  C   UNL     1       1.930   4.904  20.394  0.00  0.00    +0.000 A 
ATOM     25  C   UNL     1       2.816   5.032  19.325  0.00  0.00    +0.000 A 
ATOM     26  C   UNL     1       3.164   6.298  18.837  0.00  0.00    +0.000 A 
ATOM     27  C   UNL     1       2.646   7.443  19.430  0.00  0.00    +0.000 A 
ATOM     28  O   UNL     1       3.988   6.491  17.759  0.00  0.00    +0.000 OA
ATOM     29  C   UNL     1       4.125   5.289  16.996  0.00  0.00    +0.000 C 
ATOM     30  C   UNL     1       4.396   4.105  17.909  0.00  0.00    +0.000 C 
ATOM     31  O   UNL     1       3.285   3.864  18.780  0.00  0.00    +0.000 OA
ENDBRANCH  20  22
ENDBRANCH  17  20
ENDBRANCH   1  17
TORSDOF 4
ENDMDL
MODEL 6
REMARK VINA RESULT:      -8.0      0.822      1.051
REMARK  Name = 
REMARK  4 active torsions:
REMARK  status: ('A' for Active; 'I' for Inactive)
REMARK    1  A    between atoms: S_2  and  N_4
REMARK    2  A    between atoms: S_2  and  C_21
REMARK    3  A    between atoms: N_4  and  C_5
REMARK    4  A    between atoms: C_14  and  N_15
REMARK                            x       y       z     vdW  Elec       q    Type
REMARK                         _______ _______ _______ _____ _____    ______ ____
ROOT
ATOM      1  C   UNL     1       3.879   6.098  18.276  0.00  0.00    +0.000 A 
ATOM      2  N   UNL     1       4.400   6.577  17.129  0.00  0.00    +0.000 NA
ATOM      3  C   UNL     1       4.987   5.667  16.341  0.00  0.00    +0.000 A 
ATOM      4  C   UNL     1       5.568   6.088  15.149  0.00  0.00    +0.000 A 
ATOM      5  C   UNL     1       6.192   5.191  14.284  0.00  0.00    +0.000 A 
ATOM      6  C   UNL     1       6.238   3.846  14.618  0.00  0.00    +0.000 A 
ATOM      7  C   UNL     1       5.667   3.410  15.823  0.00  0.00    +0.000 A 
ATOM      8  C   UNL     1       5.040   4.294  16.697  0.00  0.00    +0.000 A 
ATOM      9  N   UNL     1       4.504   3.835  17.855  0.00  0.00    +0.000 NA
ATOM     10  C   UNL     1       3.887   4.728  18.664  0.00  0.00    +0.000 A 
ENDROOT
BRANCH  10  11
ATOM     11  N   UNL     1       3.359   4.298  19.887  0.00  0.00    +0.000 N 
ATOM     12  C   UNL     1       3.520   2.892  20.273  0.00  0.00    +0.000 C 
ATOM     13  C   UNL     1       2.202   2.117  20.277  0.00  0.00    +0.000 C 
ATOM     14  C   UNL     1       1.104   2.858  21.031  0.00  0.00    +0.000 C 
ATOM     15  C   UNL     1       0.920   4.229  20.418  0.00  0.00    +0.000 C 
ATOM     16  C   UNL     1       2.218   5.017  20.455  0.00  0.00    +0.000 C 
ENDBRANCH  10  11
BRANCH   1  17
ATOM     17  N   UNL     1       3.356   7.125  19.110  0.00  0.00    +0.000 N 
ATOM     18  H   UNL     1       2.974   6.742  19.975  0.00  0.00    +0.000 HD
BRANCH  17  20
ATOM     19  O   UNL     1       2.804   9.158  17.605  0.00  0.00    +0.000 OA
ATOM     20  S   UNL     1       2.194   8.090  18.366  0.00  0.00    +0.000 S 
ATOM     21  O   UNL     1       1.297   7.153  17.716  0.00  0.00    +0.000 OA
BRANCH  20  22
ATOM     22  C   UNL     1       1.311   8.822  19.700  0.00  0.00    +0.000 A 
ATOM     23  C   UNL     1       1.419   8.252  20.973  0.00  0.00    +0.000 A 
ATOM     24  C   UNL     1       0.900   8.933  22.071  0.00  0.00    +0.000 A 
ATOM     25  C   UNL     1       0.288  10.172  21.889  0.00  0.00    +0.000 A 
ATOM     26  C   UNL     1       0.197  10.740  20.611  0.00  0.00    +0.000 A 
ATOM     27  C   UNL     1       0.697  10.061  19.507  0.00  0.00    +0.000 A 
ATOM     28  O   UNL     1      -0.346  11.974  20.371  0.00  0.00    +0.000 OA
ATOM     29  C   UNL     1      -0.446  12.735  21.578  0.00  0.00    +0.000 C 
ATOM     30  C   UNL     1      -1.040  11.890  22.694  0.00  0.00    +0.000 C 
ATOM     31  O   UNL     1      -0.179  10.793  23.019  0.00  0.00    +0.000 OA
ENDBRANCH  20  22
ENDBRANCH  17  20
ENDBRANCH   1  17
TORSDOF 4
ENDMDL
MODEL 7
REMARK VINA RESULT:      -7.9      1.053      4.057
REMARK  Name = 
REMARK  4 active torsions:
REMARK  status: ('A' for Active; 'I' for Inactive)
REMARK    1  A    between atoms: S_2  and  N_4
REMARK    2  A    between atoms: S_2  and  C_21
REMARK    3  A    between atoms: N_4  and  C_5
REMARK    4  A    between atoms: C_14  and  N_15
REMARK                            x       y       z     vdW  Elec       q    Type
REMARK                         _______ _______ _______ _____ _____    ______ ____
ROOT
ATOM      1  C   UNL     1       3.295   6.171  18.666  0.00  0.00    +0.000 A 
ATOM      2  N   UNL     1       2.241   5.724  19.377  0.00  0.00    +0.000 NA
ATOM      3  C   UNL     1       1.989   4.413  19.268  0.00  0.00    +0.000 A 
ATOM      4  C   UNL     1       0.904   3.880  19.956  0.00  0.00    +0.000 A 
ATOM      5  C   UNL     1       0.589   2.524  19.885  0.00  0.00    +0.000 A 
ATOM      6  C   UNL     1       1.374   1.685  19.109  0.00  0.00    +0.000 A 
ATOM      7  C   UNL     1       2.464   2.212  18.401  0.00  0.00    +0.000 A 
ATOM      8  C   UNL     1       2.791   3.563  18.461  0.00  0.00    +0.000 A 
ATOM      9  N   UNL     1       3.849   4.036  17.757  0.00  0.00    +0.000 NA
ATOM     10  C   UNL     1       4.141   5.354  17.863  0.00  0.00    +0.000 A 
ENDROOT
BRANCH  10  11
ATOM     11  N   UNL     1       5.200   5.886  17.119  0.00  0.00    +0.000 N 
ATOM     12  C   UNL     1       5.017   6.098  15.679  0.00  0.00    +0.000 C 
ATOM     13  C   UNL     1       5.864   5.156  14.822  0.00  0.00    +0.000 C 
ATOM     14  C   UNL     1       7.318   5.121  15.276  0.00  0.00    +0.000 C 
ATOM     15  C   UNL     1       7.373   4.718  16.733  0.00  0.00    +0.000 C 
ATOM     16  C   UNL     1       6.570   5.679  17.591  0.00  0.00    +0.000 C 
ENDBRANCH  10  11
BRANCH   1  17
ATOM     17  N   UNL     1       3.452   7.583  18.749  0.00  0.00    +0.000 N 
ATOM     18  H   UNL     1       3.654   7.877  19.704  0.00  0.00    +0.000 HD
BRANCH  17  20
ATOM     19  O   UNL     1       2.571   9.638  17.445  0.00  0.00    +0.000 OA
ATOM     20  S   UNL     1       2.140   8.458  18.160  0.00  0.00    +0.000 S 
ATOM     21  O   UNL     1       1.305   7.471  17.500  0.00  0.00    +0.000 OA
BRANCH  20  22
ATOM     22  C   UNL     1       1.283   8.989  19.601  0.00  0.00    +0.000 A 
ATOM     23  C   UNL     1       1.549   8.352  20.817  0.00  0.00    +0.000 A 
ATOM     24  C   UNL     1       1.041   8.891  21.995  0.00  0.00    +0.000 A 
ATOM     25  C   UNL     1       0.281  10.059  21.949  0.00  0.00    +0.000 A 
ATOM     26  C   UNL     1       0.032  10.697  20.727  0.00  0.00    +0.000 A 
ATOM     27  C   UNL     1       0.521  10.158  19.543  0.00  0.00    +0.000 A 
ATOM     28  O   UNL     1      -0.663  11.873  20.617  0.00  0.00    +0.000 OA
ATOM     29  C   UNL     1      -0.757  12.534  21.882  0.00  0.00    +0.000 C 
ATOM     30  C   UNL     1      -1.167  11.551  22.968  0.00  0.00    +0.000 C 
ATOM     31  O   UNL     1      -0.166  10.543  23.151  0.00  0.00    +0.000 OA
ENDBRANCH  20  22
ENDBRANCH  17  20
ENDBRANCH   1  17
TORSDOF 4
ENDMDL
MODEL 8
REMARK VINA RESULT:      -7.9      1.510      1.577
REMARK  Name = 
REMARK  4 active torsions:
REMARK  status: ('A' for Active; 'I' for Inactive)
REMARK    1  A    between atoms: S_2  and  N_4
REMARK    2  A    between atoms: S_2  and  C_21
REMARK    3  A    between atoms: N_4  and  C_5
REMARK    4  A    between atoms: C_14  and  N_15
REMARK                            x       y       z     vdW  Elec       q    Type
REMARK                         _______ _______ _______ _____ _____    ______ ____
ROOT
ATOM      1  C   UNL     1       2.993   6.527  18.189  0.00  0.00    +0.000 A 
ATOM      2  N   UNL     1       3.997   7.144  17.534  0.00  0.00    +0.000 NA
ATOM      3  C   UNL     1       5.224   6.670  17.788  0.00  0.00    +0.000 A 
ATOM      4  C   UNL     1       6.315   7.268  17.167  0.00  0.00    +0.000 A 
ATOM      5  C   UNL     1       7.617   6.821  17.388  0.00  0.00    +0.000 A 
ATOM      6  C   UNL     1       7.831   5.755  18.248  0.00  0.00    +0.000 A 
ATOM      7  C   UNL     1       6.740   5.151  18.890  0.00  0.00    +0.000 A 
ATOM      8  C   UNL     1       5.435   5.585  18.680  0.00  0.00    +0.000 A 
ATOM      9  N   UNL     1       4.407   4.979  19.325  0.00  0.00    +0.000 NA
ATOM     10  C   UNL     1       3.153   5.423  19.073  0.00  0.00    +0.000 A 
ENDROOT
BRANCH  10  11
ATOM     11  N   UNL     1       2.072   4.849  19.751  0.00  0.00    +0.000 N 
ATOM     12  C   UNL     1       2.075   4.848  21.218  0.00  0.00    +0.000 C 
ATOM     13  C   UNL     1       2.236   3.450  21.815  0.00  0.00    +0.000 C 
ATOM     14  C   UNL     1       1.280   2.444  21.185  0.00  0.00    +0.000 C 
ATOM     15  C   UNL     1       1.504   2.419  19.689  0.00  0.00    +0.000 C 
ATOM     16  C   UNL     1       1.300   3.798  19.087  0.00  0.00    +0.000 C 
ENDBRANCH  10  11
BRANCH   1  17
ATOM     17  N   UNL     1       1.729   7.137  17.950  0.00  0.00    +0.000 N 
ATOM     18  H   UNL     1       1.352   6.865  17.042  0.00  0.00    +0.000 HD
BRANCH  17  20
ATOM     19  O   UNL     1       3.091   9.332  18.128  0.00  0.00    +0.000 OA
ATOM     20  S   UNL     1       1.741   8.816  18.070  0.00  0.00    +0.000 S 
ATOM     21  O   UNL     1       0.833   9.267  17.032  0.00  0.00    +0.000 OA
BRANCH  20  22
ATOM     22  C   UNL     1       0.976   9.151  19.617  0.00  0.00    +0.000 A 
ATOM     23  C   UNL     1       1.477   8.529  20.766  0.00  0.00    +0.000 A 
ATOM     24  C   UNL     1       1.022   8.938  22.017  0.00  0.00    +0.000 A 
ATOM     25  C   UNL     1       0.081   9.963  22.108  0.00  0.00    +0.000 A 
ATOM     26  C   UNL     1      -0.404  10.589  20.951  0.00  0.00    +0.000 A 
ATOM     27  C   UNL     1       0.031  10.177  19.698  0.00  0.00    +0.000 A 
ATOM     28  O   UNL     1      -1.289  11.634  20.974  0.00  0.00    +0.000 OA
ATOM     29  C   UNL     1      -1.348  12.230  22.273  0.00  0.00    +0.000 C 
ATOM     30  C   UNL     1      -1.468  11.159  23.345  0.00  0.00    +0.000 C 
ATOM     31  O   UNL     1      -0.302  10.328  23.373  0.00  0.00    +0.000 OA
ENDBRANCH  20  22
ENDBRANCH  17  20
ENDBRANCH   1  17
TORSDOF 4
ENDMDL
MODEL 9
REMARK VINA RESULT:      -7.8      1.761      2.615
REMARK  Name = 
REMARK  4 active torsions:
REMARK  status: ('A' for Active; 'I' for Inactive)
REMARK    1  A    between atoms: S_2  and  N_4
REMARK    2  A    between atoms: S_2  and  C_21
REMARK    3  A    between atoms: N_4  and  C_5
REMARK    4  A    between atoms: C_14  and  N_15
REMARK                            x       y       z     vdW  Elec       q    Type
REMARK                         _______ _______ _______ _____ _____    ______ ____
ROOT
ATOM      1  C   UNL     1       3.054   4.779  17.807  0.00  0.00    +0.000 A 
ATOM      2  N   UNL     1       3.636   5.694  17.007  0.00  0.00    +0.000 NA
ATOM      3  C   UNL     1       4.690   5.257  16.306  0.00  0.00    +0.000 A 
ATOM      4  C   UNL     1       5.357   6.149  15.474  0.00  0.00    +0.000 A 
ATOM      5  C   UNL     1       6.460   5.755  14.716  0.00  0.00    +0.000 A 
ATOM      6  C   UNL     1       6.905   4.445  14.795  0.00  0.00    +0.000 A 
ATOM      7  C   UNL     1       6.247   3.538  15.640  0.00  0.00    +0.000 A 
ATOM      8  C   UNL     1       5.146   3.915  16.402  0.00  0.00    +0.000 A 
ATOM      9  N   UNL     1       4.541   3.011  17.212  0.00  0.00    +0.000 NA
ATOM     10  C   UNL     1       3.460   3.418  17.918  0.00  0.00    +0.000 A 
ENDROOT
BRANCH  10  11
ATOM     11  N   UNL     1       2.835   2.525  18.796  0.00  0.00    +0.000 N 
ATOM     12  C   UNL     1       1.379   2.362  18.723  0.00  0.00    +0.000 C 
ATOM     13  C   UNL     1       0.652   2.918  19.948  0.00  0.00    +0.000 C 
ATOM     14  C   UNL     1       1.277   2.438  21.252  0.00  0.00    +0.000 C 
ATOM     15  C   UNL     1       2.739   2.825  21.273  0.00  0.00    +0.000 C 
ATOM     16  C   UNL     1       3.473   2.236  20.081  0.00  0.00    +0.000 C 
ENDBRANCH  10  11
BRANCH   1  17
ATOM     17  N   UNL     1       2.003   5.329  18.593  0.00  0.00    +0.000 N 
ATOM     18  H   UNL     1       1.376   5.899  18.027  0.00  0.00    +0.000 HD
BRANCH  17  20
ATOM     19  O   UNL     1       1.872   5.805  21.135  0.00  0.00    +0.000 OA
ATOM     20  S   UNL     1       2.530   6.224  19.918  0.00  0.00    +0.000 S 
ATOM     21  O   UNL     1       3.978   6.199  19.827  0.00  0.00    +0.000 OA
BRANCH  20  22
ATOM     22  C   UNL     1       2.013   7.869  19.570  0.00  0.00    +0.000 A 
ATOM     23  C   UNL     1       2.147   8.357  18.266  0.00  0.00    +0.000 A 
ATOM     24  C   UNL     1       1.557   9.571  17.928  0.00  0.00    +0.000 A 
ATOM     25  C   UNL     1       0.836  10.280  18.888  0.00  0.00    +0.000 A 
ATOM     26  C   UNL     1       0.696   9.775  20.188  0.00  0.00    +0.000 A 
ATOM     27  C   UNL     1       1.295   8.572  20.540  0.00  0.00    +0.000 A 
ATOM     28  O   UNL     1      -0.040  10.396  21.163  0.00  0.00    +0.000 OA
ATOM     29  C   UNL     1      -0.922  11.370  20.599  0.00  0.00    +0.000 C 
ATOM     30  C   UNL     1      -0.185  12.236  19.589  0.00  0.00    +0.000 C 
ATOM     31  O   UNL     1       0.264  11.455  18.476  0.00  0.00    +0.000 OA
ENDBRANCH  20  22
ENDBRANCH  17  20
ENDBRANCH   1  17
TORSDOF 4
ENDMDL
