MODEL 1
REMARK VINA RESULT:      -8.9      0.000      0.000
REMARK  Name = 
REMARK  4 active torsions:
REMARK  status: ('A' for Active; 'I' for Inactive)
REMARK    1  A    between atoms: C_2  and  C_3
REMARK    2  A    between atoms: C_3  and  C_4
REMARK    3  A    between atoms: N_14  and  C_15
REMARK    4  A    between atoms: C_18  and  C_19
REMARK                            x       y       z     vdW  Elec       q    Type
REMARK                         _______ _______ _______ _____ _____    ______ ____
ROOT
ATOM      1  O   UNL     1       4.344   3.623  19.237  0.00  0.00    +0.000 OA
ATOM      2  C   UNL     1       4.094   4.001  18.095  0.00  0.00    +0.000 C 
ATOM      3  N   UNL     1       3.270   5.067  17.756  0.00  0.00    +0.000 N 
ATOM      4  H   UNL     1       2.994   5.134  16.784  0.00  0.00    +0.000 HD
ENDROOT
BRANCH   3   5
ATOM      5  C   UNL     1       2.637   5.956  18.653  0.00  0.00    +0.000 A 
ATOM      6  C   UNL     1       2.528   7.330  18.434  0.00  0.00    +0.000 A 
ATOM      7  C   UNL     1       1.948   8.166  19.399  0.00  0.00    +0.000 A 
ATOM      8  C   UNL     1       1.462   7.647  20.605  0.00  0.00    +0.000 A 
ATOM      9  C   UNL     1       1.517   6.259  20.795  0.00  0.00    +0.000 A 
ATOM     10  C   UNL     1       2.090   5.423  19.825  0.00  0.00    +0.000 A 
BRANCH   8  11
ATOM     11  C   UNL     1       0.948   8.550  21.629  0.00  0.00    +0.000 A 
ATOM     12  N   UNL     1       1.591   9.336  22.472  0.00  0.00    +0.000 NA
ATOM     13  N   UNL     1       0.632   9.930  23.268  0.00  0.00    +0.000 NA
ATOM     14  C   UNL     1      -0.521   9.465  22.851  0.00  0.00    +0.000 A 
ATOM     15  O   UNL     1      -0.412   8.588  21.815  0.00  0.00    +0.000 OA
ENDBRANCH   8  11
ENDBRANCH   3   5
BRANCH   2  16
ATOM     16  C   UNL     1       4.718   3.307  16.890  0.00  0.00    +0.000 C 
BRANCH  16  17
ATOM     17  C   UNL     1       5.742   4.131  16.171  0.00  0.00    +0.000 A 
ATOM     18  C   UNL     1       6.654   4.985  16.765  0.00  0.00    +0.000 A 
ATOM     19  N   UNL     1       7.466   5.502  15.793  0.00  0.00    +0.000 N 
ATOM     20  C   UNL     1       7.114   5.002  14.562  0.00  0.00    +0.000 A 
ATOM     21  C   UNL     1       7.672   5.242  13.301  0.00  0.00    +0.000 A 
ATOM     22  C   UNL     1       7.112   4.570  12.216  0.00  0.00    +0.000 A 
ATOM     23  F   UNL     1       7.619   4.771  10.991  0.00  0.00    +0.000 F 
ATOM     24  C   UNL     1       6.044   3.696  12.370  0.00  0.00    +0.000 A 
ATOM     25  C   UNL     1       5.500   3.466  13.642  0.00  0.00    +0.000 A 
ATOM     26  C   UNL     1       6.036   4.134  14.764  0.00  0.00    +0.000 A 
ATOM     27  H   UNL     1       8.237   6.138  15.951  0.00  0.00    +0.000 HD
ENDBRANCH  16  17
ENDBRANCH   2  16
TORSDOF 4
ENDMDL
MODEL 2
REMARK VINA RESULT:      -8.5      6.535      8.018
REMARK  Name = 
REMARK  4 active torsions:
REMARK  status: ('A' for Active; 'I' for Inactive)
REMARK    1  A    between atoms: C_2  and  C_3
REMARK    2  A    between atoms: C_3  and  C_4
REMARK    3  A    between atoms: N_14  and  C_15
REMARK    4  A    between atoms: C_18  and  C_19
REMARK                            x       y       z     vdW  Elec       q    Type
REMARK                         _______ _______ _______ _____ _____    ______ ____
ROOT
ATOM      1  O   UNL     1       7.594   7.926  17.031  0.00  0.00    +0.000 OA
ATOM      2  C   UNL     1       8.018   7.616  18.142  0.00  0.00    +0.000 C 
ATOM      3  N   UNL     1       8.688   8.460  19.018  0.00  0.00    +0.000 N 
ATOM      4  H   UNL     1       9.155   8.021  19.802  0.00  0.00    +0.000 HD
ENDROOT
BRANCH   3   5
ATOM      5  C   UNL     1       8.936   9.839  18.830  0.00  0.00    +0.000 A 
ATOM      6  C   UNL     1       8.357  10.598  17.812  0.00  0.00    +0.000 A 
ATOM      7  C   UNL     1       8.700  11.946  17.640  0.00  0.00    +0.000 A 
ATOM      8  C   UNL     1       9.630  12.567  18.482  0.00  0.00    +0.000 A 
ATOM      9  C   UNL     1      10.163  11.819  19.540  0.00  0.00    +0.000 A 
ATOM     10  C   UNL     1       9.812  10.472  19.718  0.00  0.00    +0.000 A 
BRANCH   8  11
ATOM     11  C   UNL     1      10.038  13.944  18.223  0.00  0.00    +0.000 A 
ATOM     12  N   UNL     1      11.234  14.499  18.260  0.00  0.00    +0.000 NA
ATOM     13  N   UNL     1      11.055  15.842  17.993  0.00  0.00    +0.000 NA
ATOM     14  C   UNL     1       9.767  16.004  17.811  0.00  0.00    +0.000 A 
ATOM     15  O   UNL     1       9.049  14.854  17.935  0.00  0.00    +0.000 OA
ENDBRANCH   8  11
ENDBRANCH   3   5
BRANCH   2  16
ATOM     16  C   UNL     1       7.810   6.210  18.691  0.00  0.00    +0.000 C 
BRANCH  16  17
ATOM     17  C   UNL     1       6.898   5.357  17.863  0.00  0.00    +0.000 A 
ATOM     18  C   UNL     1       7.295   4.483  16.866  0.00  0.00    +0.000 A 
ATOM     19  N   UNL     1       6.189   3.833  16.390  0.00  0.00    +0.000 N 
ATOM     20  C   UNL     1       5.064   4.256  17.056  0.00  0.00    +0.000 A 
ATOM     21  C   UNL     1       3.729   3.859  16.910  0.00  0.00    +0.000 A 
ATOM     22  C   UNL     1       2.789   4.455  17.750  0.00  0.00    +0.000 A 
ATOM     23  F   UNL     1       1.501   4.100  17.643  0.00  0.00    +0.000 F 
ATOM     24  C   UNL     1       3.153   5.403  18.696  0.00  0.00    +0.000 A 
ATOM     25  C   UNL     1       4.495   5.787  18.830  0.00  0.00    +0.000 A 
ATOM     26  C   UNL     1       5.475   5.211  17.992  0.00  0.00    +0.000 A 
ATOM     27  H   UNL     1       6.192   3.121  15.671  0.00  0.00    +0.000 HD
ENDBRANCH  16  17
ENDBRANCH   2  16
TORSDOF 4
ENDMDL
MODEL 3
REMARK VINA RESULT:      -8.4      0.980      1.411
REMARK  Name = 
REMARK  4 active torsions:
REMARK  status: ('A' for Active; 'I' for Inactive)
REMARK    1  A    between atoms: C_2  and  C_3
REMARK    2  A    between atoms: C_3  and  C_4
REMARK    3  A    between atoms: N_14  and  C_15
REMARK    4  A    between atoms: C_18  and  C_19
REMARK                            x       y       z     vdW  Elec       q    Type
REMARK                         _______ _______ _______ _____ _____    ______ ____
ROOT
ATOM      1  O   UNL     1       4.903   5.384  19.101  0.00  0.00    +0.000 OA
ATOM      2  C   UNL     1       4.082   5.227  18.200  0.00  0.00    +0.000 C 
ATOM      3  N   UNL     1       2.827   5.817  18.135  0.00  0.00    +0.000 N 
ATOM      4  H   UNL     1       2.185   5.441  17.448  0.00  0.00    +0.000 HD
ENDROOT
BRANCH   3   5
ATOM      5  C   UNL     1       2.295   6.759  19.044  0.00  0.00    +0.000 A 
ATOM      6  C   UNL     1       1.892   6.441  20.342  0.00  0.00    +0.000 A 
ATOM      7  C   UNL     1       1.307   7.411  21.168  0.00  0.00    +0.000 A 
ATOM      8  C   UNL     1       1.114   8.722  20.717  0.00  0.00    +0.000 A 
ATOM      9  C   UNL     1       1.575   9.053  19.436  0.00  0.00    +0.000 A 
ATOM     10  C   UNL     1       2.169   8.084  18.612  0.00  0.00    +0.000 A 
BRANCH   8  11
ATOM     11  C   UNL     1       0.419   9.687  21.564  0.00  0.00    +0.000 A 
ATOM     12  N   UNL     1       0.581  10.990  21.679  0.00  0.00    +0.000 NA
ATOM     13  N   UNL     1      -0.290  11.411  22.665  0.00  0.00    +0.000 NA
ATOM     14  C   UNL     1      -0.916  10.335  23.075  0.00  0.00    +0.000 A 
ATOM     15  O   UNL     1      -0.532   9.200  22.429  0.00  0.00    +0.000 OA
ENDBRANCH   8  11
ENDBRANCH   3   5
BRANCH   2  16
ATOM     16  C   UNL     1       4.402   4.342  17.001  0.00  0.00    +0.000 C 
BRANCH  16  17
ATOM     17  C   UNL     1       5.556   4.821  16.175  0.00  0.00    +0.000 A 
ATOM     18  C   UNL     1       6.589   5.626  16.621  0.00  0.00    +0.000 A 
ATOM     19  N   UNL     1       7.487   5.790  15.601  0.00  0.00    +0.000 N 
ATOM     20  C   UNL     1       7.071   5.103  14.486  0.00  0.00    +0.000 A 
ATOM     21  C   UNL     1       7.675   4.979  13.229  0.00  0.00    +0.000 A 
ATOM     22  C   UNL     1       7.024   4.191  12.282  0.00  0.00    +0.000 A 
ATOM     23  F   UNL     1       7.571   4.045  11.067  0.00  0.00    +0.000 F 
ATOM     24  C   UNL     1       5.825   3.549  12.565  0.00  0.00    +0.000 A 
ATOM     25  C   UNL     1       5.236   3.684  13.830  0.00  0.00    +0.000 A 
ATOM     26  C   UNL     1       5.862   4.480  14.813  0.00  0.00    +0.000 A 
ATOM     27  H   UNL     1       8.350   6.314  15.659  0.00  0.00    +0.000 HD
ENDBRANCH  16  17
ENDBRANCH   2  16
TORSDOF 4
ENDMDL
MODEL 4
REMARK VINA RESULT:      -8.4      2.543      3.083
REMARK  Name = 
REMARK  4 active torsions:
REMARK  status: ('A' for Active; 'I' for Inactive)
REMARK    1  A    between atoms: C_2  and  C_3
REMARK    2  A    between atoms: C_3  and  C_4
REMARK    3  A    between atoms: N_14  and  C_15
REMARK    4  A    between atoms: C_18  and  C_19
REMARK                            x       y       z     vdW  Elec       q    Type
REMARK                         _______ _______ _______ _____ _____    ______ ____
ROOT
ATOM      1  O   UNL     1       1.639   4.804  18.195  0.00  0.00    +0.000 OA
ATOM      2  C   UNL     1       2.722   5.068  18.713  0.00  0.00    +0.000 C 
ATOM      3  N   UNL     1       3.116   6.316  19.176  0.00  0.00    +0.000 N 
ATOM      4  H   UNL     1       4.099   6.431  19.387  0.00  0.00    +0.000 HD
ENDROOT
BRANCH   3   5
ATOM      5  C   UNL     1       2.323   7.486  19.212  0.00  0.00    +0.000 A 
ATOM      6  C   UNL     1       1.685   7.954  20.362  0.00  0.00    +0.000 A 
ATOM      7  C   UNL     1       0.856   9.083  20.313  0.00  0.00    +0.000 A 
ATOM      8  C   UNL     1       0.647   9.773  19.113  0.00  0.00    +0.000 A 
ATOM      9  C   UNL     1       1.337   9.337  17.974  0.00  0.00    +0.000 A 
ATOM     10  C   UNL     1       2.174   8.211  18.026  0.00  0.00    +0.000 A 
BRANCH   8  11
ATOM     11  C   UNL     1      -0.293  10.888  19.070  0.00  0.00    +0.000 A 
ATOM     12  N   UNL     1      -1.282  11.137  18.234  0.00  0.00    +0.000 NA
ATOM     13  N   UNL     1      -1.815  12.355  18.604  0.00  0.00    +0.000 NA
ATOM     14  C   UNL     1      -1.115  12.756  19.637  0.00  0.00    +0.000 A 
ATOM     15  O   UNL     1      -0.133  11.886  20.001  0.00  0.00    +0.000 OA
ENDBRANCH   8  11
ENDBRANCH   3   5
BRANCH   2  16
ATOM     16  C   UNL     1       3.772   3.983  18.920  0.00  0.00    +0.000 C 
BRANCH  16  17
ATOM     17  C   UNL     1       5.117   4.314  18.349  0.00  0.00    +0.000 A 
ATOM     18  C   UNL     1       6.282   4.483  19.075  0.00  0.00    +0.000 A 
ATOM     19  N   UNL     1       7.313   4.703  18.202  0.00  0.00    +0.000 N 
ATOM     20  C   UNL     1       6.853   4.679  16.907  0.00  0.00    +0.000 A 
ATOM     21  C   UNL     1       7.548   4.842  15.702  0.00  0.00    +0.000 A 
ATOM     22  C   UNL     1       6.813   4.746  14.522  0.00  0.00    +0.000 A 
ATOM     23  F   UNL     1       7.443   4.894  13.348  0.00  0.00    +0.000 F 
ATOM     24  C   UNL     1       5.447   4.498  14.531  0.00  0.00    +0.000 A 
ATOM     25  C   UNL     1       4.768   4.335  15.746  0.00  0.00    +0.000 A 
ATOM     26  C   UNL     1       5.477   4.432  16.963  0.00  0.00    +0.000 A 
ATOM     27  H   UNL     1       8.281   4.836  18.460  0.00  0.00    +0.000 HD
ENDBRANCH  16  17
ENDBRANCH   2  16
TORSDOF 4
ENDMDL
MODEL 5
REMARK VINA RESULT:      -8.4      1.415      1.519
REMARK  Name = 
REMARK  4 active torsions:
REMARK  status: ('A' for Active; 'I' for Inactive)
REMARK    1  A    between atoms: C_2  and  C_3
REMARK    2  A    between atoms: C_3  and  C_4
REMARK    3  A    between atoms: N_14  and  C_15
REMARK    4  A    between atoms: C_18  and  C_19
REMARK                            x       y       z     vdW  Elec       q    Type
REMARK                         _______ _______ _______ _____ _____    ______ ____
ROOT
ATOM      1  O   UNL     1       4.723   5.614  19.530  0.00  0.00    +0.000 OA
ATOM      2  C   UNL     1       4.189   5.404  18.443  0.00  0.00    +0.000 C 
ATOM      3  N   UNL     1       3.074   6.067  17.947  0.00  0.00    +0.000 N 
ATOM      4  H   UNL     1       2.625   5.655  17.139  0.00  0.00    +0.000 HD
ENDROOT
BRANCH   3   5
ATOM      5  C   UNL     1       2.400   7.149  18.558  0.00  0.00    +0.000 A 
ATOM      6  C   UNL     1       2.047   8.320  17.885  0.00  0.00    +0.000 A 
ATOM      7  C   UNL     1       1.441   9.384  18.568  0.00  0.00    +0.000 A 
ATOM      8  C   UNL     1       1.173   9.301  19.940  0.00  0.00    +0.000 A 
ATOM      9  C   UNL     1       1.473   8.101  20.599  0.00  0.00    +0.000 A 
ATOM     10  C   UNL     1       2.071   7.033  19.912  0.00  0.00    +0.000 A 
BRANCH   8  11
ATOM     11  C   UNL     1       0.628  10.457  20.644  0.00  0.00    +0.000 A 
ATOM     12  N   UNL     1       1.243  11.429  21.289  0.00  0.00    +0.000 NA
ATOM     13  N   UNL     1       0.257  12.234  21.824  0.00  0.00    +0.000 NA
ATOM     14  C   UNL     1      -0.882  11.694  21.465  0.00  0.00    +0.000 A 
ATOM     15  O   UNL     1      -0.740  10.569  20.713  0.00  0.00    +0.000 OA
ENDBRANCH   8  11
ENDBRANCH   3   5
BRANCH   2  16
ATOM     16  C   UNL     1       4.750   4.359  17.488  0.00  0.00    +0.000 C 
BRANCH  16  17
ATOM     17  C   UNL     1       5.793   4.883  16.548  0.00  0.00    +0.000 A 
ATOM     18  C   UNL     1       6.811   5.760  16.880  0.00  0.00    +0.000 A 
ATOM     19  N   UNL     1       7.601   5.948  15.779  0.00  0.00    +0.000 N 
ATOM     20  C   UNL     1       7.129   5.208  14.721  0.00  0.00    +0.000 A 
ATOM     21  C   UNL     1       7.623   5.085  13.417  0.00  0.00    +0.000 A 
ATOM     22  C   UNL     1       6.939   4.234  12.551  0.00  0.00    +0.000 A 
ATOM     23  F   UNL     1       7.382   4.088  11.295  0.00  0.00    +0.000 F 
ATOM     24  C   UNL     1       5.813   3.531  12.958  0.00  0.00    +0.000 A 
ATOM     25  C   UNL     1       5.333   3.664  14.268  0.00  0.00    +0.000 A 
ATOM     26  C   UNL     1       5.995   4.523  15.172  0.00  0.00    +0.000 A 
ATOM     27  H   UNL     1       8.432   6.524  15.745  0.00  0.00    +0.000 HD
ENDBRANCH  16  17
ENDBRANCH   2  16
TORSDOF 4
ENDMDL
MODEL 6
REMARK VINA RESULT:      -8.3      2.279      2.610
REMARK  Name = 
REMARK  4 active torsions:
REMARK  status: ('A' for Active; 'I' for Inactive)
REMARK    1  A    between atoms: C_2  and  C_3
REMARK    2  A    between atoms: C_3  and  C_4
REMARK    3  A    between atoms: N_14  and  C_15
REMARK    4  A    between atoms: C_18  and  C_19
REMARK                            x       y       z     vdW  Elec       q    Type
REMARK                         _______ _______ _______ _____ _____    ______ ____
ROOT
ATOM      1  O   UNL     1       1.944   4.676  18.108  0.00  0.00    +0.000 OA
ATOM      2  C   UNL     1       3.037   5.054  18.524  0.00  0.00    +0.000 C 
ATOM      3  N   UNL     1       3.355   6.350  18.905  0.00  0.00    +0.000 N 
ATOM      4  H   UNL     1       4.338   6.557  19.030  0.00  0.00    +0.000 HD
ENDROOT
BRANCH   3   5
ATOM      5  C   UNL     1       2.468   7.450  18.960  0.00  0.00    +0.000 A 
ATOM      6  C   UNL     1       2.161   8.253  17.860  0.00  0.00    +0.000 A 
ATOM      7  C   UNL     1       1.327   9.371  17.999  0.00  0.00    +0.000 A 
ATOM      8  C   UNL     1       0.779   9.712  19.241  0.00  0.00    +0.000 A 
ATOM      9  C   UNL     1       1.040   8.868  20.330  0.00  0.00    +0.000 A 
ATOM     10  C   UNL     1       1.868   7.744  20.188  0.00  0.00    +0.000 A 
BRANCH   8  11
ATOM     11  C   UNL     1      -0.009  10.932  19.377  0.00  0.00    +0.000 A 
ATOM     12  N   UNL     1      -0.141  11.751  20.402  0.00  0.00    +0.000 NA
ATOM     13  N   UNL     1      -1.052  12.716  20.023  0.00  0.00    +0.000 NA
ATOM     14  C   UNL     1      -1.406  12.415  18.797  0.00  0.00    +0.000 A 
ATOM     15  O   UNL     1      -0.791  11.302  18.310  0.00  0.00    +0.000 OA
ENDBRANCH   8  11
ENDBRANCH   3   5
BRANCH   2  16
ATOM     16  C   UNL     1       4.190   4.071  18.687  0.00  0.00    +0.000 C 
BRANCH  16  17
ATOM     17  C   UNL     1       5.442   4.470  17.968  0.00  0.00    +0.000 A 
ATOM     18  C   UNL     1       6.632   4.845  18.566  0.00  0.00    +0.000 A 
ATOM     19  N   UNL     1       7.563   5.067  17.587  0.00  0.00    +0.000 N 
ATOM     20  C   UNL     1       7.013   4.841  16.347  0.00  0.00    +0.000 A 
ATOM     21  C   UNL     1       7.592   4.932  15.076  0.00  0.00    +0.000 A 
ATOM     22  C   UNL     1       6.787   4.621  13.983  0.00  0.00    +0.000 A 
ATOM     23  F   UNL     1       7.305   4.694  12.749  0.00  0.00    +0.000 F 
ATOM     24  C   UNL     1       5.462   4.235  14.138  0.00  0.00    +0.000 A 
ATOM     25  C   UNL     1       4.899   4.147  15.419  0.00  0.00    +0.000 A 
ATOM     26  C   UNL     1       5.682   4.461  16.551  0.00  0.00    +0.000 A 
ATOM     27  H   UNL     1       8.526   5.330  17.744  0.00  0.00    +0.000 HD
ENDBRANCH  16  17
ENDBRANCH   2  16
TORSDOF 4
ENDMDL
MODEL 7
REMARK VINA RESULT:      -8.3      2.173      2.545
REMARK  Name = 
REMARK  4 active torsions:
REMARK  status: ('A' for Active; 'I' for Inactive)
REMARK    1  A    between atoms: C_2  and  C_3
REMARK    2  A    between atoms: C_3  and  C_4
REMARK    3  A    between atoms: N_14  and  C_15
REMARK    4  A    between atoms: C_18  and  C_19
REMARK                            x       y       z     vdW  Elec       q    Type
REMARK                         _______ _______ _______ _____ _____    ______ ____
ROOT
ATOM      1  O   UNL     1       1.892   4.709  17.715  0.00  0.00    +0.000 OA
ATOM      2  C   UNL     1       3.013   4.966  18.147  0.00  0.00    +0.000 C 
ATOM      3  N   UNL     1       3.418   6.182  18.680  0.00  0.00    +0.000 N 
ATOM      4  H   UNL     1       4.414   6.313  18.804  0.00  0.00    +0.000 HD
ENDROOT
BRANCH   3   5
ATOM      5  C   UNL     1       2.602   7.315  18.899  0.00  0.00    +0.000 A 
ATOM      6  C   UNL     1       1.973   7.594  20.114  0.00  0.00    +0.000 A 
ATOM      7  C   UNL     1       1.120   8.699  20.243  0.00  0.00    +0.000 A 
ATOM      8  C   UNL     1       0.877   9.553  19.160  0.00  0.00    +0.000 A 
ATOM      9  C   UNL     1       1.558   9.305  17.960  0.00  0.00    +0.000 A 
ATOM     10  C   UNL     1       2.419   8.204  17.835  0.00  0.00    +0.000 A 
BRANCH   8  11
ATOM     11  C   UNL     1      -0.086  10.641  19.295  0.00  0.00    +0.000 A 
ATOM     12  N   UNL     1      -0.121  11.647  20.146  0.00  0.00    +0.000 NA
ATOM     13  N   UNL     1      -1.278  12.351  19.879  0.00  0.00    +0.000 NA
ATOM     14  C   UNL     1      -1.859  11.724  18.885  0.00  0.00    +0.000 A 
ATOM     15  O   UNL     1      -1.171  10.633  18.452  0.00  0.00    +0.000 OA
ENDBRANCH   8  11
ENDBRANCH   3   5
BRANCH   2  16
ATOM     16  C   UNL     1       4.107   3.905  18.152  0.00  0.00    +0.000 C 
BRANCH  16  17
ATOM     17  C   UNL     1       5.375   4.327  17.474  0.00  0.00    +0.000 A 
ATOM     18  C   UNL     1       6.540   4.715  18.111  0.00  0.00    +0.000 A 
ATOM     19  N   UNL     1       7.497   4.957  17.162  0.00  0.00    +0.000 N 
ATOM     20  C   UNL     1       6.988   4.731  15.905  0.00  0.00    +0.000 A 
ATOM     21  C   UNL     1       7.605   4.839  14.653  0.00  0.00    +0.000 A 
ATOM     22  C   UNL     1       6.838   4.523  13.533  0.00  0.00    +0.000 A 
ATOM     23  F   UNL     1       7.393   4.612  12.316  0.00  0.00    +0.000 F 
ATOM     24  C   UNL     1       5.516   4.116  13.645  0.00  0.00    +0.000 A 
ATOM     25  C   UNL     1       4.915   4.012  14.908  0.00  0.00    +0.000 A 
ATOM     26  C   UNL     1       5.658   4.330  16.065  0.00  0.00    +0.000 A 
ATOM     27  H   UNL     1       8.451   5.233  17.350  0.00  0.00    +0.000 HD
ENDBRANCH  16  17
ENDBRANCH   2  16
TORSDOF 4
ENDMDL
MODEL 8
REMARK VINA RESULT:      -8.3      2.316      2.858
REMARK  Name = 
REMARK  4 active torsions:
REMARK  status: ('A' for Active; 'I' for Inactive)
REMARK    1  A    between atoms: C_2  and  C_3
REMARK    2  A    between atoms: C_3  and  C_4
REMARK    3  A    between atoms: N_14  and  C_15
REMARK    4  A    between atoms: C_18  and  C_19
REMARK                            x       y       z     vdW  Elec       q    Type
REMARK                         _______ _______ _______ _____ _____    ______ ____
ROOT
ATOM      1  O   UNL     1       1.846   4.729  18.935  0.00  0.00    +0.000 OA
ATOM      2  C   UNL     1       2.917   5.199  19.314  0.00  0.00    +0.000 C 
ATOM      3  N   UNL     1       3.150   6.531  19.632  0.00  0.00    +0.000 N 
ATOM      4  H   UNL     1       4.118   6.810  19.730  0.00  0.00    +0.000 HD
ENDROOT
BRANCH   3   5
ATOM      5  C   UNL     1       2.190   7.568  19.655  0.00  0.00    +0.000 A 
ATOM      6  C   UNL     1       1.937   8.413  18.574  0.00  0.00    +0.000 A 
ATOM      7  C   UNL     1       1.020   9.467  18.687  0.00  0.00    +0.000 A 
ATOM      8  C   UNL     1       0.334   9.701  19.885  0.00  0.00    +0.000 A 
ATOM      9  C   UNL     1       0.545   8.813  20.949  0.00  0.00    +0.000 A 
ATOM     10  C   UNL     1       1.456   7.753  20.831  0.00  0.00    +0.000 A 
BRANCH   8  11
ATOM     11  C   UNL     1      -0.544  10.860  20.005  0.00  0.00    +0.000 A 
ATOM     12  N   UNL     1      -1.242  11.498  19.086  0.00  0.00    +0.000 NA
ATOM     13  N   UNL     1      -1.853  12.561  19.721  0.00  0.00    +0.000 NA
ATOM     14  C   UNL     1      -1.484  12.490  20.977  0.00  0.00    +0.000 A 
ATOM     15  O   UNL     1      -0.659  11.441  21.245  0.00  0.00    +0.000 OA
ENDBRANCH   8  11
ENDBRANCH   3   5
BRANCH   2  16
ATOM     16  C   UNL     1       4.138   4.307  19.498  0.00  0.00    +0.000 C 
BRANCH  16  17
ATOM     17  C   UNL     1       5.347   4.757  18.737  0.00  0.00    +0.000 A 
ATOM     18  C   UNL     1       6.500   5.284  19.293  0.00  0.00    +0.000 A 
ATOM     19  N   UNL     1       7.405   5.508  18.291  0.00  0.00    +0.000 N 
ATOM     20  C   UNL     1       6.875   5.135  17.078  0.00  0.00    +0.000 A 
ATOM     21  C   UNL     1       7.441   5.175  15.798  0.00  0.00    +0.000 A 
ATOM     22  C   UNL     1       6.664   4.707  14.741  0.00  0.00    +0.000 A 
ATOM     23  F   UNL     1       7.171   4.726  13.500  0.00  0.00    +0.000 F 
ATOM     24  C   UNL     1       5.380   4.216  14.939  0.00  0.00    +0.000 A 
ATOM     25  C   UNL     1       4.830   4.182  16.228  0.00  0.00    +0.000 A 
ATOM     26  C   UNL     1       5.584   4.655  17.324  0.00  0.00    +0.000 A 
ATOM     27  H   UNL     1       8.341   5.868  18.416  0.00  0.00    +0.000 HD
ENDBRANCH  16  17
ENDBRANCH   2  16
TORSDOF 4
ENDMDL
MODEL 9
REMARK VINA RESULT:      -8.3      6.627      7.948
REMARK  Name = 
REMARK  4 active torsions:
REMARK  status: ('A' for Active; 'I' for Inactive)
REMARK    1  A    between atoms: C_2  and  C_3
REMARK    2  A    between atoms: C_3  and  C_4
REMARK    3  A    between atoms: N_14  and  C_15
REMARK    4  A    between atoms: C_18  and  C_19
REMARK                            x       y       z     vdW  Elec       q    Type
REMARK                         _______ _______ _______ _____ _____    ______ ____
ROOT
ATOM      1  O   UNL     1       7.514   8.046  17.153  0.00  0.00    +0.000 OA
ATOM      2  C   UNL     1       8.029   7.714  18.218  0.00  0.00    +0.000 C 
ATOM      3  N   UNL     1       8.790   8.535  19.040  0.00  0.00    +0.000 N 
ATOM      4  H   UNL     1       9.317   8.077  19.774  0.00  0.00    +0.000 HD
ENDROOT
BRANCH   3   5
ATOM      5  C   UNL     1       9.045   9.911  18.847  0.00  0.00    +0.000 A 
ATOM      6  C   UNL     1       9.904  10.660  19.653  0.00  0.00    +0.000 A 
ATOM      7  C   UNL     1      10.059  12.039  19.449  0.00  0.00    +0.000 A 
ATOM      8  C   UNL     1       9.359  12.700  18.434  0.00  0.00    +0.000 A 
ATOM      9  C   UNL     1       8.545  11.935  17.587  0.00  0.00    +0.000 A 
ATOM     10  C   UNL     1       8.398  10.554  17.787  0.00  0.00    +0.000 A 
BRANCH   8  11
ATOM     11  C   UNL     1       9.467  14.150  18.302  0.00  0.00    +0.000 A 
ATOM     12  N   UNL     1       8.535  15.056  18.079  0.00  0.00    +0.000 NA
ATOM     13  N   UNL     1       9.182  16.273  17.985  0.00  0.00    +0.000 NA
ATOM     14  C   UNL     1      10.456  16.017  18.159  0.00  0.00    +0.000 A 
ATOM     15  O   UNL     1      10.725  14.699  18.370  0.00  0.00    +0.000 OA
ENDBRANCH   8  11
ENDBRANCH   3   5
BRANCH   2  16
ATOM     16  C   UNL     1       7.847   6.304  18.766  0.00  0.00    +0.000 C 
BRANCH  16  17
ATOM     17  C   UNL     1       6.968   5.429  17.926  0.00  0.00    +0.000 A 
ATOM     18  C   UNL     1       7.403   4.535  16.963  0.00  0.00    +0.000 A 
ATOM     19  N   UNL     1       6.316   3.869  16.463  0.00  0.00    +0.000 N 
ATOM     20  C   UNL     1       5.167   4.302  17.081  0.00  0.00    +0.000 A 
ATOM     21  C   UNL     1       3.840   3.895  16.898  0.00  0.00    +0.000 A 
ATOM     22  C   UNL     1       2.869   4.505  17.690  0.00  0.00    +0.000 A 
ATOM     23  F   UNL     1       1.587   4.141  17.546  0.00  0.00    +0.000 F 
ATOM     24  C   UNL     1       3.196   5.476  18.627  0.00  0.00    +0.000 A 
ATOM     25  C   UNL     1       4.531   5.869  18.798  0.00  0.00    +0.000 A 
ATOM     26  C   UNL     1       5.541   5.279  18.009  0.00  0.00    +0.000 A 
ATOM     27  H   UNL     1       6.347   3.141  15.762  0.00  0.00    +0.000 HD
ENDBRANCH  16  17
ENDBRANCH   2  16
TORSDOF 4
ENDMDL
