MODEL 1
REMARK VINA RESULT:      -7.9      0.000      0.000
REMARK  Name = 
REMARK  7 active torsions:
REMARK  status: ('A' for Active; 'I' for Inactive)
REMARK    1  A    between atoms: C_1  and  C_2
REMARK    2  A    between atoms: C_6  and  C_7
REMARK    3  A    between atoms: C_7  and  C_8
REMARK    4  A    between atoms: C_7  and  C_9
REMARK    5  A    between atoms: C_10  and  N_11
REMARK    6  A    between atoms: C_12  and  C_14
REMARK    7  A    between atoms: C_14  and  N_15
REMARK                            x       y       z     vdW  Elec       q    Type
REMARK                         _______ _______ _______ _____ _____    ______ ____
ROOT
ATOM      1  C   UNL     1       1.697   9.430  18.928  0.00  0.00    +0.000 C 
ENDROOT
BRANCH   1   2
ATOM      2  N   UNL     1       1.004  10.557  18.308  0.00  0.00    +0.000 N 
ATOM      3  C   UNL     1       1.289  11.738  18.921  0.00  0.00    +0.000 C 
ATOM      4  O   UNL     1       2.381  12.257  18.996  0.00  0.00    +0.000 OA
ATOM      5  O   UNL     1       0.152  12.271  19.467  0.00  0.00    +0.000 OA
ATOM      6  C   UNL     1      -0.920  11.280  19.433  0.00  0.00    +0.000 C 
ATOM      7  C   UNL     1      -2.209  12.045  19.705  0.00  0.00    +0.000 C 
ATOM      8  C   UNL     1      -2.081  12.418  21.238  0.00  0.00    +0.000 C 
ATOM      9  C   UNL     1      -1.258  11.274  21.766  0.00  0.00    +0.000 A 
ATOM     10  C   UNL     1      -0.776  10.967  23.021  0.00  0.00    +0.000 A 
ATOM     11  C   UNL     1      -0.091   9.754  23.189  0.00  0.00    +0.000 A 
ATOM     12  C   UNL     1      -0.065   8.802  22.167  0.00  0.00    +0.000 A 
ATOM     13  C   UNL     1      -0.558   9.136  20.916  0.00  0.00    +0.000 A 
ATOM     14  C   UNL     1      -0.911  10.456  20.704  0.00  0.00    +0.000 A 
ATOM     15  C   UNL     1      -0.391  10.493  18.255  0.00  0.00    +0.000 C 
ATOM     16  O   UNL     1      -1.049   9.852  17.448  0.00  0.00    +0.000 OA
ENDBRANCH   1   2
BRANCH   1  18
ATOM     17  N   UNL     1       2.709   7.178  19.308  0.00  0.00    +0.000 N 
ATOM     18  C   UNL     1       2.000   7.999  18.473  0.00  0.00    +0.000 C 
ATOM     19  O   UNL     1       1.662   7.685  17.324  0.00  0.00    +0.000 OA
ATOM     20  H   UNL     1       3.306   7.662  19.965  0.00  0.00    +0.000 HD
BRANCH  17  27
ATOM     21  C   UNL     1       1.387   4.986  20.645  0.00  0.00    +0.000 C 
ATOM     22  C   UNL     1       2.344   4.786  19.496  0.00  0.00    +0.000 A 
ATOM     23  C   UNL     1       2.558   3.471  19.060  0.00  0.00    +0.000 A 
ATOM     24  C   UNL     1       3.513   3.191  18.099  0.00  0.00    +0.000 A 
ATOM     25  C   UNL     1       4.314   4.216  17.614  0.00  0.00    +0.000 A 
ATOM     26  C   UNL     1       4.161   5.556  18.040  0.00  0.00    +0.000 A 
ATOM     27  C   UNL     1       3.109   5.848  18.950  0.00  0.00    +0.000 A 
BRANCH  26  28
ATOM     28  C   UNL     1       5.170   6.558  17.467  0.00  0.00    +0.000 C 
ATOM     29  C   UNL     1       6.607   6.180  17.878  0.00  0.00    +0.000 C 
ATOM     30  C   UNL     1       5.095   6.663  15.937  0.00  0.00    +0.000 C 
ENDBRANCH  26  28
ENDBRANCH  17  27
ENDBRANCH   1  18
TORSDOF 4
ENDMDL
MODEL 2
REMARK VINA RESULT:      -7.4      0.696      2.421
REMARK  Name = 
REMARK  7 active torsions:
REMARK  status: ('A' for Active; 'I' for Inactive)
REMARK    1  A    between atoms: C_1  and  C_2
REMARK    2  A    between atoms: C_6  and  C_7
REMARK    3  A    between atoms: C_7  and  C_8
REMARK    4  A    between atoms: C_7  and  C_9
REMARK    5  A    between atoms: C_10  and  N_11
REMARK    6  A    between atoms: C_12  and  C_14
REMARK    7  A    between atoms: C_14  and  N_15
REMARK                            x       y       z     vdW  Elec       q    Type
REMARK                         _______ _______ _______ _____ _____    ______ ____
ROOT
ATOM      1  C   UNL     1       1.725   9.344  18.718  0.00  0.00    +0.000 C 
ENDROOT
BRANCH   1   2
ATOM      2  N   UNL     1       1.022  10.507  18.183  0.00  0.00    +0.000 N 
ATOM      3  C   UNL     1       1.362  11.656  18.830  0.00  0.00    +0.000 C 
ATOM      4  O   UNL     1       2.465  12.153  18.869  0.00  0.00    +0.000 OA
ATOM      5  O   UNL     1       0.264  12.184  19.456  0.00  0.00    +0.000 OA
ATOM      6  C   UNL     1      -0.827  11.215  19.437  0.00  0.00    +0.000 C 
ATOM      7  C   UNL     1      -2.085  11.989  19.807  0.00  0.00    +0.000 C 
ATOM      8  C   UNL     1      -1.872  12.293  21.345  0.00  0.00    +0.000 C 
ATOM      9  C   UNL     1      -1.045  11.114  21.781  0.00  0.00    +0.000 A 
ATOM     10  C   UNL     1      -0.506  10.745  22.995  0.00  0.00    +0.000 A 
ATOM     11  C   UNL     1       0.164   9.514  23.077  0.00  0.00    +0.000 A 
ATOM     12  C   UNL     1       0.119   8.606  22.015  0.00  0.00    +0.000 A 
ATOM     13  C   UNL     1      -0.431   9.003  20.807  0.00  0.00    +0.000 A 
ATOM     14  C   UNL     1      -0.768  10.337  20.669  0.00  0.00    +0.000 A 
ATOM     15  C   UNL     1      -0.374  10.470  18.201  0.00  0.00    +0.000 C 
ATOM     16  O   UNL     1      -1.084   9.875  17.402  0.00  0.00    +0.000 OA
ENDBRANCH   1   2
BRANCH   1  18
ATOM     17  N   UNL     1       3.024   7.210  18.654  0.00  0.00    +0.000 N 
ATOM     18  C   UNL     1       1.937   7.915  18.210  0.00  0.00    +0.000 C 
ATOM     19  O   UNL     1       1.156   7.498  17.344  0.00  0.00    +0.000 OA
ATOM     20  H   UNL     1       3.799   7.784  18.960  0.00  0.00    +0.000 HD
BRANCH  17  27
ATOM     21  C   UNL     1       4.796   7.014  16.382  0.00  0.00    +0.000 C 
ATOM     22  C   UNL     1       4.347   5.812  17.176  0.00  0.00    +0.000 A 
ATOM     23  C   UNL     1       4.851   4.563  16.791  0.00  0.00    +0.000 A 
ATOM     24  C   UNL     1       4.392   3.400  17.385  0.00  0.00    +0.000 A 
ATOM     25  C   UNL     1       3.371   3.471  18.323  0.00  0.00    +0.000 A 
ATOM     26  C   UNL     1       2.806   4.702  18.728  0.00  0.00    +0.000 A 
ATOM     27  C   UNL     1       3.355   5.896  18.187  0.00  0.00    +0.000 A 
BRANCH  26  28
ATOM     28  C   UNL     1       1.637   4.607  19.716  0.00  0.00    +0.000 C 
ATOM     29  C   UNL     1       0.903   3.259  19.564  0.00  0.00    +0.000 C 
ATOM     30  C   UNL     1       2.082   4.776  21.175  0.00  0.00    +0.000 C 
ENDBRANCH  26  28
ENDBRANCH  17  27
ENDBRANCH   1  18
TORSDOF 4
ENDMDL
MODEL 3
REMARK VINA RESULT:      -7.4      1.725      3.722
REMARK  Name = 
REMARK  7 active torsions:
REMARK  status: ('A' for Active; 'I' for Inactive)
REMARK    1  A    between atoms: C_1  and  C_2
REMARK    2  A    between atoms: C_6  and  C_7
REMARK    3  A    between atoms: C_7  and  C_8
REMARK    4  A    between atoms: C_7  and  C_9
REMARK    5  A    between atoms: C_10  and  N_11
REMARK    6  A    between atoms: C_12  and  C_14
REMARK    7  A    between atoms: C_14  and  N_15
REMARK                            x       y       z     vdW  Elec       q    Type
REMARK                         _______ _______ _______ _____ _____    ______ ____
ROOT
ATOM      1  C   UNL     1       1.049   8.903  19.713  0.00  0.00    +0.000 C 
ENDROOT
BRANCH   1   2
ATOM      2  N   UNL     1       0.902   9.946  20.726  0.00  0.00    +0.000 N 
ATOM      3  C   UNL     1      -0.225   9.784  21.472  0.00  0.00    +0.000 C 
ATOM      4  O   UNL     1      -0.477   8.841  22.189  0.00  0.00    +0.000 OA
ATOM      5  O   UNL     1      -1.066  10.851  21.290  0.00  0.00    +0.000 OA
ATOM      6  C   UNL     1      -0.593  11.664  20.174  0.00  0.00    +0.000 C 
ATOM      7  C   UNL     1      -1.342  12.987  20.271  0.00  0.00    +0.000 C 
ATOM      8  C   UNL     1      -2.816  12.590  19.856  0.00  0.00    +0.000 C 
ATOM      9  C   UNL     1      -2.572  11.442  18.914  0.00  0.00    +0.000 A 
ATOM     10  C   UNL     1      -3.417  10.628  18.190  0.00  0.00    +0.000 A 
ATOM     11  C   UNL     1      -2.846   9.680  17.327  0.00  0.00    +0.000 A 
ATOM     12  C   UNL     1      -1.474   9.690  17.064  0.00  0.00    +0.000 A 
ATOM     13  C   UNL     1      -0.648  10.519  17.805  0.00  0.00    +0.000 A 
ATOM     14  C   UNL     1      -1.212  11.185  18.878  0.00  0.00    +0.000 A 
ATOM     15  C   UNL     1       0.863  11.268  20.276  0.00  0.00    +0.000 C 
ATOM     16  O   UNL     1       1.830  11.943  19.953  0.00  0.00    +0.000 OA
ENDBRANCH   1   2
BRANCH   1  18
ATOM     17  N   UNL     1       2.099   7.104  18.335  0.00  0.00    +0.000 N 
ATOM     18  C   UNL     1       1.995   7.710  19.557  0.00  0.00    +0.000 C 
ATOM     19  O   UNL     1       2.557   7.293  20.580  0.00  0.00    +0.000 OA
ATOM     20  H   UNL     1       1.288   7.217  17.741  0.00  0.00    +0.000 HD
BRANCH  17  27
ATOM     21  C   UNL     1       4.477   7.421  16.727  0.00  0.00    +0.000 C 
ATOM     22  C   UNL     1       4.140   6.138  17.445  0.00  0.00    +0.000 A 
ATOM     23  C   UNL     1       5.054   5.081  17.335  0.00  0.00    +0.000 A 
ATOM     24  C   UNL     1       4.759   3.833  17.857  0.00  0.00    +0.000 A 
ATOM     25  C   UNL     1       3.516   3.611  18.434  0.00  0.00    +0.000 A 
ATOM     26  C   UNL     1       2.545   4.634  18.546  0.00  0.00    +0.000 A 
ATOM     27  C   UNL     1       2.898   5.936  18.099  0.00  0.00    +0.000 A 
BRANCH  26  28
ATOM     28  C   UNL     1       1.196   4.211  19.139  0.00  0.00    +0.000 C 
ATOM     29  C   UNL     1       0.796   2.808  18.640  0.00  0.00    +0.000 C 
ATOM     30  C   UNL     1       1.198   4.217  20.674  0.00  0.00    +0.000 C 
ENDBRANCH  26  28
ENDBRANCH  17  27
ENDBRANCH   1  18
TORSDOF 4
ENDMDL
MODEL 4
REMARK VINA RESULT:      -7.3      3.538      8.876
REMARK  Name = 
REMARK  7 active torsions:
REMARK  status: ('A' for Active; 'I' for Inactive)
REMARK    1  A    between atoms: C_1  and  C_2
REMARK    2  A    between atoms: C_6  and  C_7
REMARK    3  A    between atoms: C_7  and  C_8
REMARK    4  A    between atoms: C_7  and  C_9
REMARK    5  A    between atoms: C_10  and  N_11
REMARK    6  A    between atoms: C_12  and  C_14
REMARK    7  A    between atoms: C_14  and  N_15
REMARK                            x       y       z     vdW  Elec       q    Type
REMARK                         _______ _______ _______ _____ _____    ______ ____
ROOT
ATOM      1  C   UNL     1      -2.023  12.895  20.458  0.00  0.00    +0.000 C 
ENDROOT
BRANCH   1   2
ATOM      2  N   UNL     1      -1.472  12.722  19.116  0.00  0.00    +0.000 N 
ATOM      3  C   UNL     1      -1.903  11.573  18.527  0.00  0.00    +0.000 C 
ATOM      4  O   UNL     1      -3.050  11.298  18.255  0.00  0.00    +0.000 OA
ATOM      5  O   UNL     1      -0.841  10.741  18.287  0.00  0.00    +0.000 OA
ATOM      6  C   UNL     1       0.345  11.248  18.970  0.00  0.00    +0.000 C 
ATOM      7  C   UNL     1       1.528  10.501  18.371  0.00  0.00    +0.000 C 
ATOM      8  C   UNL     1       1.351   9.038  18.948  0.00  0.00    +0.000 C 
ATOM      9  C   UNL     1       0.674   9.306  20.265  0.00  0.00    +0.000 A 
ATOM     10  C   UNL     1       0.231   8.481  21.276  0.00  0.00    +0.000 A 
ATOM     11  C   UNL     1      -0.300   9.074  22.432  0.00  0.00    +0.000 A 
ATOM     12  C   UNL     1      -0.205  10.454  22.633  0.00  0.00    +0.000 A 
ATOM     13  C   UNL     1       0.246  11.260  21.600  0.00  0.00    +0.000 A 
ATOM     14  C   UNL     1       0.434  10.666  20.366  0.00  0.00    +0.000 A 
ATOM     15  C   UNL     1      -0.080  12.700  18.999  0.00  0.00    +0.000 C 
ATOM     16  O   UNL     1       0.654  13.678  18.999  0.00  0.00    +0.000 OA
ENDBRANCH   1   2
BRANCH   1  18
ATOM     17  N   UNL     1      -4.082  12.348  21.762  0.00  0.00    +0.000 N 
ATOM     18  C   UNL     1      -3.413  13.257  20.988  0.00  0.00    +0.000 C 
ATOM     19  O   UNL     1      -3.904  14.330  20.610  0.00  0.00    +0.000 OA
ATOM     20  H   UNL     1      -3.807  11.386  21.611  0.00  0.00    +0.000 HD
BRANCH  17  27
ATOM     21  C   UNL     1      -4.413  12.792  24.596  0.00  0.00    +0.000 C 
ATOM     22  C   UNL     1      -5.545  12.929  23.609  0.00  0.00    +0.000 A 
ATOM     23  C   UNL     1      -6.793  13.320  24.113  0.00  0.00    +0.000 A 
ATOM     24  C   UNL     1      -7.910  13.345  23.296  0.00  0.00    +0.000 A 
ATOM     25  C   UNL     1      -7.804  12.912  21.981  0.00  0.00    +0.000 A 
ATOM     26  C   UNL     1      -6.575  12.480  21.429  0.00  0.00    +0.000 A 
ATOM     27  C   UNL     1      -5.416  12.555  22.247  0.00  0.00    +0.000 A 
BRANCH  26  28
ATOM     28  C   UNL     1      -6.637  11.963  19.986  0.00  0.00    +0.000 C 
ATOM     29  C   UNL     1      -7.149  10.509  19.950  0.00  0.00    +0.000 C 
ATOM     30  C   UNL     1      -7.525  12.833  19.085  0.00  0.00    +0.000 C 
ENDBRANCH  26  28
ENDBRANCH  17  27
ENDBRANCH   1  18
TORSDOF 4
ENDMDL
MODEL 5
REMARK VINA RESULT:      -7.2      1.987      7.777
REMARK  Name = 
REMARK  7 active torsions:
REMARK  status: ('A' for Active; 'I' for Inactive)
REMARK    1  A    between atoms: C_1  and  C_2
REMARK    2  A    between atoms: C_6  and  C_7
REMARK    3  A    between atoms: C_7  and  C_8
REMARK    4  A    between atoms: C_7  and  C_9
REMARK    5  A    between atoms: C_10  and  N_11
REMARK    6  A    between atoms: C_12  and  C_14
REMARK    7  A    between atoms: C_14  and  N_15
REMARK                            x       y       z     vdW  Elec       q    Type
REMARK                         _______ _______ _______ _____ _____    ______ ____
ROOT
ATOM      1  C   UNL     1       2.051   7.425  18.001  0.00  0.00    +0.000 C 
ENDROOT
BRANCH   1   2
ATOM      2  N   UNL     1       1.688   6.214  18.734  0.00  0.00    +0.000 N 
ATOM      3  C   UNL     1       2.288   6.152  19.954  0.00  0.00    +0.000 C 
ATOM      4  O   UNL     1       2.130   6.932  20.867  0.00  0.00    +0.000 OA
ATOM      5  O   UNL     1       3.124   5.069  20.012  0.00  0.00    +0.000 OA
ATOM      6  C   UNL     1       3.287   4.502  18.676  0.00  0.00    +0.000 C 
ATOM      7  C   UNL     1       3.909   3.126  18.876  0.00  0.00    +0.000 C 
ATOM      8  C   UNL     1       5.386   3.469  19.328  0.00  0.00    +0.000 C 
ATOM      9  C   UNL     1       5.628   4.779  18.628  0.00  0.00    +0.000 A 
ATOM     10  C   UNL     1       6.707   5.635  18.587  0.00  0.00    +0.000 A 
ATOM     11  C   UNL     1       6.629   6.762  17.754  0.00  0.00    +0.000 A 
ATOM     12  C   UNL     1       5.573   6.909  16.851  0.00  0.00    +0.000 A 
ATOM     13  C   UNL     1       4.501   6.033  16.913  0.00  0.00    +0.000 A 
ATOM     14  C   UNL     1       4.464   5.148  17.975  0.00  0.00    +0.000 A 
ATOM     15  C   UNL     1       1.969   4.992  18.119  0.00  0.00    +0.000 C 
ATOM     16  O   UNL     1       1.306   4.464  17.238  0.00  0.00    +0.000 OA
ENDBRANCH   1   2
BRANCH   1  18
ATOM     17  N   UNL     1       0.458   9.172  18.809  0.00  0.00    +0.000 N 
ATOM     18  C   UNL     1       1.555   8.874  18.047  0.00  0.00    +0.000 C 
ATOM     19  O   UNL     1       2.125   9.693  17.313  0.00  0.00    +0.000 OA
ATOM     20  H   UNL     1      -0.168   8.394  18.966  0.00  0.00    +0.000 HD
BRANCH  17  27
ATOM     21  C   UNL     1       1.384  10.964  20.877  0.00  0.00    +0.000 C 
ATOM     22  C   UNL     1       0.444  11.397  19.780  0.00  0.00    +0.000 A 
ATOM     23  C   UNL     1       0.044  12.740  19.769  0.00  0.00    +0.000 A 
ATOM     24  C   UNL     1      -0.913  13.187  18.875  0.00  0.00    +0.000 A 
ATOM     25  C   UNL     1      -1.531  12.279  18.026  0.00  0.00    +0.000 A 
ATOM     26  C   UNL     1      -1.186  10.907  18.014  0.00  0.00    +0.000 A 
ATOM     27  C   UNL     1      -0.131  10.479  18.864  0.00  0.00    +0.000 A 
BRANCH  26  28
ATOM     28  C   UNL     1      -2.010  10.020  17.072  0.00  0.00    +0.000 C 
ATOM     29  C   UNL     1      -3.255   9.468  17.795  0.00  0.00    +0.000 C 
ATOM     30  C   UNL     1      -2.452  10.759  15.801  0.00  0.00    +0.000 C 
ENDBRANCH  26  28
ENDBRANCH  17  27
ENDBRANCH   1  18
TORSDOF 4
ENDMDL
MODEL 6
REMARK VINA RESULT:      -6.9      1.157      2.649
REMARK  Name = 
REMARK  7 active torsions:
REMARK  status: ('A' for Active; 'I' for Inactive)
REMARK    1  A    between atoms: C_1  and  C_2
REMARK    2  A    between atoms: C_6  and  C_7
REMARK    3  A    between atoms: C_7  and  C_8
REMARK    4  A    between atoms: C_7  and  C_9
REMARK    5  A    between atoms: C_10  and  N_11
REMARK    6  A    between atoms: C_12  and  C_14
REMARK    7  A    between atoms: C_14  and  N_15
REMARK                            x       y       z     vdW  Elec       q    Type
REMARK                         _______ _______ _______ _____ _____    ______ ____
ROOT
ATOM      1  C   UNL     1       1.432   8.773  19.093  0.00  0.00    +0.000 C 
ENDROOT
BRANCH   1   2
ATOM      2  N   UNL     1       1.027   9.768  18.103  0.00  0.00    +0.000 N 
ATOM      3  C   UNL     1       1.550  10.997  18.363  0.00  0.00    +0.000 C 
ATOM      4  O   UNL     1       2.727  11.281  18.388  0.00  0.00    +0.000 OA
ATOM      5  O   UNL     1       0.543  11.892  18.612  0.00  0.00    +0.000 OA
ATOM      6  C   UNL     1      -0.721  11.180  18.769  0.00  0.00    +0.000 C 
ATOM      7  C   UNL     1      -1.814  12.236  18.674  0.00  0.00    +0.000 C 
ATOM      8  C   UNL     1      -1.654  13.032  20.032  0.00  0.00    +0.000 C 
ATOM      9  C   UNL     1      -1.124  11.967  20.953  0.00  0.00    +0.000 A 
ATOM     10  C   UNL     1      -0.762  11.974  22.284  0.00  0.00    +0.000 A 
ATOM     11  C   UNL     1      -0.371  10.760  22.871  0.00  0.00    +0.000 A 
ATOM     12  C   UNL     1      -0.527   9.553  22.184  0.00  0.00    +0.000 A 
ATOM     13  C   UNL     1      -0.893   9.576  20.848  0.00  0.00    +0.000 A 
ATOM     14  C   UNL     1      -0.935  10.807  20.221  0.00  0.00    +0.000 A 
ATOM     15  C   UNL     1      -0.344   9.975  17.935  0.00  0.00    +0.000 C 
ATOM     16  O   UNL     1      -1.103   9.262  17.293  0.00  0.00    +0.000 OA
ENDBRANCH   1   2
BRANCH   1  18
ATOM     17  N   UNL     1       2.313   6.764  17.899  0.00  0.00    +0.000 N 
ATOM     18  C   UNL     1       2.321   7.528  19.035  0.00  0.00    +0.000 C 
ATOM     19  O   UNL     1       2.940   7.223  20.064  0.00  0.00    +0.000 OA
ATOM     20  H   UNL     1       1.466   6.835  17.352  0.00  0.00    +0.000 HD
BRANCH  17  27
ATOM     21  C   UNL     1       4.730   6.829  16.318  0.00  0.00    +0.000 C 
ATOM     22  C   UNL     1       4.312   5.625  17.125  0.00  0.00    +0.000 A 
ATOM     23  C   UNL     1       5.168   4.515  17.112  0.00  0.00    +0.000 A 
ATOM     24  C   UNL     1       4.798   3.328  17.721  0.00  0.00    +0.000 A 
ATOM     25  C   UNL     1       3.536   3.218  18.289  0.00  0.00    +0.000 A 
ATOM     26  C   UNL     1       2.621   4.297  18.305  0.00  0.00    +0.000 A 
ATOM     27  C   UNL     1       3.051   5.540  17.768  0.00  0.00    +0.000 A 
BRANCH  26  28
ATOM     28  C   UNL     1       1.242   3.994  18.904  0.00  0.00    +0.000 C 
ATOM     29  C   UNL     1       0.852   2.522  18.656  0.00  0.00    +0.000 C 
ATOM     30  C   UNL     1       1.174   4.286  20.409  0.00  0.00    +0.000 C 
ENDBRANCH  26  28
ENDBRANCH  17  27
ENDBRANCH   1  18
TORSDOF 4
ENDMDL
MODEL 7
REMARK VINA RESULT:      -6.9      3.433      8.773
REMARK  Name = 
REMARK  7 active torsions:
REMARK  status: ('A' for Active; 'I' for Inactive)
REMARK    1  A    between atoms: C_1  and  C_2
REMARK    2  A    between atoms: C_6  and  C_7
REMARK    3  A    between atoms: C_7  and  C_8
REMARK    4  A    between atoms: C_7  and  C_9
REMARK    5  A    between atoms: C_10  and  N_11
REMARK    6  A    between atoms: C_12  and  C_14
REMARK    7  A    between atoms: C_14  and  N_15
REMARK                            x       y       z     vdW  Elec       q    Type
REMARK                         _______ _______ _______ _____ _____    ______ ____
ROOT
ATOM      1  C   UNL     1      -1.757  13.039  19.920  0.00  0.00    +0.000 C 
ENDROOT
BRANCH   1   2
ATOM      2  N   UNL     1      -1.155  12.702  18.633  0.00  0.00    +0.000 N 
ATOM      3  C   UNL     1      -1.616  11.519  18.143  0.00  0.00    +0.000 C 
ATOM      4  O   UNL     1      -2.762  11.270  17.842  0.00  0.00    +0.000 OA
ATOM      5  O   UNL     1      -0.588  10.619  18.043  0.00  0.00    +0.000 OA
ATOM      6  C   UNL     1       0.589  11.140  18.731  0.00  0.00    +0.000 C 
ATOM      7  C   UNL     1       1.760  10.281  18.271  0.00  0.00    +0.000 C 
ATOM      8  C   UNL     1       1.483   8.896  18.985  0.00  0.00    +0.000 C 
ATOM      9  C   UNL     1       0.761   9.331  20.231  0.00  0.00    +0.000 A 
ATOM     10  C   UNL     1       0.230   8.636  21.297  0.00  0.00    +0.000 A 
ATOM     11  C   UNL     1      -0.322   9.370  22.358  0.00  0.00    +0.000 A 
ATOM     12  C   UNL     1      -0.167  10.758  22.422  0.00  0.00    +0.000 A 
ATOM     13  C   UNL     1       0.371  11.431  21.337  0.00  0.00    +0.000 A 
ATOM     14  C   UNL     1       0.585  10.703  20.181  0.00  0.00    +0.000 A 
ATOM     15  C   UNL     1       0.238  12.605  18.589  0.00  0.00    +0.000 C 
ATOM     16  O   UNL     1       1.020  13.543  18.527  0.00  0.00    +0.000 OA
ENDBRANCH   1   2
BRANCH   1  18
ATOM     17  N   UNL     1      -4.254  13.025  20.019  0.00  0.00    +0.000 N 
ATOM     18  C   UNL     1      -3.073  12.653  20.603  0.00  0.00    +0.000 C 
ATOM     19  O   UNL     1      -2.997  12.096  21.707  0.00  0.00    +0.000 OA
ATOM     20  H   UNL     1      -4.188  13.836  19.419  0.00  0.00    +0.000 HD
BRANCH  17  27
ATOM     21  C   UNL     1      -5.958  11.076  18.739  0.00  0.00    +0.000 C 
ATOM     22  C   UNL     1      -6.293  11.710  20.066  0.00  0.00    +0.000 A 
ATOM     23  C   UNL     1      -7.473  11.293  20.698  0.00  0.00    +0.000 A 
ATOM     24  C   UNL     1      -7.916  11.915  21.852  0.00  0.00    +0.000 A 
ATOM     25  C   UNL     1      -7.219  13.008  22.349  0.00  0.00    +0.000 A 
ATOM     26  C   UNL     1      -6.038  13.488  21.736  0.00  0.00    +0.000 A 
ATOM     27  C   UNL     1      -5.537  12.779  20.611  0.00  0.00    +0.000 A 
BRANCH  26  28
ATOM     28  C   UNL     1      -5.426  14.748  22.362  0.00  0.00    +0.000 C 
ATOM     29  C   UNL     1      -6.524  15.777  22.700  0.00  0.00    +0.000 C 
ATOM     30  C   UNL     1      -4.614  14.443  23.628  0.00  0.00    +0.000 C 
ENDBRANCH  26  28
ENDBRANCH  17  27
ENDBRANCH   1  18
TORSDOF 4
ENDMDL
MODEL 8
REMARK VINA RESULT:      -6.8      3.698      9.545
REMARK  Name = 
REMARK  7 active torsions:
REMARK  status: ('A' for Active; 'I' for Inactive)
REMARK    1  A    between atoms: C_1  and  C_2
REMARK    2  A    between atoms: C_6  and  C_7
REMARK    3  A    between atoms: C_7  and  C_8
REMARK    4  A    between atoms: C_7  and  C_9
REMARK    5  A    between atoms: C_10  and  N_11
REMARK    6  A    between atoms: C_12  and  C_14
REMARK    7  A    between atoms: C_14  and  N_15
REMARK                            x       y       z     vdW  Elec       q    Type
REMARK                         _______ _______ _______ _____ _____    ______ ____
ROOT
ATOM      1  C   UNL     1      -2.761  12.568  20.328  0.00  0.00    +0.000 C 
ENDROOT
BRANCH   1   2
ATOM      2  N   UNL     1      -2.101  12.422  19.032  0.00  0.00    +0.000 N 
ATOM      3  C   UNL     1      -2.286  11.185  18.497  0.00  0.00    +0.000 C 
ATOM      4  O   UNL     1      -3.347  10.696  18.180  0.00  0.00    +0.000 OA
ATOM      5  O   UNL     1      -1.082  10.543  18.370  0.00  0.00    +0.000 OA
ATOM      6  C   UNL     1      -0.050  11.290  19.083  0.00  0.00    +0.000 C 
ATOM      7  C   UNL     1       1.283  10.733  18.599  0.00  0.00    +0.000 C 
ATOM      8  C   UNL     1       1.326   9.296  19.260  0.00  0.00    +0.000 C 
ATOM      9  C   UNL     1       0.528   9.511  20.517  0.00  0.00    +0.000 A 
ATOM     10  C   UNL     1       0.169   8.676  21.554  0.00  0.00    +0.000 A 
ATOM     11  C   UNL     1      -0.531   9.228  22.638  0.00  0.00    +0.000 A 
ATOM     12  C   UNL     1      -0.692  10.611  22.754  0.00  0.00    +0.000 A 
ATOM     13  C   UNL     1      -0.321  11.427  21.697  0.00  0.00    +0.000 A 
ATOM     14  C   UNL     1       0.047  10.810  20.516  0.00  0.00    +0.000 A 
ATOM     15  C   UNL     1      -0.722  12.642  18.993  0.00  0.00    +0.000 C 
ATOM     16  O   UNL     1      -0.171  13.733  18.970  0.00  0.00    +0.000 OA
ENDBRANCH   1   2
BRANCH   1  18
ATOM     17  N   UNL     1      -3.411  13.544  22.533  0.00  0.00    +0.000 N 
ATOM     18  C   UNL     1      -3.059  13.769  21.230  0.00  0.00    +0.000 C 
ATOM     19  O   UNL     1      -3.055  14.890  20.702  0.00  0.00    +0.000 OA
ATOM     20  H   UNL     1      -3.823  12.638  22.706  0.00  0.00    +0.000 HD
BRANCH  17  27
ATOM     21  C   UNL     1      -1.336  14.644  24.215  0.00  0.00    +0.000 C 
ATOM     22  C   UNL     1      -2.725  15.227  24.143  0.00  0.00    +0.000 A 
ATOM     23  C   UNL     1      -2.984  16.370  24.911  0.00  0.00    +0.000 A 
ATOM     24  C   UNL     1      -4.263  16.891  24.999  0.00  0.00    +0.000 A 
ATOM     25  C   UNL     1      -5.312  16.231  24.373  0.00  0.00    +0.000 A 
ATOM     26  C   UNL     1      -5.113  15.058  23.607  0.00  0.00    +0.000 A 
ATOM     27  C   UNL     1      -3.781  14.591  23.441  0.00  0.00    +0.000 A 
BRANCH  26  28
ATOM     28  C   UNL     1      -6.381  14.408  23.042  0.00  0.00    +0.000 C 
ATOM     29  C   UNL     1      -6.839  13.237  23.935  0.00  0.00    +0.000 C 
ATOM     30  C   UNL     1      -7.538  15.405  22.887  0.00  0.00    +0.000 C 
ENDBRANCH  26  28
ENDBRANCH  17  27
ENDBRANCH   1  18
TORSDOF 4
ENDMDL
MODEL 9
REMARK VINA RESULT:      -6.8      3.802      6.803
REMARK  Name = 
REMARK  7 active torsions:
REMARK  status: ('A' for Active; 'I' for Inactive)
REMARK    1  A    between atoms: C_1  and  C_2
REMARK    2  A    between atoms: C_6  and  C_7
REMARK    3  A    between atoms: C_7  and  C_8
REMARK    4  A    between atoms: C_7  and  C_9
REMARK    5  A    between atoms: C_10  and  N_11
REMARK    6  A    between atoms: C_12  and  C_14
REMARK    7  A    between atoms: C_14  and  N_15
REMARK                            x       y       z     vdW  Elec       q    Type
REMARK                         _______ _______ _______ _____ _____    ______ ____
ROOT
ATOM      1  C   UNL     1      -2.702  13.426  21.234  0.00  0.00    +0.000 C 
ENDROOT
BRANCH   1   2
ATOM      2  N   UNL     1      -3.121  13.609  22.621  0.00  0.00    +0.000 N 
ATOM      3  C   UNL     1      -3.439  12.431  23.223  0.00  0.00    +0.000 C 
ATOM      4  O   UNL     1      -2.686  11.502  23.415  0.00  0.00    +0.000 OA
ATOM      5  O   UNL     1      -4.761  12.428  23.582  0.00  0.00    +0.000 OA
ATOM      6  C   UNL     1      -5.437  13.569  22.973  0.00  0.00    +0.000 C 
ATOM      7  C   UNL     1      -6.771  13.703  23.697  0.00  0.00    +0.000 C 
ATOM      8  C   UNL     1      -7.585  12.452  23.170  0.00  0.00    +0.000 C 
ATOM      9  C   UNL     1      -7.007  12.265  21.794  0.00  0.00    +0.000 A 
ATOM     10  C   UNL     1      -7.258  11.357  20.787  0.00  0.00    +0.000 A 
ATOM     11  C   UNL     1      -6.580  11.514  19.568  0.00  0.00    +0.000 A 
ATOM     12  C   UNL     1      -5.822  12.661  19.316  0.00  0.00    +0.000 A 
ATOM     13  C   UNL     1      -5.587  13.558  20.346  0.00  0.00    +0.000 A 
ATOM     14  C   UNL     1      -5.990  13.188  21.616  0.00  0.00    +0.000 A 
ATOM     15  C   UNL     1      -4.214  14.449  22.849  0.00  0.00    +0.000 C 
ATOM     16  O   UNL     1      -4.186  15.672  22.865  0.00  0.00    +0.000 OA
ENDBRANCH   1   2
BRANCH   1  18
ATOM     17  N   UNL     1      -1.763  11.317  20.281  0.00  0.00    +0.000 N 
ATOM     18  C   UNL     1      -1.568  12.640  20.570  0.00  0.00    +0.000 C 
ATOM     19  O   UNL     1      -0.488  13.226  20.410  0.00  0.00    +0.000 OA
ATOM     20  H   UNL     1      -2.457  10.859  20.857  0.00  0.00    +0.000 HD
BRANCH  17  27
ATOM     21  C   UNL     1      -1.926  10.704  17.463  0.00  0.00    +0.000 C 
ATOM     22  C   UNL     1      -0.747  10.311  18.319  0.00  0.00    +0.000 A 
ATOM     23  C   UNL     1       0.314   9.649  17.686  0.00  0.00    +0.000 A 
ATOM     24  C   UNL     1       1.372   9.144  18.421  0.00  0.00    +0.000 A 
ATOM     25  C   UNL     1       1.346   9.236  19.807  0.00  0.00    +0.000 A 
ATOM     26  C   UNL     1       0.286   9.868  20.498  0.00  0.00    +0.000 A 
ATOM     27  C   UNL     1      -0.743  10.472  19.728  0.00  0.00    +0.000 A 
BRANCH  26  28
ATOM     28  C   UNL     1       0.368   9.822  22.029  0.00  0.00    +0.000 C 
ATOM     29  C   UNL     1      -0.722   8.895  22.605  0.00  0.00    +0.000 C 
ATOM     30  C   UNL     1       1.741   9.359  22.534  0.00  0.00    +0.000 C 
ENDBRANCH  26  28
ENDBRANCH  17  27
ENDBRANCH   1  18
TORSDOF 4
ENDMDL
