MODEL 1
REMARK VINA RESULT:      -8.6      0.000      0.000
REMARK  Name = 
REMARK  10 active torsions:
REMARK  status: ('A' for Active; 'I' for Inactive)
REMARK    1  A    between atoms: C_1  and  C_2
REMARK    2  A    between atoms: C_2  and  N_3
REMARK    3  A    between atoms: C_7  and  C_8
REMARK    4  A    between atoms: C_8  and  C_9
REMARK    5  A    between atoms: C_8  and  C_10
REMARK    6  A    between atoms: C_14  and  N_15
REMARK    7  A    between atoms: C_20  and  C_21
REMARK    8  A    between atoms: C_21  and  C_22
REMARK    9  A    between atoms: C_22  and  N_23
REMARK   10  A    between atoms: C_25  and  C_26
REMARK                            x       y       z     vdW  Elec       q    Type
REMARK                         _______ _______ _______ _____ _____    ______ ____
ROOT
ATOM      1  N   UNL     1       3.752   5.181  19.636  0.00  0.00    +0.000 N 
ATOM      2  C   UNL     1       5.137   5.631  19.507  0.00  0.00    +0.000 C 
ATOM      3  C   UNL     1       5.469   5.277  18.086  0.00  0.00    +0.000 A 
ATOM      4  C   UNL     1       4.618   4.244  17.693  0.00  0.00    +0.000 A 
ATOM      5  C   UNL     1       4.512   3.805  16.382  0.00  0.00    +0.000 A 
ATOM      6  C   UNL     1       5.310   4.438  15.424  0.00  0.00    +0.000 A 
ATOM      7  C   UNL     1       6.208   5.463  15.828  0.00  0.00    +0.000 A 
ATOM      8  C   UNL     1       6.305   5.896  17.172  0.00  0.00    +0.000 A 
ATOM      9  C   UNL     1       3.672   4.011  18.810  0.00  0.00    +0.000 C 
ATOM     10  O   UNL     1       2.876   3.088  18.842  0.00  0.00    +0.000 OA
ENDROOT
BRANCH   1  15
ATOM     11  C   UNL     1       1.694   8.167  20.065  0.00  0.00    +0.000 A 
ATOM     12  C   UNL     1       2.159   8.804  18.904  0.00  0.00    +0.000 A 
ATOM     13  C   UNL     1       2.655   8.060  17.836  0.00  0.00    +0.000 A 
ATOM     14  C   UNL     1       2.864   6.695  17.978  0.00  0.00    +0.000 A 
ATOM     15  C   UNL     1       2.701   6.114  19.236  0.00  0.00    +0.000 A 
ATOM     16  C   UNL     1       1.937   6.793  20.208  0.00  0.00    +0.000 A 
BRANCH  11  17
ATOM     17  C   UNL     1       0.975   8.992  21.124  0.00  0.00    +0.000 C 
ATOM     18  C   UNL     1      -0.339   8.330  21.570  0.00  0.00    +0.000 C 
BRANCH  17  23
ATOM     19  N   UNL     1      -0.130  10.871  19.744  0.00  0.00    +0.000 N 
ATOM     20  C   UNL     1       0.061  12.220  19.661  0.00  0.00    +0.000 A 
ATOM     21  N   UNL     1       0.976  12.592  20.522  0.00  0.00    +0.000 NA
ATOM     22  N   UNL     1       1.396  11.469  21.187  0.00  0.00    +0.000 NA
ATOM     23  C   UNL     1       0.737  10.427  20.714  0.00  0.00    +0.000 A 
BRANCH  19  25
ATOM     24  C   UNL     1      -1.757  11.014  17.888  0.00  0.00    +0.000 C 
ATOM     25  C   UNL     1      -1.101  10.154  18.952  0.00  0.00    +0.000 C 
ENDBRANCH  19  25
ENDBRANCH  17  23
ENDBRANCH  11  17
ENDBRANCH   1  15
BRANCH   8  26
ATOM     26  C   UNL     1       7.210   7.049  17.529  0.00  0.00    +0.000 C 
ATOM     27  F   UNL     1       7.990   6.808  18.618  0.00  0.00    +0.000 F 
ATOM     28  F   UNL     1       8.065   7.364  16.521  0.00  0.00    +0.000 F 
ATOM     29  F   UNL     1       6.519   8.184  17.812  0.00  0.00    +0.000 F 
ENDBRANCH   8  26
BRANCH   6  30
ATOM     30  C   UNL     1       5.217   4.059  13.958  0.00  0.00    +0.000 C 
BRANCH  30  31
ATOM     31  C   UNL     1       6.575   3.891  13.255  0.00  0.00    +0.000 C 
BRANCH  31  32
ATOM     32  N   UNL     1       6.503   2.859  12.219  0.00  0.00    +0.000 NA
ATOM     33  H   UNL     1       5.544   2.523  12.130  0.00  0.00    +0.000 HD
ATOM     34  H   UNL     1       7.061   2.052  12.499  0.00  0.00    +0.000 HD
ENDBRANCH  31  32
ENDBRANCH  30  31
ENDBRANCH   6  30
TORSDOF 8
ENDMDL
MODEL 2
REMARK VINA RESULT:      -8.5      0.830      1.408
REMARK  Name = 
REMARK  10 active torsions:
REMARK  status: ('A' for Active; 'I' for Inactive)
REMARK    1  A    between atoms: C_1  and  C_2
REMARK    2  A    between atoms: C_2  and  N_3
REMARK    3  A    between atoms: C_7  and  C_8
REMARK    4  A    between atoms: C_8  and  C_9
REMARK    5  A    between atoms: C_8  and  C_10
REMARK    6  A    between atoms: C_14  and  N_15
REMARK    7  A    between atoms: C_20  and  C_21
REMARK    8  A    between atoms: C_21  and  C_22
REMARK    9  A    between atoms: C_22  and  N_23
REMARK   10  A    between atoms: C_25  and  C_26
REMARK                            x       y       z     vdW  Elec       q    Type
REMARK                         _______ _______ _______ _____ _____    ______ ____
ROOT
ATOM      1  N   UNL     1       3.782   5.315  19.547  0.00  0.00    +0.000 N 
ATOM      2  C   UNL     1       5.166   5.783  19.485  0.00  0.00    +0.000 C 
ATOM      3  C   UNL     1       5.603   5.345  18.117  0.00  0.00    +0.000 A 
ATOM      4  C   UNL     1       4.797   4.272  17.734  0.00  0.00    +0.000 A 
ATOM      5  C   UNL     1       4.790   3.747  16.450  0.00  0.00    +0.000 A 
ATOM      6  C   UNL     1       5.644   4.333  15.511  0.00  0.00    +0.000 A 
ATOM      7  C   UNL     1       6.496   5.400  15.908  0.00  0.00    +0.000 A 
ATOM      8  C   UNL     1       6.491   5.920  17.224  0.00  0.00    +0.000 A 
ATOM      9  C   UNL     1       3.778   4.093  18.796  0.00  0.00    +0.000 C 
ATOM     10  O   UNL     1       2.996   3.159  18.833  0.00  0.00    +0.000 OA
ENDROOT
BRANCH   1  15
ATOM     11  C   UNL     1       1.753   8.351  19.559  0.00  0.00    +0.000 A 
ATOM     12  C   UNL     1       2.242   8.830  18.334  0.00  0.00    +0.000 A 
ATOM     13  C   UNL     1       2.746   7.951  17.377  0.00  0.00    +0.000 A 
ATOM     14  C   UNL     1       2.937   6.613  17.695  0.00  0.00    +0.000 A 
ATOM     15  C   UNL     1       2.748   6.199  19.014  0.00  0.00    +0.000 A 
ATOM     16  C   UNL     1       1.978   7.004  19.880  0.00  0.00    +0.000 A 
BRANCH  11  17
ATOM     17  C   UNL     1       1.029   9.311  20.492  0.00  0.00    +0.000 C 
ATOM     18  C   UNL     1       0.252   8.565  21.590  0.00  0.00    +0.000 C 
BRANCH  17  23
ATOM     19  N   UNL     1       0.407  11.606  19.491  0.00  0.00    +0.000 N 
ATOM     20  C   UNL     1      -0.726  12.115  18.923  0.00  0.00    +0.000 A 
ATOM     21  N   UNL     1      -1.642  11.181  18.850  0.00  0.00    +0.000 NA
ATOM     22  N   UNL     1      -1.106  10.035  19.378  0.00  0.00    +0.000 NA
ATOM     23  C   UNL     1       0.128  10.290  19.774  0.00  0.00    +0.000 A 
BRANCH  19  25
ATOM     24  C   UNL     1       2.402  12.574  18.398  0.00  0.00    +0.000 C 
ATOM     25  C   UNL     1       1.616  12.372  19.680  0.00  0.00    +0.000 C 
ENDBRANCH  19  25
ENDBRANCH  17  23
ENDBRANCH  11  17
ENDBRANCH   1  15
BRANCH   8  26
ATOM     26  C   UNL     1       7.351   7.110  17.567  0.00  0.00    +0.000 C 
ATOM     27  F   UNL     1       8.137   6.915  18.661  0.00  0.00    +0.000 F 
ATOM     28  F   UNL     1       8.197   7.443  16.557  0.00  0.00    +0.000 F 
ATOM     29  F   UNL     1       6.618   8.223  17.831  0.00  0.00    +0.000 F 
ENDBRANCH   8  26
BRANCH   6  30
ATOM     30  C   UNL     1       5.661   3.859  14.070  0.00  0.00    +0.000 C 
BRANCH  30  31
ATOM     31  C   UNL     1       6.891   4.311  13.264  0.00  0.00    +0.000 C 
BRANCH  31  32
ATOM     32  N   UNL     1       6.922   3.661  11.952  0.00  0.00    +0.000 NA
ATOM     33  H   UNL     1       6.058   3.142  11.801  0.00  0.00    +0.000 HD
ATOM     34  H   UNL     1       7.675   2.973  11.928  0.00  0.00    +0.000 HD
ENDBRANCH  31  32
ENDBRANCH  30  31
ENDBRANCH   6  30
TORSDOF 8
ENDMDL
MODEL 3
REMARK VINA RESULT:      -8.5      3.600      8.310
REMARK  Name = 
REMARK  10 active torsions:
REMARK  status: ('A' for Active; 'I' for Inactive)
REMARK    1  A    between atoms: C_1  and  C_2
REMARK    2  A    between atoms: C_2  and  N_3
REMARK    3  A    between atoms: C_7  and  C_8
REMARK    4  A    between atoms: C_8  and  C_9
REMARK    5  A    between atoms: C_8  and  C_10
REMARK    6  A    between atoms: C_14  and  N_15
REMARK    7  A    between atoms: C_20  and  C_21
REMARK    8  A    between atoms: C_21  and  C_22
REMARK    9  A    between atoms: C_22  and  N_23
REMARK   10  A    between atoms: C_25  and  C_26
REMARK                            x       y       z     vdW  Elec       q    Type
REMARK                         _______ _______ _______ _____ _____    ______ ____
ROOT
ATOM      1  N   UNL     1       2.486   8.334  19.394  0.00  0.00    +0.000 N 
ATOM      2  C   UNL     1       2.004   9.067  20.564  0.00  0.00    +0.000 C 
ATOM      3  C   UNL     1       0.692   9.623  20.088  0.00  0.00    +0.000 A 
ATOM      4  C   UNL     1       0.741   9.703  18.696  0.00  0.00    +0.000 A 
ATOM      5  C   UNL     1      -0.368   9.985  17.912  0.00  0.00    +0.000 A 
ATOM      6  C   UNL     1      -1.583  10.202  18.569  0.00  0.00    +0.000 A 
ATOM      7  C   UNL     1      -1.628  10.162  19.989  0.00  0.00    +0.000 A 
ATOM      8  C   UNL     1      -0.485   9.876  20.773  0.00  0.00    +0.000 A 
ATOM      9  C   UNL     1       2.027   9.099  18.271  0.00  0.00    +0.000 C 
ATOM     10  O   UNL     1       2.440   9.124  17.124  0.00  0.00    +0.000 OA
ENDROOT
BRANCH   1  15
ATOM     11  C   UNL     1       3.017   4.789  18.697  0.00  0.00    +0.000 A 
ATOM     12  C   UNL     1       2.633   4.355  19.975  0.00  0.00    +0.000 A 
ATOM     13  C   UNL     1       1.762   5.115  20.752  0.00  0.00    +0.000 A 
ATOM     14  C   UNL     1       1.409   6.396  20.348  0.00  0.00    +0.000 A 
ATOM     15  C   UNL     1       2.042   6.952  19.236  0.00  0.00    +0.000 A 
ATOM     16  C   UNL     1       2.678   6.095  18.312  0.00  0.00    +0.000 A 
BRANCH  11  17
ATOM     17  C   UNL     1       3.802   3.844  17.799  0.00  0.00    +0.000 C 
ATOM     18  C   UNL     1       3.598   2.373  18.199  0.00  0.00    +0.000 C 
BRANCH  17  23
ATOM     19  N   UNL     1       6.046   4.193  16.575  0.00  0.00    +0.000 N 
ATOM     20  C   UNL     1       7.321   4.448  16.992  0.00  0.00    +0.000 A 
ATOM     21  N   UNL     1       7.342   4.585  18.295  0.00  0.00    +0.000 NA
ATOM     22  N   UNL     1       6.058   4.418  18.747  0.00  0.00    +0.000 NA
ATOM     23  C   UNL     1       5.275   4.173  17.712  0.00  0.00    +0.000 A 
BRANCH  19  25
ATOM     24  C   UNL     1       6.659   4.683  14.229  0.00  0.00    +0.000 C 
ATOM     25  C   UNL     1       5.680   4.029  15.188  0.00  0.00    +0.000 C 
ENDBRANCH  19  25
ENDBRANCH  17  23
ENDBRANCH  11  17
ENDBRANCH   1  15
BRANCH   8  26
ATOM     26  C   UNL     1      -0.608   9.758  22.271  0.00  0.00    +0.000 C 
ATOM     27  F   UNL     1      -1.019   8.529  22.687  0.00  0.00    +0.000 F 
ATOM     28  F   UNL     1       0.571   9.990  22.906  0.00  0.00    +0.000 F 
ATOM     29  F   UNL     1      -1.500  10.642  22.790  0.00  0.00    +0.000 F 
ENDBRANCH   8  26
BRANCH   6  30
ATOM     30  C   UNL     1      -2.857  10.461  17.786  0.00  0.00    +0.000 C 
BRANCH  30  31
ATOM     31  C   UNL     1      -2.775  10.097  16.294  0.00  0.00    +0.000 C 
BRANCH  31  32
ATOM     32  N   UNL     1      -3.019  11.272  15.456  0.00  0.00    +0.000 NA
ATOM     33  H   UNL     1      -3.907  11.170  14.965  0.00  0.00    +0.000 HD
ATOM     34  H   UNL     1      -2.301  11.333  14.733  0.00  0.00    +0.000 HD
ENDBRANCH  31  32
ENDBRANCH  30  31
ENDBRANCH   6  30
TORSDOF 8
ENDMDL
MODEL 4
REMARK VINA RESULT:      -8.4      4.173      8.640
REMARK  Name = 
REMARK  10 active torsions:
REMARK  status: ('A' for Active; 'I' for Inactive)
REMARK    1  A    between atoms: C_1  and  C_2
REMARK    2  A    between atoms: C_2  and  N_3
REMARK    3  A    between atoms: C_7  and  C_8
REMARK    4  A    between atoms: C_8  and  C_9
REMARK    5  A    between atoms: C_8  and  C_10
REMARK    6  A    between atoms: C_14  and  N_15
REMARK    7  A    between atoms: C_20  and  C_21
REMARK    8  A    between atoms: C_21  and  C_22
REMARK    9  A    between atoms: C_22  and  N_23
REMARK   10  A    between atoms: C_25  and  C_26
REMARK                            x       y       z     vdW  Elec       q    Type
REMARK                         _______ _______ _______ _____ _____    ______ ____
ROOT
ATOM      1  N   UNL     1       0.099   9.059  20.649  0.00  0.00    +0.000 N 
ATOM      2  C   UNL     1      -1.088   9.193  19.805  0.00  0.00    +0.000 C 
ATOM      3  C   UNL     1      -1.044  10.638  19.400  0.00  0.00    +0.000 A 
ATOM      4  C   UNL     1      -0.305  11.330  20.361  0.00  0.00    +0.000 A 
ATOM      5  C   UNL     1       0.104  12.646  20.202  0.00  0.00    +0.000 A 
ATOM      6  C   UNL     1      -0.256  13.294  19.017  0.00  0.00    +0.000 A 
ATOM      7  C   UNL     1      -1.043  12.605  18.053  0.00  0.00    +0.000 A 
ATOM      8  C   UNL     1      -1.454  11.263  18.234  0.00  0.00    +0.000 A 
ATOM      9  C   UNL     1       0.216  10.323  21.316  0.00  0.00    +0.000 C 
ATOM     10  O   UNL     1       0.797  10.608  22.349  0.00  0.00    +0.000 OA
ENDROOT
BRANCH   1  15
ATOM     11  C   UNL     1       2.611   6.793  19.273  0.00  0.00    +0.000 A 
ATOM     12  C   UNL     1       2.478   7.250  17.953  0.00  0.00    +0.000 A 
ATOM     13  C   UNL     1       2.025   8.541  17.690  0.00  0.00    +0.000 A 
ATOM     14  C   UNL     1       1.529   9.326  18.721  0.00  0.00    +0.000 A 
ATOM     15  C   UNL     1       1.366   8.757  19.985  0.00  0.00    +0.000 A 
ATOM     16  C   UNL     1       2.080   7.583  20.304  0.00  0.00    +0.000 A 
BRANCH  11  17
ATOM     17  C   UNL     1       3.296   5.458  19.529  0.00  0.00    +0.000 C 
ATOM     18  C   UNL     1       4.800   5.517  19.215  0.00  0.00    +0.000 C 
BRANCH  17  23
ATOM     19  N   UNL     1       1.681   3.457  19.312  0.00  0.00    +0.000 N 
ATOM     20  C   UNL     1       1.471   2.511  18.351  0.00  0.00    +0.000 A 
ATOM     21  N   UNL     1       2.244   2.749  17.319  0.00  0.00    +0.000 NA
ATOM     22  N   UNL     1       2.978   3.871  17.604  0.00  0.00    +0.000 NA
ATOM     23  C   UNL     1       2.647   4.297  18.810  0.00  0.00    +0.000 A 
BRANCH  19  25
ATOM     24  C   UNL     1       1.661   2.765  21.687  0.00  0.00    +0.000 C 
ATOM     25  C   UNL     1       0.956   3.499  20.560  0.00  0.00    +0.000 C 
ENDBRANCH  19  25
ENDBRANCH  17  23
ENDBRANCH  11  17
ENDBRANCH   1  15
BRANCH   8  26
ATOM     26  C   UNL     1      -2.212  10.553  17.140  0.00  0.00    +0.000 C 
ATOM     27  F   UNL     1      -3.386  10.007  17.559  0.00  0.00    +0.000 F 
ATOM     28  F   UNL     1      -2.534  11.383  16.114  0.00  0.00    +0.000 F 
ATOM     29  F   UNL     1      -1.502   9.532  16.594  0.00  0.00    +0.000 F 
ENDBRANCH   8  26
BRANCH   6  30
ATOM     30  C   UNL     1       0.197  14.714  18.736  0.00  0.00    +0.000 C 
BRANCH  30  31
ATOM     31  C   UNL     1       1.620  15.038  19.222  0.00  0.00    +0.000 C 
BRANCH  31  32
ATOM     32  N   UNL     1       2.616  14.612  18.238  0.00  0.00    +0.000 NA
ATOM     33  H   UNL     1       2.773  15.355  17.559  0.00  0.00    +0.000 HD
ATOM     34  H   UNL     1       2.259  13.815  17.710  0.00  0.00    +0.000 HD
ENDBRANCH  31  32
ENDBRANCH  30  31
ENDBRANCH   6  30
TORSDOF 8
ENDMDL
MODEL 5
REMARK VINA RESULT:      -8.3      4.087      8.859
REMARK  Name = 
REMARK  10 active torsions:
REMARK  status: ('A' for Active; 'I' for Inactive)
REMARK    1  A    between atoms: C_1  and  C_2
REMARK    2  A    between atoms: C_2  and  N_3
REMARK    3  A    between atoms: C_7  and  C_8
REMARK    4  A    between atoms: C_8  and  C_9
REMARK    5  A    between atoms: C_8  and  C_10
REMARK    6  A    between atoms: C_14  and  N_15
REMARK    7  A    between atoms: C_20  and  C_21
REMARK    8  A    between atoms: C_21  and  C_22
REMARK    9  A    between atoms: C_22  and  N_23
REMARK   10  A    between atoms: C_25  and  C_26
REMARK                            x       y       z     vdW  Elec       q    Type
REMARK                         _______ _______ _______ _____ _____    ______ ____
ROOT
ATOM      1  N   UNL     1       0.299   8.849  20.799  0.00  0.00    +0.000 N 
ATOM      2  C   UNL     1      -0.908   9.101  20.012  0.00  0.00    +0.000 C 
ATOM      3  C   UNL     1      -0.837  10.580  19.761  0.00  0.00    +0.000 A 
ATOM      4  C   UNL     1      -0.053  11.147  20.767  0.00  0.00    +0.000 A 
ATOM      5  C   UNL     1       0.387  12.462  20.735  0.00  0.00    +0.000 A 
ATOM      6  C   UNL     1       0.010  13.241  19.637  0.00  0.00    +0.000 A 
ATOM      7  C   UNL     1      -0.822  12.678  18.631  0.00  0.00    +0.000 A 
ATOM      8  C   UNL     1      -1.263  11.334  18.681  0.00  0.00    +0.000 A 
ATOM      9  C   UNL     1       0.468  10.032  21.592  0.00  0.00    +0.000 C 
ATOM     10  O   UNL     1       1.086  10.191  22.632  0.00  0.00    +0.000 OA
ENDROOT
BRANCH   1  15
ATOM     11  C   UNL     1       2.768   6.672  19.219  0.00  0.00    +0.000 A 
ATOM     12  C   UNL     1       2.573   7.183  17.927  0.00  0.00    +0.000 A 
ATOM     13  C   UNL     1       2.096   8.478  17.739  0.00  0.00    +0.000 A 
ATOM     14  C   UNL     1       1.639   9.214  18.824  0.00  0.00    +0.000 A 
ATOM     15  C   UNL     1       1.537   8.591  20.068  0.00  0.00    +0.000 A 
ATOM     16  C   UNL     1       2.276   7.412  20.305  0.00  0.00    +0.000 A 
BRANCH  11  17
ATOM     17  C   UNL     1       3.477   5.335  19.387  0.00  0.00    +0.000 C 
ATOM     18  C   UNL     1       4.929   5.390  18.884  0.00  0.00    +0.000 C 
BRANCH  17  23
ATOM     19  N   UNL     1       1.725   3.443  19.328  0.00  0.00    +0.000 N 
ATOM     20  C   UNL     1       1.435   2.449  18.438  0.00  0.00    +0.000 A 
ATOM     21  N   UNL     1       2.207   2.560  17.385  0.00  0.00    +0.000 NA
ATOM     22  N   UNL     1       3.022   3.645  17.583  0.00  0.00    +0.000 NA
ATOM     23  C   UNL     1       2.739   4.176  18.759  0.00  0.00    +0.000 A 
BRANCH  19  25
ATOM     24  C   UNL     1       1.489   2.674  21.667  0.00  0.00    +0.000 C 
ATOM     25  C   UNL     1       1.022   3.622  20.577  0.00  0.00    +0.000 C 
ENDBRANCH  19  25
ENDBRANCH  17  23
ENDBRANCH  11  17
ENDBRANCH   1  15
BRANCH   8  26
ATOM     26  C   UNL     1      -2.070  10.764  17.543  0.00  0.00    +0.000 C 
ATOM     27  F   UNL     1      -1.442   9.750  16.887  0.00  0.00    +0.000 F 
ATOM     28  F   UNL     1      -3.260  10.255  17.958  0.00  0.00    +0.000 F 
ATOM     29  F   UNL     1      -2.364  11.692  16.596  0.00  0.00    +0.000 F 
ENDBRANCH   8  26
BRANCH   6  30
ATOM     30  C   UNL     1       0.493  14.673  19.495  0.00  0.00    +0.000 C 
BRANCH  30  31
ATOM     31  C   UNL     1      -0.626  15.728  19.515  0.00  0.00    +0.000 C 
BRANCH  31  32
ATOM     32  N   UNL     1      -0.665  16.471  18.254  0.00  0.00    +0.000 NA
ATOM     33  H   UNL     1      -1.632  16.627  17.972  0.00  0.00    +0.000 HD
ATOM     34  H   UNL     1      -0.241  15.912  17.513  0.00  0.00    +0.000 HD
ENDBRANCH  31  32
ENDBRANCH  30  31
ENDBRANCH   6  30
TORSDOF 8
ENDMDL
MODEL 6
REMARK VINA RESULT:      -8.3      0.943      1.644
REMARK  Name = 
REMARK  10 active torsions:
REMARK  status: ('A' for Active; 'I' for Inactive)
REMARK    1  A    between atoms: C_1  and  C_2
REMARK    2  A    between atoms: C_2  and  N_3
REMARK    3  A    between atoms: C_7  and  C_8
REMARK    4  A    between atoms: C_8  and  C_9
REMARK    5  A    between atoms: C_8  and  C_10
REMARK    6  A    between atoms: C_14  and  N_15
REMARK    7  A    between atoms: C_20  and  C_21
REMARK    8  A    between atoms: C_21  and  C_22
REMARK    9  A    between atoms: C_22  and  N_23
REMARK   10  A    between atoms: C_25  and  C_26
REMARK                            x       y       z     vdW  Elec       q    Type
REMARK                         _______ _______ _______ _____ _____    ______ ____
ROOT
ATOM      1  N   UNL     1       3.626   5.464  19.542  0.00  0.00    +0.000 N 
ATOM      2  C   UNL     1       5.033   5.858  19.472  0.00  0.00    +0.000 C 
ATOM      3  C   UNL     1       5.436   5.400  18.100  0.00  0.00    +0.000 A 
ATOM      4  C   UNL     1       4.572   4.373  17.720  0.00  0.00    +0.000 A 
ATOM      5  C   UNL     1       4.529   3.853  16.435  0.00  0.00    +0.000 A 
ATOM      6  C   UNL     1       5.406   4.395  15.491  0.00  0.00    +0.000 A 
ATOM      7  C   UNL     1       6.317   5.414  15.885  0.00  0.00    +0.000 A 
ATOM      8  C   UNL     1       6.348   5.930  17.202  0.00  0.00    +0.000 A 
ATOM      9  C   UNL     1       3.552   4.246  18.788  0.00  0.00    +0.000 C 
ATOM     10  O   UNL     1       2.721   3.354  18.828  0.00  0.00    +0.000 OA
ENDROOT
BRANCH   1  15
ATOM     11  C   UNL     1       1.520   8.440  19.739  0.00  0.00    +0.000 A 
ATOM     12  C   UNL     1       2.138   9.099  18.664  0.00  0.00    +0.000 A 
ATOM     13  C   UNL     1       2.778   8.375  17.661  0.00  0.00    +0.000 A 
ATOM     14  C   UNL     1       2.970   7.008  17.805  0.00  0.00    +0.000 A 
ATOM     15  C   UNL     1       2.637   6.403  19.018  0.00  0.00    +0.000 A 
ATOM     16  C   UNL     1       1.745   7.064  19.889  0.00  0.00    +0.000 A 
BRANCH  11  17
ATOM     17  C   UNL     1       0.660   9.245  20.704  0.00  0.00    +0.000 C 
ATOM     18  C   UNL     1      -0.114   8.337  21.674  0.00  0.00    +0.000 C 
BRANCH  17  23
ATOM     19  N   UNL     1      -0.690  11.434  20.497  0.00  0.00    +0.000 N 
ATOM     20  C   UNL     1      -1.595  11.904  19.589  0.00  0.00    +0.000 A 
ATOM     21  N   UNL     1      -1.729  11.043  18.610  0.00  0.00    +0.000 NA
ATOM     22  N   UNL     1      -0.899   9.985  18.876  0.00  0.00    +0.000 NA
ATOM     23  C   UNL     1      -0.276  10.214  20.018  0.00  0.00    +0.000 A 
BRANCH  19  25
ATOM     24  C   UNL     1      -1.134  11.844  22.895  0.00  0.00    +0.000 C 
ATOM     25  C   UNL     1      -0.289  12.166  21.675  0.00  0.00    +0.000 C 
ENDBRANCH  19  25
ENDBRANCH  17  23
ENDBRANCH  11  17
ENDBRANCH   1  15
BRANCH   8  26
ATOM     26  C   UNL     1       7.273   7.072  17.542  0.00  0.00    +0.000 C 
ATOM     27  F   UNL     1       8.150   7.375  16.547  0.00  0.00    +0.000 F 
ATOM     28  F   UNL     1       6.597   8.222  17.804  0.00  0.00    +0.000 F 
ATOM     29  F   UNL     1       8.031   6.818  18.640  0.00  0.00    +0.000 F 
ENDBRANCH   8  26
BRANCH   6  30
ATOM     30  C   UNL     1       5.388   3.924  14.048  0.00  0.00    +0.000 C 
BRANCH  30  31
ATOM     31  C   UNL     1       6.687   4.200  13.271  0.00  0.00    +0.000 C 
BRANCH  31  32
ATOM     32  N   UNL     1       6.714   3.446  12.017  0.00  0.00    +0.000 NA
ATOM     33  H   UNL     1       5.794   3.468  11.578  0.00  0.00    +0.000 HD
ATOM     34  H   UNL     1       6.912   2.464  12.211  0.00  0.00    +0.000 HD
ENDBRANCH  31  32
ENDBRANCH  30  31
ENDBRANCH   6  30
TORSDOF 8
ENDMDL
MODEL 7
REMARK VINA RESULT:      -8.2      3.603      8.369
REMARK  Name = 
REMARK  10 active torsions:
REMARK  status: ('A' for Active; 'I' for Inactive)
REMARK    1  A    between atoms: C_1  and  C_2
REMARK    2  A    between atoms: C_2  and  N_3
REMARK    3  A    between atoms: C_7  and  C_8
REMARK    4  A    between atoms: C_8  and  C_9
REMARK    5  A    between atoms: C_8  and  C_10
REMARK    6  A    between atoms: C_14  and  N_15
REMARK    7  A    between atoms: C_20  and  C_21
REMARK    8  A    between atoms: C_21  and  C_22
REMARK    9  A    between atoms: C_22  and  N_23
REMARK   10  A    between atoms: C_25  and  C_26
REMARK                            x       y       z     vdW  Elec       q    Type
REMARK                         _______ _______ _______ _____ _____    ______ ____
ROOT
ATOM      1  N   UNL     1       2.587   7.808  19.455  0.00  0.00    +0.000 N 
ATOM      2  C   UNL     1       2.123   8.599  20.594  0.00  0.00    +0.000 C 
ATOM      3  C   UNL     1       0.921   9.306  20.037  0.00  0.00    +0.000 A 
ATOM      4  C   UNL     1       1.067   9.373  18.651  0.00  0.00    +0.000 A 
ATOM      5  C   UNL     1       0.052   9.782  17.799  0.00  0.00    +0.000 A 
ATOM      6  C   UNL     1      -1.167  10.147  18.378  0.00  0.00    +0.000 A 
ATOM      7  C   UNL     1      -1.306  10.119  19.793  0.00  0.00    +0.000 A 
ATOM      8  C   UNL     1      -0.258   9.701  20.647  0.00  0.00    +0.000 A 
ATOM      9  C   UNL     1       2.296   8.617  18.308  0.00  0.00    +0.000 C 
ATOM     10  O   UNL     1       2.780   8.587  17.189  0.00  0.00    +0.000 OA
ENDROOT
BRANCH   1  15
ATOM     11  C   UNL     1       2.680   4.287  18.492  0.00  0.00    +0.000 A 
ATOM     12  C   UNL     1       2.391   3.801  19.776  0.00  0.00    +0.000 A 
ATOM     13  C   UNL     1       1.689   4.583  20.690  0.00  0.00    +0.000 A 
ATOM     14  C   UNL     1       1.426   5.917  20.406  0.00  0.00    +0.000 A 
ATOM     15  C   UNL     1       1.991   6.488  19.265  0.00  0.00    +0.000 A 
ATOM     16  C   UNL     1       2.437   5.643  18.227  0.00  0.00    +0.000 A 
BRANCH  11  17
ATOM     17  C   UNL     1       3.267   3.337  17.457  0.00  0.00    +0.000 C 
ATOM     18  C   UNL     1       3.407   1.908  18.005  0.00  0.00    +0.000 C 
BRANCH  17  23
ATOM     19  N   UNL     1       5.639   4.346  17.561  0.00  0.00    +0.000 N 
ATOM     20  C   UNL     1       6.552   4.716  16.615  0.00  0.00    +0.000 A 
ATOM     21  N   UNL     1       6.093   4.429  15.421  0.00  0.00    +0.000 NA
ATOM     22  N   UNL     1       4.857   3.858  15.581  0.00  0.00    +0.000 NA
ATOM     23  C   UNL     1       4.576   3.814  16.870  0.00  0.00    +0.000 A 
BRANCH  19  25
ATOM     24  C   UNL     1       6.909   5.536  19.317  0.00  0.00    +0.000 C 
ATOM     25  C   UNL     1       5.859   4.493  18.980  0.00  0.00    +0.000 C 
ENDBRANCH  19  25
ENDBRANCH  17  23
ENDBRANCH  11  17
ENDBRANCH   1  15
BRANCH   8  26
ATOM     26  C   UNL     1      -0.490   9.607  22.134  0.00  0.00    +0.000 C 
ATOM     27  F   UNL     1      -1.393  10.511  22.601  0.00  0.00    +0.000 F 
ATOM     28  F   UNL     1      -0.960   8.387  22.506  0.00  0.00    +0.000 F 
ATOM     29  F   UNL     1       0.645   9.812  22.852  0.00  0.00    +0.000 F 
ENDBRANCH   8  26
BRANCH   6  30
ATOM     30  C   UNL     1      -2.349  10.553  17.517  0.00  0.00    +0.000 C 
BRANCH  30  31
ATOM     31  C   UNL     1      -3.295  11.573  18.174  0.00  0.00    +0.000 C 
BRANCH  31  32
ATOM     32  N   UNL     1      -4.296  12.047  17.217  0.00  0.00    +0.000 NA
ATOM     33  H   UNL     1      -4.907  12.730  17.663  0.00  0.00    +0.000 HD
ATOM     34  H   UNL     1      -4.895  11.272  16.933  0.00  0.00    +0.000 HD
ENDBRANCH  31  32
ENDBRANCH  30  31
ENDBRANCH   6  30
TORSDOF 8
ENDMDL
MODEL 8
REMARK VINA RESULT:      -8.0      3.617      8.476
REMARK  Name = 
REMARK  10 active torsions:
REMARK  status: ('A' for Active; 'I' for Inactive)
REMARK    1  A    between atoms: C_1  and  C_2
REMARK    2  A    between atoms: C_2  and  N_3
REMARK    3  A    between atoms: C_7  and  C_8
REMARK    4  A    between atoms: C_8  and  C_9
REMARK    5  A    between atoms: C_8  and  C_10
REMARK    6  A    between atoms: C_14  and  N_15
REMARK    7  A    between atoms: C_20  and  C_21
REMARK    8  A    between atoms: C_21  and  C_22
REMARK    9  A    between atoms: C_22  and  N_23
REMARK   10  A    between atoms: C_25  and  C_26
REMARK                            x       y       z     vdW  Elec       q    Type
REMARK                         _______ _______ _______ _____ _____    ______ ____
ROOT
ATOM      1  N   UNL     1       0.441   8.758  20.784  0.00  0.00    +0.000 N 
ATOM      2  C   UNL     1      -0.775   9.049  20.025  0.00  0.00    +0.000 C 
ATOM      3  C   UNL     1      -0.641  10.517  19.737  0.00  0.00    +0.000 A 
ATOM      4  C   UNL     1       0.198  11.068  20.706  0.00  0.00    +0.000 A 
ATOM      5  C   UNL     1       0.698  12.360  20.632  0.00  0.00    +0.000 A 
ATOM      6  C   UNL     1       0.327  13.132  19.527  0.00  0.00    +0.000 A 
ATOM      7  C   UNL     1      -0.560  12.587  18.558  0.00  0.00    +0.000 A 
ATOM      8  C   UNL     1      -1.063  11.267  18.652  0.00  0.00    +0.000 A 
ATOM      9  C   UNL     1       0.689   9.948  21.544  0.00  0.00    +0.000 C 
ATOM     10  O   UNL     1       1.343  10.101  22.561  0.00  0.00    +0.000 OA
ENDROOT
BRANCH   1  15
ATOM     11  C   UNL     1       2.653   6.457  19.010  0.00  0.00    +0.000 A 
ATOM     12  C   UNL     1       2.519   7.092  17.766  0.00  0.00    +0.000 A 
ATOM     13  C   UNL     1       2.191   8.444  17.690  0.00  0.00    +0.000 A 
ATOM     14  C   UNL     1       1.817   9.133  18.836  0.00  0.00    +0.000 A 
ATOM     15  C   UNL     1       1.644   8.424  20.025  0.00  0.00    +0.000 A 
ATOM     16  C   UNL     1       2.245   7.154  20.157  0.00  0.00    +0.000 A 
BRANCH  11  17
ATOM     17  C   UNL     1       3.207   5.040  19.061  0.00  0.00    +0.000 C 
ATOM     18  C   UNL     1       2.865   4.339  20.386  0.00  0.00    +0.000 C 
BRANCH  17  23
ATOM     19  N   UNL     1       5.286   4.487  17.636  0.00  0.00    +0.000 N 
ATOM     20  C   UNL     1       6.630   4.518  17.873  0.00  0.00    +0.000 A 
ATOM     21  N   UNL     1       6.857   4.982  19.078  0.00  0.00    +0.000 NA
ATOM     22  N   UNL     1       5.641   5.264  19.646  0.00  0.00    +0.000 NA
ATOM     23  C   UNL     1       4.691   4.959  18.782  0.00  0.00    +0.000 A 
BRANCH  19  25
ATOM     24  C   UNL     1       5.436   4.612  15.171  0.00  0.00    +0.000 C 
ATOM     25  C   UNL     1       4.708   4.061  16.384  0.00  0.00    +0.000 C 
ENDBRANCH  19  25
ENDBRANCH  17  23
ENDBRANCH  11  17
ENDBRANCH   1  15
BRANCH   8  26
ATOM     26  C   UNL     1      -1.928  10.711  17.550  0.00  0.00    +0.000 C 
ATOM     27  F   UNL     1      -3.124  10.231  17.989  0.00  0.00    +0.000 F 
ATOM     28  F   UNL     1      -2.226  11.643  16.608  0.00  0.00    +0.000 F 
ATOM     29  F   UNL     1      -1.335   9.681  16.892  0.00  0.00    +0.000 F 
ENDBRANCH   8  26
BRANCH   6  30
ATOM     30  C   UNL     1       0.873  14.535  19.337  0.00  0.00    +0.000 C 
BRANCH  30  31
ATOM     31  C   UNL     1       2.398  14.606  19.151  0.00  0.00    +0.000 C 
BRANCH  31  32
ATOM     32  N   UNL     1       2.791  14.062  17.851  0.00  0.00    +0.000 NA
ATOM     33  H   UNL     1       2.484  13.093  17.773  0.00  0.00    +0.000 HD
ATOM     34  H   UNL     1       3.809  14.043  17.780  0.00  0.00    +0.000 HD
ENDBRANCH  31  32
ENDBRANCH  30  31
ENDBRANCH   6  30
TORSDOF 8
ENDMDL
MODEL 9
REMARK VINA RESULT:      -8.0      6.504      9.694
REMARK  Name = 
REMARK  10 active torsions:
REMARK  status: ('A' for Active; 'I' for Inactive)
REMARK    1  A    between atoms: C_1  and  C_2
REMARK    2  A    between atoms: C_2  and  N_3
REMARK    3  A    between atoms: C_7  and  C_8
REMARK    4  A    between atoms: C_8  and  C_9
REMARK    5  A    between atoms: C_8  and  C_10
REMARK    6  A    between atoms: C_14  and  N_15
REMARK    7  A    between atoms: C_20  and  C_21
REMARK    8  A    between atoms: C_21  and  C_22
REMARK    9  A    between atoms: C_22  and  N_23
REMARK   10  A    between atoms: C_25  and  C_26
REMARK                            x       y       z     vdW  Elec       q    Type
REMARK                         _______ _______ _______ _____ _____    ______ ____
ROOT
ATOM      1  N   UNL     1      -0.427  10.815  18.321  0.00  0.00    +0.000 N 
ATOM      2  C   UNL     1       0.255  10.102  19.400  0.00  0.00    +0.000 C 
ATOM      3  C   UNL     1      -0.079  10.930  20.607  0.00  0.00    +0.000 A 
ATOM      4  C   UNL     1      -0.374  12.222  20.171  0.00  0.00    +0.000 A 
ATOM      5  C   UNL     1      -0.915  13.197  20.995  0.00  0.00    +0.000 A 
ATOM      6  C   UNL     1      -1.165  12.849  22.326  0.00  0.00    +0.000 A 
ATOM      7  C   UNL     1      -0.829  11.546  22.784  0.00  0.00    +0.000 A 
ATOM      8  C   UNL     1      -0.273  10.565  21.929  0.00  0.00    +0.000 A 
ATOM      9  C   UNL     1      -0.340  12.199  18.689  0.00  0.00    +0.000 C 
ATOM     10  O   UNL     1      -0.429  13.197  17.994  0.00  0.00    +0.000 OA
ENDROOT
BRANCH   1  15
ATOM     11  C   UNL     1      -4.004  11.548  18.269  0.00  0.00    +0.000 A 
ATOM     12  C   UNL     1      -4.134  11.424  16.877  0.00  0.00    +0.000 A 
ATOM     13  C   UNL     1      -3.252  10.630  16.149  0.00  0.00    +0.000 A 
ATOM     14  C   UNL     1      -2.127  10.097  16.764  0.00  0.00    +0.000 A 
ATOM     15  C   UNL     1      -1.827  10.481  18.072  0.00  0.00    +0.000 A 
ATOM     16  C   UNL     1      -2.849  11.030  18.874  0.00  0.00    +0.000 A 
BRANCH  11  17
ATOM     17  C   UNL     1      -5.099  12.256  19.055  0.00  0.00    +0.000 C 
ATOM     18  C   UNL     1      -4.525  13.091  20.211  0.00  0.00    +0.000 C 
BRANCH  17  23
ATOM     19  N   UNL     1      -7.089  11.586  20.555  0.00  0.00    +0.000 N 
ATOM     20  C   UNL     1      -7.802  10.434  20.722  0.00  0.00    +0.000 A 
ATOM     21  N   UNL     1      -7.376   9.524  19.880  0.00  0.00    +0.000 NA
ATOM     22  N   UNL     1      -6.364  10.085  19.144  0.00  0.00    +0.000 NA
ATOM     23  C   UNL     1      -6.182  11.327  19.554  0.00  0.00    +0.000 A 
BRANCH  19  25
ATOM     24  C   UNL     1      -7.915  13.915  20.460  0.00  0.00    +0.000 C 
ATOM     25  C   UNL     1      -7.339  12.794  21.306  0.00  0.00    +0.000 C 
ENDBRANCH  19  25
ENDBRANCH  17  23
ENDBRANCH  11  17
ENDBRANCH   1  15
BRANCH   8  26
ATOM     26  C   UNL     1      -0.018   9.171  22.446  0.00  0.00    +0.000 C 
ATOM     27  F   UNL     1      -0.133   9.064  23.797  0.00  0.00    +0.000 F 
ATOM     28  F   UNL     1      -0.885   8.262  21.927  0.00  0.00    +0.000 F 
ATOM     29  F   UNL     1       1.228   8.724  22.142  0.00  0.00    +0.000 F 
ENDBRANCH   8  26
BRANCH   6  30
ATOM     30  C   UNL     1      -1.808  13.836  23.283  0.00  0.00    +0.000 C 
BRANCH  30  31
ATOM     31  C   UNL     1      -3.244  13.475  23.702  0.00  0.00    +0.000 C 
BRANCH  31  32
ATOM     32  N   UNL     1      -3.588  14.104  24.978  0.00  0.00    +0.000 NA
ATOM     33  H   UNL     1      -2.815  14.684  25.299  0.00  0.00    +0.000 HD
ATOM     34  H   UNL     1      -3.719  13.385  25.691  0.00  0.00    +0.000 HD
ENDBRANCH  31  32
ENDBRANCH  30  31
ENDBRANCH   6  30
TORSDOF 8
ENDMDL
