MODEL 1
REMARK VINA RESULT:      -9.0      0.000      0.000
REMARK  Name = 
REMARK  4 active torsions:
REMARK  status: ('A' for Active; 'I' for Inactive)
REMARK    1  A    between atoms: C_2  and  C_16
REMARK    2  A    between atoms: N_3  and  C_4
REMARK    3  A    between atoms: C_9  and  C_10
REMARK    4  A    between atoms: N_12  and  C_13
REMARK                            x       y       z     vdW  Elec       q    Type
REMARK                         _______ _______ _______ _____ _____    ______ ____
ROOT
ATOM      1  O   UNL     1       2.299   8.513  17.122  0.00  0.00    +0.000 OA
ATOM      2  C   UNL     1       2.496   7.974  18.203  0.00  0.00    +0.000 C 
ATOM      3  N   UNL     1       3.203   6.803  18.417  0.00  0.00    +0.000 N 
ATOM      4  H   UNL     1       2.980   6.287  19.265  0.00  0.00    +0.000 HD
ENDROOT
BRANCH   2   5
ATOM      5  C   UNL     1       1.826   8.468  19.438  0.00  0.00    +0.000 A 
ATOM      6  C   UNL     1       1.803   7.626  20.559  0.00  0.00    +0.000 A 
ATOM      7  C   UNL     1       0.974   7.936  21.627  0.00  0.00    +0.000 A 
ATOM      8  C   UNL     1       0.261   9.124  21.649  0.00  0.00    +0.000 A 
ATOM      9  C   UNL     1      -0.569   9.413  22.731  0.00  0.00    +0.000 A 
ATOM     10  C   UNL     1      -1.007  10.710  22.960  0.00  0.00    +0.000 A 
ATOM     11  C   UNL     1      -0.724  11.700  22.024  0.00  0.00    +0.000 A 
ATOM     12  C   UNL     1      -0.084  11.372  20.823  0.00  0.00    +0.000 A 
ATOM     13  C   UNL     1       0.448  10.088  20.622  0.00  0.00    +0.000 A 
ATOM     14  C   UNL     1       1.175   9.711  19.469  0.00  0.00    +0.000 A 
ENDBRANCH   2   5
BRANCH   3  15
ATOM     15  C   UNL     1       3.906   6.080  17.436  0.00  0.00    +0.000 A 
ATOM     16  C   UNL     1       4.916   6.698  16.688  0.00  0.00    +0.000 A 
ATOM     17  C   UNL     1       5.708   5.945  15.816  0.00  0.00    +0.000 A 
ATOM     18  C   UNL     1       5.483   4.578  15.666  0.00  0.00    +0.000 A 
ATOM     19  C   UNL     1       4.472   3.955  16.396  0.00  0.00    +0.000 A 
ATOM     20  C   UNL     1       3.681   4.698  17.283  0.00  0.00    +0.000 A 
BRANCH  20  21
ATOM     21  C   UNL     1       2.572   3.977  17.979  0.00  0.00    +0.000 C 
ATOM     22  O   UNL     1       1.428   4.031  17.546  0.00  0.00    +0.000 OA
ATOM     23  N   UNL     1       2.922   3.308  19.145  0.00  0.00    +0.000 N 
ATOM     24  H   UNL     1       3.839   3.499  19.535  0.00  0.00    +0.000 HD
BRANCH  23  25
ATOM     25  C   UNL     1       1.957   2.709  20.015  0.00  0.00    +0.000 C 
ATOM     26  C   UNL     1       1.145   3.575  20.942  0.00  0.00    +0.000 C 
ATOM     27  C   UNL     1       2.168   2.632  21.501  0.00  0.00    +0.000 C 
ENDBRANCH  23  25
ENDBRANCH  20  21
ENDBRANCH   3  15
TORSDOF 4
ENDMDL
MODEL 2
REMARK VINA RESULT:      -9.0      0.985      1.642
REMARK  Name = 
REMARK  4 active torsions:
REMARK  status: ('A' for Active; 'I' for Inactive)
REMARK    1  A    between atoms: C_2  and  C_16
REMARK    2  A    between atoms: N_3  and  C_4
REMARK    3  A    between atoms: C_9  and  C_10
REMARK    4  A    between atoms: N_12  and  C_13
REMARK                            x       y       z     vdW  Elec       q    Type
REMARK                         _______ _______ _______ _____ _____    ______ ____
ROOT
ATOM      1  O   UNL     1       3.464   5.961  20.027  0.00  0.00    +0.000 OA
ATOM      2  C   UNL     1       2.919   6.690  19.211  0.00  0.00    +0.000 C 
ATOM      3  N   UNL     1       3.174   6.731  17.851  0.00  0.00    +0.000 N 
ATOM      4  H   UNL     1       2.943   7.599  17.372  0.00  0.00    +0.000 HD
ENDROOT
BRANCH   2   5
ATOM      5  C   UNL     1       1.992   7.770  19.649  0.00  0.00    +0.000 A 
ATOM      6  C   UNL     1       1.624   8.746  18.711  0.00  0.00    +0.000 A 
ATOM      7  C   UNL     1       0.983   9.898  19.141  0.00  0.00    +0.000 A 
ATOM      8  C   UNL     1       0.599  10.042  20.466  0.00  0.00    +0.000 A 
ATOM      9  C   UNL     1      -0.041  11.211  20.877  0.00  0.00    +0.000 A 
ATOM     10  C   UNL     1      -0.746  11.248  22.072  0.00  0.00    +0.000 A 
ATOM     11  C   UNL     1      -0.697  10.151  22.926  0.00  0.00    +0.000 A 
ATOM     12  C   UNL     1       0.127   9.059  22.626  0.00  0.00    +0.000 A 
ATOM     13  C   UNL     1       0.767   8.968  21.378  0.00  0.00    +0.000 A 
ATOM     14  C   UNL     1       1.547   7.858  20.977  0.00  0.00    +0.000 A 
ENDBRANCH   2   5
BRANCH   3  15
ATOM     15  C   UNL     1       4.037   5.866  17.153  0.00  0.00    +0.000 A 
ATOM     16  C   UNL     1       5.187   6.366  16.529  0.00  0.00    +0.000 A 
ATOM     17  C   UNL     1       6.116   5.489  15.959  0.00  0.00    +0.000 A 
ATOM     18  C   UNL     1       5.893   4.114  15.986  0.00  0.00    +0.000 A 
ATOM     19  C   UNL     1       4.745   3.608  16.594  0.00  0.00    +0.000 A 
ATOM     20  C   UNL     1       3.814   4.476  17.180  0.00  0.00    +0.000 A 
BRANCH  20  21
ATOM     21  C   UNL     1       2.574   3.866  17.750  0.00  0.00    +0.000 C 
ATOM     22  O   UNL     1       1.495   4.015  17.190  0.00  0.00    +0.000 OA
ATOM     23  N   UNL     1       2.730   3.186  18.951  0.00  0.00    +0.000 N 
ATOM     24  H   UNL     1       3.611   3.301  19.441  0.00  0.00    +0.000 HD
BRANCH  23  25
ATOM     25  C   UNL     1       1.624   2.688  19.709  0.00  0.00    +0.000 C 
ATOM     26  C   UNL     1       0.840   3.622  20.593  0.00  0.00    +0.000 C 
ATOM     27  C   UNL     1       1.687   2.546  21.205  0.00  0.00    +0.000 C 
ENDBRANCH  23  25
ENDBRANCH  20  21
ENDBRANCH   3  15
TORSDOF 4
ENDMDL
MODEL 3
REMARK VINA RESULT:      -8.5      2.198      8.182
REMARK  Name = 
REMARK  4 active torsions:
REMARK  status: ('A' for Active; 'I' for Inactive)
REMARK    1  A    between atoms: C_2  and  C_16
REMARK    2  A    between atoms: N_3  and  C_4
REMARK    3  A    between atoms: C_9  and  C_10
REMARK    4  A    between atoms: N_12  and  C_13
REMARK                            x       y       z     vdW  Elec       q    Type
REMARK                         _______ _______ _______ _____ _____    ______ ____
ROOT
ATOM      1  O   UNL     1       5.776   4.055  19.035  0.00  0.00    +0.000 OA
ATOM      2  C   UNL     1       5.161   4.146  17.982  0.00  0.00    +0.000 C 
ATOM      3  N   UNL     1       3.791   4.024  17.820  0.00  0.00    +0.000 N 
ATOM      4  H   UNL     1       3.466   3.752  16.895  0.00  0.00    +0.000 HD
ENDROOT
BRANCH   2   5
ATOM      5  C   UNL     1       5.881   4.247  16.681  0.00  0.00    +0.000 A 
ATOM      6  C   UNL     1       7.112   4.919  16.658  0.00  0.00    +0.000 A 
ATOM      7  C   UNL     1       7.679   5.259  15.438  0.00  0.00    +0.000 A 
ATOM      8  C   UNL     1       7.103   4.842  14.248  0.00  0.00    +0.000 A 
ATOM      9  C   UNL     1       7.688   5.201  13.034  0.00  0.00    +0.000 A 
ATOM     10  C   UNL     1       7.364   4.524  11.867  0.00  0.00    +0.000 A 
ATOM     11  C   UNL     1       6.346   3.575  11.889  0.00  0.00    +0.000 A 
ATOM     12  C   UNL     1       5.599   3.370  13.055  0.00  0.00    +0.000 A 
ATOM     13  C   UNL     1       5.979   3.975  14.265  0.00  0.00    +0.000 A 
ATOM     14  C   UNL     1       5.319   3.749  15.495  0.00  0.00    +0.000 A 
ENDBRANCH   2   5
BRANCH   3  15
ATOM     15  C   UNL     1       2.855   3.872  18.859  0.00  0.00    +0.000 A 
ATOM     16  C   UNL     1       2.596   2.606  19.399  0.00  0.00    +0.000 A 
ATOM     17  C   UNL     1       1.774   2.475  20.523  0.00  0.00    +0.000 A 
ATOM     18  C   UNL     1       1.187   3.600  21.099  0.00  0.00    +0.000 A 
ATOM     19  C   UNL     1       1.428   4.863  20.561  0.00  0.00    +0.000 A 
ATOM     20  C   UNL     1       2.261   5.008  19.444  0.00  0.00    +0.000 A 
BRANCH  20  21
ATOM     21  C   UNL     1       2.417   6.383  18.880  0.00  0.00    +0.000 C 
ATOM     22  O   UNL     1       3.140   6.579  17.911  0.00  0.00    +0.000 OA
ATOM     23  N   UNL     1       1.742   7.394  19.552  0.00  0.00    +0.000 N 
ATOM     24  H   UNL     1       1.348   7.168  20.460  0.00  0.00    +0.000 HD
BRANCH  23  25
ATOM     25  C   UNL     1       1.915   8.780  19.244  0.00  0.00    +0.000 C 
ATOM     26  C   UNL     1       0.748   9.726  19.364  0.00  0.00    +0.000 C 
ATOM     27  C   UNL     1       1.313   9.400  18.013  0.00  0.00    +0.000 C 
ENDBRANCH  23  25
ENDBRANCH  20  21
ENDBRANCH   3  15
TORSDOF 4
ENDMDL
MODEL 4
REMARK VINA RESULT:      -8.4      0.663      1.454
REMARK  Name = 
REMARK  4 active torsions:
REMARK  status: ('A' for Active; 'I' for Inactive)
REMARK    1  A    between atoms: C_2  and  C_16
REMARK    2  A    between atoms: N_3  and  C_4
REMARK    3  A    between atoms: C_9  and  C_10
REMARK    4  A    between atoms: N_12  and  C_13
REMARK                            x       y       z     vdW  Elec       q    Type
REMARK                         _______ _______ _______ _____ _____    ______ ____
ROOT
ATOM      1  O   UNL     1       2.650   8.762  16.844  0.00  0.00    +0.000 OA
ATOM      2  C   UNL     1       2.498   8.253  17.946  0.00  0.00    +0.000 C 
ATOM      3  N   UNL     1       3.037   7.051  18.373  0.00  0.00    +0.000 N 
ATOM      4  H   UNL     1       2.550   6.579  19.132  0.00  0.00    +0.000 HD
ENDROOT
BRANCH   2   5
ATOM      5  C   UNL     1       1.542   8.830  18.931  0.00  0.00    +0.000 A 
ATOM      6  C   UNL     1       0.551   9.703  18.458  0.00  0.00    +0.000 A 
ATOM      7  C   UNL     1      -0.182  10.455  19.362  0.00  0.00    +0.000 A 
ATOM      8  C   UNL     1      -0.029  10.269  20.727  0.00  0.00    +0.000 A 
ATOM      9  C   UNL     1      -0.775  11.041  21.618  0.00  0.00    +0.000 A 
ATOM     10  C   UNL     1      -0.918  10.651  22.943  0.00  0.00    +0.000 A 
ATOM     11  C   UNL     1      -0.199   9.555  23.412  0.00  0.00    +0.000 A 
ATOM     12  C   UNL     1       0.726   8.911  22.582  0.00  0.00    +0.000 A 
ATOM     13  C   UNL     1       0.809   9.233  21.217  0.00  0.00    +0.000 A 
ATOM     14  C   UNL     1       1.662   8.568  20.305  0.00  0.00    +0.000 A 
ENDBRANCH   2   5
BRANCH   3  15
ATOM     15  C   UNL     1       3.939   6.252  17.645  0.00  0.00    +0.000 A 
ATOM     16  C   UNL     1       5.059   6.828  17.033  0.00  0.00    +0.000 A 
ATOM     17  C   UNL     1       6.027   6.017  16.432  0.00  0.00    +0.000 A 
ATOM     18  C   UNL     1       5.872   4.632  16.416  0.00  0.00    +0.000 A 
ATOM     19  C   UNL     1       4.755   4.051  17.012  0.00  0.00    +0.000 A 
ATOM     20  C   UNL     1       3.785   4.852  17.629  0.00  0.00    +0.000 A 
BRANCH  20  21
ATOM     21  C   UNL     1       2.580   4.164  18.185  0.00  0.00    +0.000 C 
ATOM     22  O   UNL     1       1.465   4.411  17.744  0.00  0.00    +0.000 OA
ATOM     23  N   UNL     1       2.814   3.292  19.241  0.00  0.00    +0.000 N 
ATOM     24  H   UNL     1       3.732   3.318  19.672  0.00  0.00    +0.000 HD
BRANCH  23  25
ATOM     25  C   UNL     1       1.759   2.681  19.989  0.00  0.00    +0.000 C 
ATOM     26  C   UNL     1       0.945   3.509  20.949  0.00  0.00    +0.000 C 
ATOM     27  C   UNL     1       1.869   2.449  21.471  0.00  0.00    +0.000 C 
ENDBRANCH  23  25
ENDBRANCH  20  21
ENDBRANCH   3  15
TORSDOF 4
ENDMDL
MODEL 5
REMARK VINA RESULT:      -8.4      1.490      1.882
REMARK  Name = 
REMARK  4 active torsions:
REMARK  status: ('A' for Active; 'I' for Inactive)
REMARK    1  A    between atoms: C_2  and  C_16
REMARK    2  A    between atoms: N_3  and  C_4
REMARK    3  A    between atoms: C_9  and  C_10
REMARK    4  A    between atoms: N_12  and  C_13
REMARK                            x       y       z     vdW  Elec       q    Type
REMARK                         _______ _______ _______ _____ _____    ______ ____
ROOT
ATOM      1  O   UNL     1       1.996   5.598  17.797  0.00  0.00    +0.000 OA
ATOM      2  C   UNL     1       2.672   6.587  18.043  0.00  0.00    +0.000 C 
ATOM      3  N   UNL     1       4.004   6.772  17.710  0.00  0.00    +0.000 N 
ATOM      4  H   UNL     1       4.525   7.437  18.277  0.00  0.00    +0.000 HD
ENDROOT
BRANCH   2   5
ATOM      5  C   UNL     1       2.145   7.681  18.905  0.00  0.00    +0.000 A 
ATOM      6  C   UNL     1       1.975   7.420  20.273  0.00  0.00    +0.000 A 
ATOM      7  C   UNL     1       1.251   8.311  21.051  0.00  0.00    +0.000 A 
ATOM      8  C   UNL     1       0.796   9.508  20.521  0.00  0.00    +0.000 A 
ATOM      9  C   UNL     1       0.065  10.386  21.321  0.00  0.00    +0.000 A 
ATOM     10  C   UNL     1      -0.093  11.714  20.951  0.00  0.00    +0.000 A 
ATOM     11  C   UNL     1       0.366  12.134  19.705  0.00  0.00    +0.000 A 
ATOM     12  C   UNL     1       0.898  11.207  18.801  0.00  0.00    +0.000 A 
ATOM     13  C   UNL     1       1.152   9.884  19.199  0.00  0.00    +0.000 A 
ATOM     14  C   UNL     1       1.762   8.918  18.364  0.00  0.00    +0.000 A 
ENDBRANCH   2   5
BRANCH   3  15
ATOM     15  C   UNL     1       4.785   5.890  16.941  0.00  0.00    +0.000 A 
ATOM     16  C   UNL     1       5.130   6.215  15.623  0.00  0.00    +0.000 A 
ATOM     17  C   UNL     1       6.021   5.408  14.909  0.00  0.00    +0.000 A 
ATOM     18  C   UNL     1       6.555   4.262  15.494  0.00  0.00    +0.000 A 
ATOM     19  C   UNL     1       6.209   3.923  16.801  0.00  0.00    +0.000 A 
ATOM     20  C   UNL     1       5.327   4.731  17.531  0.00  0.00    +0.000 A 
BRANCH  20  21
ATOM     21  C   UNL     1       4.948   4.267  18.900  0.00  0.00    +0.000 C 
ATOM     22  O   UNL     1       5.679   4.491  19.857  0.00  0.00    +0.000 OA
ATOM     23  N   UNL     1       3.767   3.541  18.988  0.00  0.00    +0.000 N 
ATOM     24  H   UNL     1       3.348   3.225  18.120  0.00  0.00    +0.000 HD
BRANCH  23  25
ATOM     25  C   UNL     1       3.346   2.888  20.190  0.00  0.00    +0.000 C 
ATOM     26  C   UNL     1       1.910   2.461  20.347  0.00  0.00    +0.000 C 
ATOM     27  C   UNL     1       2.460   3.570  21.194  0.00  0.00    +0.000 C 
ENDBRANCH  23  25
ENDBRANCH  20  21
ENDBRANCH   3  15
TORSDOF 4
ENDMDL
MODEL 6
REMARK VINA RESULT:      -8.4      1.243      1.544
REMARK  Name = 
REMARK  4 active torsions:
REMARK  status: ('A' for Active; 'I' for Inactive)
REMARK    1  A    between atoms: C_2  and  C_16
REMARK    2  A    between atoms: N_3  and  C_4
REMARK    3  A    between atoms: C_9  and  C_10
REMARK    4  A    between atoms: N_12  and  C_13
REMARK                            x       y       z     vdW  Elec       q    Type
REMARK                         _______ _______ _______ _____ _____    ______ ____
ROOT
ATOM      1  O   UNL     1       3.662   5.874  19.959  0.00  0.00    +0.000 OA
ATOM      2  C   UNL     1       3.084   6.591  19.154  0.00  0.00    +0.000 C 
ATOM      3  N   UNL     1       3.270   6.598  17.782  0.00  0.00    +0.000 N 
ATOM      4  H   UNL     1       3.024   7.457  17.295  0.00  0.00    +0.000 HD
ENDROOT
BRANCH   2   5
ATOM      5  C   UNL     1       2.191   7.691  19.613  0.00  0.00    +0.000 A 
ATOM      6  C   UNL     1       1.652   7.610  20.905  0.00  0.00    +0.000 A 
ATOM      7  C   UNL     1       0.623   8.466  21.270  0.00  0.00    +0.000 A 
ATOM      8  C   UNL     1       0.204   9.473  20.415  0.00  0.00    +0.000 A 
ATOM      9  C   UNL     1      -0.836  10.319  20.801  0.00  0.00    +0.000 A 
ATOM     10  C   UNL     1      -1.039  11.530  20.153  0.00  0.00    +0.000 A 
ATOM     11  C   UNL     1      -0.285  11.834  19.024  0.00  0.00    +0.000 A 
ATOM     12  C   UNL     1       0.605  10.891  18.496  0.00  0.00    +0.000 A 
ATOM     13  C   UNL     1       0.891   9.706  19.194  0.00  0.00    +0.000 A 
ATOM     14  C   UNL     1       1.837   8.748  18.760  0.00  0.00    +0.000 A 
ENDBRANCH   2   5
BRANCH   3  15
ATOM     15  C   UNL     1       4.089   5.708  17.062  0.00  0.00    +0.000 A 
ATOM     16  C   UNL     1       5.222   6.177  16.387  0.00  0.00    +0.000 A 
ATOM     17  C   UNL     1       6.111   5.276  15.793  0.00  0.00    +0.000 A 
ATOM     18  C   UNL     1       5.862   3.905  15.846  0.00  0.00    +0.000 A 
ATOM     19  C   UNL     1       4.730   3.430  16.505  0.00  0.00    +0.000 A 
ATOM     20  C   UNL     1       3.840   4.323  17.116  0.00  0.00    +0.000 A 
BRANCH  20  21
ATOM     21  C   UNL     1       2.612   3.744  17.742  0.00  0.00    +0.000 C 
ATOM     22  O   UNL     1       1.522   3.862  17.196  0.00  0.00    +0.000 OA
ATOM     23  N   UNL     1       2.792   3.131  18.975  0.00  0.00    +0.000 N 
ATOM     24  H   UNL     1       3.683   3.272  19.440  0.00  0.00    +0.000 HD
BRANCH  23  25
ATOM     25  C   UNL     1       1.702   2.674  19.780  0.00  0.00    +0.000 C 
ATOM     26  C   UNL     1       0.991   3.637  20.695  0.00  0.00    +0.000 C 
ATOM     27  C   UNL     1       1.823   2.530  21.272  0.00  0.00    +0.000 C 
ENDBRANCH  23  25
ENDBRANCH  20  21
ENDBRANCH   3  15
TORSDOF 4
ENDMDL
MODEL 7
REMARK VINA RESULT:      -8.3      2.663      8.048
REMARK  Name = 
REMARK  4 active torsions:
REMARK  status: ('A' for Active; 'I' for Inactive)
REMARK    1  A    between atoms: C_2  and  C_16
REMARK    2  A    between atoms: N_3  and  C_4
REMARK    3  A    between atoms: C_9  and  C_10
REMARK    4  A    between atoms: N_12  and  C_13
REMARK                            x       y       z     vdW  Elec       q    Type
REMARK                         _______ _______ _______ _____ _____    ______ ____
ROOT
ATOM      1  O   UNL     1       5.278   5.527  18.767  0.00  0.00    +0.000 OA
ATOM      2  C   UNL     1       5.034   4.636  17.966  0.00  0.00    +0.000 C 
ATOM      3  N   UNL     1       4.200   3.550  18.178  0.00  0.00    +0.000 N 
ATOM      4  H   UNL     1       4.373   2.727  17.606  0.00  0.00    +0.000 HD
ENDROOT
BRANCH   2   5
ATOM      5  C   UNL     1       5.769   4.544  16.674  0.00  0.00    +0.000 A 
ATOM      6  C   UNL     1       7.078   5.044  16.621  0.00  0.00    +0.000 A 
ATOM      7  C   UNL     1       7.693   5.214  15.390  0.00  0.00    +0.000 A 
ATOM      8  C   UNL     1       7.075   4.790  14.224  0.00  0.00    +0.000 A 
ATOM      9  C   UNL     1       7.711   4.976  12.997  0.00  0.00    +0.000 A 
ATOM     10  C   UNL     1       7.308   4.263  11.877  0.00  0.00    +0.000 A 
ATOM     11  C   UNL     1       6.174   3.460  11.952  0.00  0.00    +0.000 A 
ATOM     12  C   UNL     1       5.398   3.443  13.117  0.00  0.00    +0.000 A 
ATOM     13  C   UNL     1       5.846   4.081  14.285  0.00  0.00    +0.000 A 
ATOM     14  C   UNL     1       5.154   4.037  15.518  0.00  0.00    +0.000 A 
ENDBRANCH   2   5
BRANCH   3  15
ATOM     15  C   UNL     1       3.409   3.337  19.322  0.00  0.00    +0.000 A 
ATOM     16  C   UNL     1       3.769   2.363  20.261  0.00  0.00    +0.000 A 
ATOM     17  C   UNL     1       3.065   2.249  21.464  0.00  0.00    +0.000 A 
ATOM     18  C   UNL     1       1.983   3.088  21.727  0.00  0.00    +0.000 A 
ATOM     19  C   UNL     1       1.609   4.053  20.793  0.00  0.00    +0.000 A 
ATOM     20  C   UNL     1       2.316   4.185  19.591  0.00  0.00    +0.000 A 
BRANCH  20  21
ATOM     21  C   UNL     1       1.814   5.194  18.609  0.00  0.00    +0.000 C 
ATOM     22  O   UNL     1       1.216   4.836  17.602  0.00  0.00    +0.000 OA
ATOM     23  N   UNL     1       2.116   6.519  18.894  0.00  0.00    +0.000 N 
ATOM     24  H   UNL     1       2.793   6.696  19.628  0.00  0.00    +0.000 HD
BRANCH  23  25
ATOM     25  C   UNL     1       1.853   7.588  17.979  0.00  0.00    +0.000 C 
ATOM     26  C   UNL     1       2.925   8.606  17.689  0.00  0.00    +0.000 C 
ATOM     27  C   UNL     1       1.693   9.008  18.445  0.00  0.00    +0.000 C 
ENDBRANCH  23  25
ENDBRANCH  20  21
ENDBRANCH   3  15
TORSDOF 4
ENDMDL
MODEL 8
REMARK VINA RESULT:      -8.2      1.024      1.024
REMARK  Name = 
REMARK  4 active torsions:
REMARK  status: ('A' for Active; 'I' for Inactive)
REMARK    1  A    between atoms: C_2  and  C_16
REMARK    2  A    between atoms: N_3  and  C_4
REMARK    3  A    between atoms: C_9  and  C_10
REMARK    4  A    between atoms: N_12  and  C_13
REMARK                            x       y       z     vdW  Elec       q    Type
REMARK                         _______ _______ _______ _____ _____    ______ ____
ROOT
ATOM      1  O   UNL     1       2.431   8.384  17.057  0.00  0.00    +0.000 OA
ATOM      2  C   UNL     1       2.672   7.877  18.144  0.00  0.00    +0.000 C 
ATOM      3  N   UNL     1       3.463   6.763  18.370  0.00  0.00    +0.000 N 
ATOM      4  H   UNL     1       3.282   6.243  19.226  0.00  0.00    +0.000 HD
ENDROOT
BRANCH   2   5
ATOM      5  C   UNL     1       1.976   8.339  19.376  0.00  0.00    +0.000 A 
ATOM      6  C   UNL     1       1.873   7.445  20.452  0.00  0.00    +0.000 A 
ATOM      7  C   UNL     1       1.017   7.738  21.503  0.00  0.00    +0.000 A 
ATOM      8  C   UNL     1       0.353   8.954  21.557  0.00  0.00    +0.000 A 
ATOM      9  C   UNL     1      -0.506   9.225  22.622  0.00  0.00    +0.000 A 
ATOM     10  C   UNL     1      -0.898  10.528  22.899  0.00  0.00    +0.000 A 
ATOM     11  C   UNL     1      -0.538  11.548  22.025  0.00  0.00    +0.000 A 
ATOM     12  C   UNL     1       0.134  11.252  20.833  0.00  0.00    +0.000 A 
ATOM     13  C   UNL     1       0.620   9.957  20.588  0.00  0.00    +0.000 A 
ATOM     14  C   UNL     1       1.376   9.606  19.445  0.00  0.00    +0.000 A 
ENDBRANCH   2   5
BRANCH   3  15
ATOM     15  C   UNL     1       4.211   6.078  17.394  0.00  0.00    +0.000 A 
ATOM     16  C   UNL     1       4.613   6.731  16.222  0.00  0.00    +0.000 A 
ATOM     17  C   UNL     1       5.474   6.096  15.321  0.00  0.00    +0.000 A 
ATOM     18  C   UNL     1       5.918   4.799  15.570  0.00  0.00    +0.000 A 
ATOM     19  C   UNL     1       5.514   4.135  16.727  0.00  0.00    +0.000 A 
ATOM     20  C   UNL     1       4.663   4.767  17.644  0.00  0.00    +0.000 A 
BRANCH  20  21
ATOM     21  C   UNL     1       4.215   3.969  18.826  0.00  0.00    +0.000 C 
ATOM     22  O   UNL     1       5.035   3.405  19.540  0.00  0.00    +0.000 OA
ATOM     23  N   UNL     1       2.842   3.877  19.010  0.00  0.00    +0.000 N 
ATOM     24  H   UNL     1       2.247   4.194  18.251  0.00  0.00    +0.000 HD
BRANCH  23  25
ATOM     25  C   UNL     1       2.247   3.022  19.990  0.00  0.00    +0.000 C 
ATOM     26  C   UNL     1       0.895   3.363  20.561  0.00  0.00    +0.000 C 
ATOM     27  C   UNL     1       2.116   3.436  21.430  0.00  0.00    +0.000 C 
ENDBRANCH  23  25
ENDBRANCH  20  21
ENDBRANCH   3  15
TORSDOF 4
ENDMDL
MODEL 9
REMARK VINA RESULT:      -8.2      2.448      7.753
REMARK  Name = 
REMARK  4 active torsions:
REMARK  status: ('A' for Active; 'I' for Inactive)
REMARK    1  A    between atoms: C_2  and  C_16
REMARK    2  A    between atoms: N_3  and  C_4
REMARK    3  A    between atoms: C_9  and  C_10
REMARK    4  A    between atoms: N_12  and  C_13
REMARK                            x       y       z     vdW  Elec       q    Type
REMARK                         _______ _______ _______ _____ _____    ______ ____
ROOT
ATOM      1  O   UNL     1       1.527   6.004  21.044  0.00  0.00    +0.000 OA
ATOM      2  C   UNL     1       1.868   6.659  20.069  0.00  0.00    +0.000 C 
ATOM      3  N   UNL     1       1.550   7.983  19.820  0.00  0.00    +0.000 N 
ATOM      4  H   UNL     1       1.571   8.280  18.847  0.00  0.00    +0.000 HD
ENDROOT
BRANCH   2   5
ATOM      5  C   UNL     1       2.566   6.016  18.921  0.00  0.00    +0.000 A 
ATOM      6  C   UNL     1       2.267   4.677  18.632  0.00  0.00    +0.000 A 
ATOM      7  C   UNL     1       3.074   3.973  17.751  0.00  0.00    +0.000 A 
ATOM      8  C   UNL     1       4.099   4.609  17.067  0.00  0.00    +0.000 A 
ATOM      9  C   UNL     1       4.901   3.881  16.189  0.00  0.00    +0.000 A 
ATOM     10  C   UNL     1       5.679   4.529  15.239  0.00  0.00    +0.000 A 
ATOM     11  C   UNL     1       5.760   5.918  15.257  0.00  0.00    +0.000 A 
ATOM     12  C   UNL     1       5.137   6.647  16.277  0.00  0.00    +0.000 A 
ATOM     13  C   UNL     1       4.270   6.014  17.183  0.00  0.00    +0.000 A 
ATOM     14  C   UNL     1       3.546   6.701  18.186  0.00  0.00    +0.000 A 
ENDBRANCH   2   5
BRANCH   3  15
ATOM     15  C   UNL     1       0.857   8.838  20.698  0.00  0.00    +0.000 A 
ATOM     16  C   UNL     1       1.053   8.742  22.081  0.00  0.00    +0.000 A 
ATOM     17  C   UNL     1       0.476   9.682  22.941  0.00  0.00    +0.000 A 
ATOM     18  C   UNL     1      -0.319  10.707  22.430  0.00  0.00    +0.000 A 
ATOM     19  C   UNL     1      -0.530  10.803  21.056  0.00  0.00    +0.000 A 
ATOM     20  C   UNL     1       0.055   9.876  20.183  0.00  0.00    +0.000 A 
BRANCH  20  21
ATOM     21  C   UNL     1      -0.274  10.000  18.730  0.00  0.00    +0.000 C 
ATOM     22  O   UNL     1       0.573   9.760  17.879  0.00  0.00    +0.000 OA
ATOM     23  N   UNL     1      -1.556  10.446  18.435  0.00  0.00    +0.000 N 
ATOM     24  H   UNL     1      -2.107  10.821  19.201  0.00  0.00    +0.000 HD
BRANCH  23  25
ATOM     25  C   UNL     1      -1.975  10.775  17.108  0.00  0.00    +0.000 C 
ATOM     26  C   UNL     1      -3.440  10.963  16.810  0.00  0.00    +0.000 C 
ATOM     27  C   UNL     1      -2.704   9.787  16.239  0.00  0.00    +0.000 C 
ENDBRANCH  23  25
ENDBRANCH  20  21
ENDBRANCH   3  15
TORSDOF 4
ENDMDL
