MODEL 1
REMARK VINA RESULT:      -9.7      0.000      0.000
REMARK  Name = 
REMARK  5 active torsions:
REMARK  status: ('A' for Active; 'I' for Inactive)
REMARK    1  A    between atoms: C_1  and  N_2
REMARK    2  A    between atoms: C_3  and  C_5
REMARK    3  A    between atoms: C_9  and  N_10
REMARK    4  A    between atoms: C_11  and  C_13
REMARK    5  A    between atoms: C_15  and  C_16
REMARK                            x       y       z     vdW  Elec       q    Type
REMARK                         _______ _______ _______ _____ _____    ______ ____
ROOT
ATOM      1  C   UNL     1       2.584   6.804  19.069  0.00  0.00    +0.000 A 
ATOM      2  N   UNL     1       3.582   6.775  18.117  0.00  0.00    +0.000 NA
ATOM      3  C   UNL     1       4.008   5.528  18.043  0.00  0.00    +0.000 A 
ATOM      4  N   UNL     1       3.356   4.744  18.989  0.00  0.00    +0.000 N 
ATOM      5  C   UNL     1       2.414   5.537  19.618  0.00  0.00    +0.000 A 
ATOM      6  C   UNL     1       1.431   5.058  20.652  0.00  0.00    +0.000 C 
ATOM      7  C   UNL     1       0.873   3.675  20.346  0.00  0.00    +0.000 C 
ATOM      8  C   UNL     1       1.791   2.540  20.795  0.00  0.00    +0.000 C 
ATOM      9  C   UNL     1       3.283   2.815  20.620  0.00  0.00    +0.000 C 
ATOM     10  C   UNL     1       3.628   3.337  19.236  0.00  0.00    +0.000 C 
ENDROOT
BRANCH   3  11
ATOM     11  C   UNL     1       5.070   5.092  17.126  0.00  0.00    +0.000 A 
ATOM     12  C   UNL     1       6.396   5.148  17.572  0.00  0.00    +0.000 A 
ATOM     13  C   UNL     1       7.440   4.721  16.757  0.00  0.00    +0.000 A 
ATOM     14  C   UNL     1       7.174   4.236  15.477  0.00  0.00    +0.000 A 
ATOM     15  C   UNL     1       5.864   4.208  15.005  0.00  0.00    +0.000 A 
ATOM     16  C   UNL     1       4.824   4.654  15.818  0.00  0.00    +0.000 A 
ENDBRANCH   3  11
BRANCH   1  18
ATOM     17  N   UNL     1       1.405   8.723  18.251  0.00  0.00    +0.000 N 
ATOM     18  C   UNL     1       1.833   8.029  19.376  0.00  0.00    +0.000 C 
ATOM     19  O   UNL     1       1.582   8.345  20.540  0.00  0.00    +0.000 OA
ATOM     20  H   UNL     1       1.568   8.240  17.369  0.00  0.00    +0.000 HD
BRANCH  17  25
ATOM     21  C   UNL     1      -1.586  10.919  18.017  0.00  0.00    +0.000 A 
ATOM     22  C   UNL     1      -1.083  12.124  18.527  0.00  0.00    +0.000 A 
ATOM     23  C   UNL     1       0.264  12.231  18.841  0.00  0.00    +0.000 A 
ATOM     24  C   UNL     1       1.101  11.125  18.700  0.00  0.00    +0.000 A 
ATOM     25  C   UNL     1       0.604   9.888  18.265  0.00  0.00    +0.000 A 
ATOM     26  C   UNL     1      -0.739   9.804  17.879  0.00  0.00    +0.000 A 
BRANCH  21  29
ATOM     27  C   UNL     1      -5.083  11.964  17.003  0.00  0.00    +0.000 C 
ATOM     28  N   UNL     1      -3.680  11.951  17.311  0.00  0.00    +0.000 N 
ATOM     29  C   UNL     1      -3.036  10.790  17.696  0.00  0.00    +0.000 C 
ATOM     30  O   UNL     1      -3.594   9.705  17.779  0.00  0.00    +0.000 OA
ATOM     31  H   UNL     1      -3.155  12.804  17.171  0.00  0.00    +0.000 HD
ENDBRANCH  21  29
ENDBRANCH  17  25
ENDBRANCH   1  18
TORSDOF 4
ENDMDL
MODEL 2
REMARK VINA RESULT:      -9.4      0.850      1.231
REMARK  Name = 
REMARK  5 active torsions:
REMARK  status: ('A' for Active; 'I' for Inactive)
REMARK    1  A    between atoms: C_1  and  N_2
REMARK    2  A    between atoms: C_3  and  C_5
REMARK    3  A    between atoms: C_9  and  N_10
REMARK    4  A    between atoms: C_11  and  C_13
REMARK    5  A    between atoms: C_15  and  C_16
REMARK                            x       y       z     vdW  Elec       q    Type
REMARK                         _______ _______ _______ _____ _____    ______ ____
ROOT
ATOM      1  C   UNL     1       2.627   6.712  19.361  0.00  0.00    +0.000 A 
ATOM      2  N   UNL     1       3.651   6.746  18.436  0.00  0.00    +0.000 NA
ATOM      3  C   UNL     1       4.072   5.504  18.282  0.00  0.00    +0.000 A 
ATOM      4  N   UNL     1       3.389   4.657  19.148  0.00  0.00    +0.000 N 
ATOM      5  C   UNL     1       2.435   5.408  19.809  0.00  0.00    +0.000 A 
ATOM      6  C   UNL     1       1.422   4.861  20.778  0.00  0.00    +0.000 C 
ATOM      7  C   UNL     1       0.865   3.509  20.355  0.00  0.00    +0.000 C 
ATOM      8  C   UNL     1       1.765   2.336  20.743  0.00  0.00    +0.000 C 
ATOM      9  C   UNL     1       3.262   2.613  20.629  0.00  0.00    +0.000 C 
ATOM     10  C   UNL     1       3.648   3.234  19.298  0.00  0.00    +0.000 C 
ENDROOT
BRANCH   3  11
ATOM     11  C   UNL     1       5.156   5.130  17.364  0.00  0.00    +0.000 A 
ATOM     12  C   UNL     1       4.828   4.841  16.033  0.00  0.00    +0.000 A 
ATOM     13  C   UNL     1       5.817   4.509  15.112  0.00  0.00    +0.000 A 
ATOM     14  C   UNL     1       7.152   4.453  15.510  0.00  0.00    +0.000 A 
ATOM     15  C   UNL     1       7.491   4.701  16.838  0.00  0.00    +0.000 A 
ATOM     16  C   UNL     1       6.495   5.016  17.761  0.00  0.00    +0.000 A 
ENDBRANCH   3  11
BRANCH   1  18
ATOM     17  N   UNL     1       1.618   8.773  18.676  0.00  0.00    +0.000 N 
ATOM     18  C   UNL     1       1.874   7.915  19.738  0.00  0.00    +0.000 C 
ATOM     19  O   UNL     1       1.479   8.081  20.893  0.00  0.00    +0.000 OA
ATOM     20  H   UNL     1       1.884   8.408  17.763  0.00  0.00    +0.000 HD
BRANCH  17  25
ATOM     21  C   UNL     1      -1.146  11.199  18.126  0.00  0.00    +0.000 A 
ATOM     22  C   UNL     1      -0.831  12.192  19.063  0.00  0.00    +0.000 A 
ATOM     23  C   UNL     1       0.347  12.105  19.791  0.00  0.00    +0.000 A 
ATOM     24  C   UNL     1       1.186  11.004  19.626  0.00  0.00    +0.000 A 
ATOM     25  C   UNL     1       0.853   9.960  18.750  0.00  0.00    +0.000 A 
ATOM     26  C   UNL     1      -0.299  10.087  17.964  0.00  0.00    +0.000 A 
BRANCH  21  29
ATOM     27  C   UNL     1      -3.528  10.843  15.201  0.00  0.00    +0.000 C 
ATOM     28  N   UNL     1      -2.375  10.798  16.057  0.00  0.00    +0.000 N 
ATOM     29  C   UNL     1      -2.419  11.275  17.354  0.00  0.00    +0.000 C 
ATOM     30  O   UNL     1      -3.427  11.740  17.868  0.00  0.00    +0.000 OA
ATOM     31  H   UNL     1      -1.542  10.341  15.710  0.00  0.00    +0.000 HD
ENDBRANCH  21  29
ENDBRANCH  17  25
ENDBRANCH   1  18
TORSDOF 4
ENDMDL
MODEL 3
REMARK VINA RESULT:      -9.3      1.878      3.039
REMARK  Name = 
REMARK  5 active torsions:
REMARK  status: ('A' for Active; 'I' for Inactive)
REMARK    1  A    between atoms: C_1  and  N_2
REMARK    2  A    between atoms: C_3  and  C_5
REMARK    3  A    between atoms: C_9  and  N_10
REMARK    4  A    between atoms: C_11  and  C_13
REMARK    5  A    between atoms: C_15  and  C_16
REMARK                            x       y       z     vdW  Elec       q    Type
REMARK                         _______ _______ _______ _____ _____    ______ ____
ROOT
ATOM      1  C   UNL     1       2.621   6.846  19.193  0.00  0.00    +0.000 A 
ATOM      2  N   UNL     1       3.625   6.840  18.247  0.00  0.00    +0.000 NA
ATOM      3  C   UNL     1       4.014   5.586  18.105  0.00  0.00    +0.000 A 
ATOM      4  N   UNL     1       3.331   4.770  19.000  0.00  0.00    +0.000 N 
ATOM      5  C   UNL     1       2.409   5.555  19.669  0.00  0.00    +0.000 A 
ATOM      6  C   UNL     1       1.405   5.048  20.668  0.00  0.00    +0.000 C 
ATOM      7  C   UNL     1       0.807   3.703  20.280  0.00  0.00    +0.000 C 
ATOM      8  C   UNL     1       1.688   2.516  20.669  0.00  0.00    +0.000 C 
ATOM      9  C   UNL     1       3.188   2.755  20.519  0.00  0.00    +0.000 C 
ATOM     10  C   UNL     1       3.559   3.344  19.169  0.00  0.00    +0.000 C 
ENDROOT
BRANCH   3  11
ATOM     11  C   UNL     1       5.069   5.171  17.171  0.00  0.00    +0.000 A 
ATOM     12  C   UNL     1       4.701   4.833  15.863  0.00  0.00    +0.000 A 
ATOM     13  C   UNL     1       5.661   4.460  14.927  0.00  0.00    +0.000 A 
ATOM     14  C   UNL     1       7.007   4.413  15.287  0.00  0.00    +0.000 A 
ATOM     15  C   UNL     1       7.386   4.710  16.594  0.00  0.00    +0.000 A 
ATOM     16  C   UNL     1       6.419   5.066  17.533  0.00  0.00    +0.000 A 
ENDBRANCH   3  11
BRANCH   1  18
ATOM     17  N   UNL     1       1.675   8.934  18.500  0.00  0.00    +0.000 N 
ATOM     18  C   UNL     1       1.905   8.073  19.565  0.00  0.00    +0.000 C 
ATOM     19  O   UNL     1       1.515   8.255  20.719  0.00  0.00    +0.000 OA
ATOM     20  H   UNL     1       1.930   8.557  17.589  0.00  0.00    +0.000 HD
BRANCH  17  25
ATOM     21  C   UNL     1       0.934  12.577  18.585  0.00  0.00    +0.000 A 
ATOM     22  C   UNL     1      -0.461  12.577  18.448  0.00  0.00    +0.000 A 
ATOM     23  C   UNL     1      -1.153  11.375  18.437  0.00  0.00    +0.000 A 
ATOM     24  C   UNL     1      -0.455  10.171  18.509  0.00  0.00    +0.000 A 
ATOM     25  C   UNL     1       0.946  10.144  18.569  0.00  0.00    +0.000 A 
ATOM     26  C   UNL     1       1.636  11.359  18.654  0.00  0.00    +0.000 A 
BRANCH  21  29
ATOM     27  C   UNL     1       3.718  15.033  17.832  0.00  0.00    +0.000 C 
ATOM     28  N   UNL     1       2.885  13.864  17.889  0.00  0.00    +0.000 N 
ATOM     29  C   UNL     1       1.687  13.864  18.578  0.00  0.00    +0.000 C 
ATOM     30  O   UNL     1       1.243  14.843  19.160  0.00  0.00    +0.000 OA
ATOM     31  H   UNL     1       3.164  13.056  17.349  0.00  0.00    +0.000 HD
ENDBRANCH  21  29
ENDBRANCH  17  25
ENDBRANCH   1  18
TORSDOF 4
ENDMDL
MODEL 4
REMARK VINA RESULT:      -9.1      0.899      1.294
REMARK  Name = 
REMARK  5 active torsions:
REMARK  status: ('A' for Active; 'I' for Inactive)
REMARK    1  A    between atoms: C_1  and  N_2
REMARK    2  A    between atoms: C_3  and  C_5
REMARK    3  A    between atoms: C_9  and  N_10
REMARK    4  A    between atoms: C_11  and  C_13
REMARK    5  A    between atoms: C_15  and  C_16
REMARK                            x       y       z     vdW  Elec       q    Type
REMARK                         _______ _______ _______ _____ _____    ______ ____
ROOT
ATOM      1  C   UNL     1       2.890   6.595  18.386  0.00  0.00    +0.000 A 
ATOM      2  N   UNL     1       3.865   6.684  17.415  0.00  0.00    +0.000 NA
ATOM      3  C   UNL     1       4.261   5.453  17.151  0.00  0.00    +0.000 A 
ATOM      4  N   UNL     1       3.612   4.553  17.990  0.00  0.00    +0.000 N 
ATOM      5  C   UNL     1       2.703   5.265  18.751  0.00  0.00    +0.000 A 
ATOM      6  C   UNL     1       1.733   4.661  19.729  0.00  0.00    +0.000 C 
ATOM      7  C   UNL     1       1.137   3.347  19.242  0.00  0.00    +0.000 C 
ATOM      8  C   UNL     1       2.038   2.141  19.498  0.00  0.00    +0.000 C 
ATOM      9  C   UNL     1       3.532   2.410  19.328  0.00  0.00    +0.000 C 
ATOM     10  C   UNL     1       3.858   3.120  18.025  0.00  0.00    +0.000 C 
ENDROOT
BRANCH   3  11
ATOM     11  C   UNL     1       5.292   5.134  16.155  0.00  0.00    +0.000 A 
ATOM     12  C   UNL     1       4.902   4.461  14.990  0.00  0.00    +0.000 A 
ATOM     13  C   UNL     1       5.830   4.159  13.998  0.00  0.00    +0.000 A 
ATOM     14  C   UNL     1       7.168   4.519  14.159  0.00  0.00    +0.000 A 
ATOM     15  C   UNL     1       7.579   5.155  15.328  0.00  0.00    +0.000 A 
ATOM     16  C   UNL     1       6.649   5.440  16.326  0.00  0.00    +0.000 A 
ENDBRANCH   3  11
BRANCH   1  18
ATOM     17  N   UNL     1       1.740   8.636  17.883  0.00  0.00    +0.000 N 
ATOM     18  C   UNL     1       2.173   7.776  18.885  0.00  0.00    +0.000 C 
ATOM     19  O   UNL     1       1.953   7.923  20.088  0.00  0.00    +0.000 OA
ATOM     20  H   UNL     1       1.874   8.284  16.937  0.00  0.00    +0.000 HD
BRANCH  17  25
ATOM     21  C   UNL     1      -1.220  10.863  18.209  0.00  0.00    +0.000 A 
ATOM     22  C   UNL     1      -0.633  12.026  18.726  0.00  0.00    +0.000 A 
ATOM     23  C   UNL     1       0.746  12.102  18.860  0.00  0.00    +0.000 A 
ATOM     24  C   UNL     1       1.537  11.003  18.532  0.00  0.00    +0.000 A 
ATOM     25  C   UNL     1       0.967   9.802  18.085  0.00  0.00    +0.000 A 
ATOM     26  C   UNL     1      -0.418   9.754  17.881  0.00  0.00    +0.000 A 
BRANCH  21  29
ATOM     27  C   UNL     1      -4.851  11.935  18.328  0.00  0.00    +0.000 C 
ATOM     28  N   UNL     1      -3.416  11.909  18.386  0.00  0.00    +0.000 N 
ATOM     29  C   UNL     1      -2.702  10.765  18.080  0.00  0.00    +0.000 C 
ATOM     30  O   UNL     1      -3.225   9.719  17.723  0.00  0.00    +0.000 OA
ATOM     31  H   UNL     1      -2.933  12.774  18.588  0.00  0.00    +0.000 HD
ENDBRANCH  21  29
ENDBRANCH  17  25
ENDBRANCH   1  18
TORSDOF 4
ENDMDL
MODEL 5
REMARK VINA RESULT:      -9.0      1.782      2.698
REMARK  Name = 
REMARK  5 active torsions:
REMARK  status: ('A' for Active; 'I' for Inactive)
REMARK    1  A    between atoms: C_1  and  N_2
REMARK    2  A    between atoms: C_3  and  C_5
REMARK    3  A    between atoms: C_9  and  N_10
REMARK    4  A    between atoms: C_11  and  C_13
REMARK    5  A    between atoms: C_15  and  C_16
REMARK                            x       y       z     vdW  Elec       q    Type
REMARK                         _______ _______ _______ _____ _____    ______ ____
ROOT
ATOM      1  C   UNL     1       2.563   6.940  19.088  0.00  0.00    +0.000 A 
ATOM      2  N   UNL     1       3.529   6.953  18.103  0.00  0.00    +0.000 NA
ATOM      3  C   UNL     1       3.941   5.708  17.950  0.00  0.00    +0.000 A 
ATOM      4  N   UNL     1       3.313   4.881  18.874  0.00  0.00    +0.000 N 
ATOM      5  C   UNL     1       2.400   5.647  19.575  0.00  0.00    +0.000 A 
ATOM      6  C   UNL     1       1.447   5.121  20.615  0.00  0.00    +0.000 C 
ATOM      7  C   UNL     1       0.867   3.760  20.256  0.00  0.00    +0.000 C 
ATOM      8  C   UNL     1       1.789   2.596  20.613  0.00  0.00    +0.000 C 
ATOM      9  C   UNL     1       3.276   2.869  20.404  0.00  0.00    +0.000 C 
ATOM     10  C   UNL     1       3.580   3.461  19.038  0.00  0.00    +0.000 C 
ENDROOT
BRANCH   3  11
ATOM     11  C   UNL     1       4.967   5.314  16.976  0.00  0.00    +0.000 A 
ATOM     12  C   UNL     1       6.237   5.897  17.077  0.00  0.00    +0.000 A 
ATOM     13  C   UNL     1       7.256   5.540  16.200  0.00  0.00    +0.000 A 
ATOM     14  C   UNL     1       7.020   4.595  15.201  0.00  0.00    +0.000 A 
ATOM     15  C   UNL     1       5.753   4.033  15.064  0.00  0.00    +0.000 A 
ATOM     16  C   UNL     1       4.731   4.407  15.934  0.00  0.00    +0.000 A 
ENDBRANCH   3  11
BRANCH   1  18
ATOM     17  N   UNL     1       1.533   8.998  18.424  0.00  0.00    +0.000 N 
ATOM     18  C   UNL     1       1.833   8.151  19.484  0.00  0.00    +0.000 C 
ATOM     19  O   UNL     1       1.493   8.334  20.654  0.00  0.00    +0.000 OA
ATOM     20  H   UNL     1       1.755   8.620  17.505  0.00  0.00    +0.000 HD
BRANCH  17  25
ATOM     21  C   UNL     1       0.716  12.614  18.720  0.00  0.00    +0.000 A 
ATOM     22  C   UNL     1      -0.660  12.607  18.454  0.00  0.00    +0.000 A 
ATOM     23  C   UNL     1      -1.324  11.401  18.287  0.00  0.00    +0.000 A 
ATOM     24  C   UNL     1      -0.613  10.204  18.330  0.00  0.00    +0.000 A 
ATOM     25  C   UNL     1       0.777  10.189  18.518  0.00  0.00    +0.000 A 
ATOM     26  C   UNL     1       1.432  11.403  18.760  0.00  0.00    +0.000 A 
BRANCH  21  29
ATOM     27  C   UNL     1       1.253  16.358  18.935  0.00  0.00    +0.000 C 
ATOM     28  N   UNL     1       0.668  15.050  18.822  0.00  0.00    +0.000 N 
ATOM     29  C   UNL     1       1.442  13.906  18.882  0.00  0.00    +0.000 C 
ATOM     30  O   UNL     1       2.652  13.918  19.056  0.00  0.00    +0.000 OA
ATOM     31  H   UNL     1      -0.339  14.983  18.767  0.00  0.00    +0.000 HD
ENDBRANCH  21  29
ENDBRANCH  17  25
ENDBRANCH   1  18
TORSDOF 4
ENDMDL
MODEL 6
REMARK VINA RESULT:      -8.9      2.326      2.984
REMARK  Name = 
REMARK  5 active torsions:
REMARK  status: ('A' for Active; 'I' for Inactive)
REMARK    1  A    between atoms: C_1  and  N_2
REMARK    2  A    between atoms: C_3  and  C_5
REMARK    3  A    between atoms: C_9  and  N_10
REMARK    4  A    between atoms: C_11  and  C_13
REMARK    5  A    between atoms: C_15  and  C_16
REMARK                            x       y       z     vdW  Elec       q    Type
REMARK                         _______ _______ _______ _____ _____    ______ ____
ROOT
ATOM      1  C   UNL     1       2.583   6.791  19.222  0.00  0.00    +0.000 A 
ATOM      2  N   UNL     1       3.608   6.792  18.298  0.00  0.00    +0.000 NA
ATOM      3  C   UNL     1       4.024   5.545  18.181  0.00  0.00    +0.000 A 
ATOM      4  N   UNL     1       3.336   4.727  19.071  0.00  0.00    +0.000 N 
ATOM      5  C   UNL     1       2.384   5.502  19.708  0.00  0.00    +0.000 A 
ATOM      6  C   UNL     1       1.367   4.989  20.691  0.00  0.00    +0.000 C 
ATOM      7  C   UNL     1       0.804   3.627  20.307  0.00  0.00    +0.000 C 
ATOM      8  C   UNL     1       1.697   2.462  20.730  0.00  0.00    +0.000 C 
ATOM      9  C   UNL     1       3.196   2.728  20.612  0.00  0.00    +0.000 C 
ATOM     10  C   UNL     1       3.587   3.308  19.263  0.00  0.00    +0.000 C 
ENDROOT
BRANCH   3  11
ATOM     11  C   UNL     1       5.107   5.138  17.277  0.00  0.00    +0.000 A 
ATOM     12  C   UNL     1       4.778   4.791  15.961  0.00  0.00    +0.000 A 
ATOM     13  C   UNL     1       5.766   4.426  15.052  0.00  0.00    +0.000 A 
ATOM     14  C   UNL     1       7.103   4.396  15.447  0.00  0.00    +0.000 A 
ATOM     15  C   UNL     1       7.444   4.702  16.763  0.00  0.00    +0.000 A 
ATOM     16  C   UNL     1       6.449   5.049  17.674  0.00  0.00    +0.000 A 
ENDBRANCH   3  11
BRANCH   1  18
ATOM     17  N   UNL     1       1.476   8.090  20.902  0.00  0.00    +0.000 N 
ATOM     18  C   UNL     1       1.835   8.008  19.562  0.00  0.00    +0.000 C 
ATOM     19  O   UNL     1       1.615   8.876  18.716  0.00  0.00    +0.000 OA
ATOM     20  H   UNL     1       1.870   7.360  21.491  0.00  0.00    +0.000 HD
BRANCH  17  25
ATOM     21  C   UNL     1       0.191  11.537  21.445  0.00  0.00    +0.000 A 
ATOM     22  C   UNL     1      -0.682  11.338  22.523  0.00  0.00    +0.000 A 
ATOM     23  C   UNL     1      -0.757  10.093  23.129  0.00  0.00    +0.000 A 
ATOM     24  C   UNL     1      -0.005   9.031  22.631  0.00  0.00    +0.000 A 
ATOM     25  C   UNL     1       0.817   9.187  21.505  0.00  0.00    +0.000 A 
ATOM     26  C   UNL     1       0.947  10.462  20.942  0.00  0.00    +0.000 A 
BRANCH  21  29
ATOM     27  C   UNL     1      -0.151  14.135  18.709  0.00  0.00    +0.000 C 
ATOM     28  N   UNL     1      -0.195  12.919  19.472  0.00  0.00    +0.000 N 
ATOM     29  C   UNL     1       0.264  12.867  20.776  0.00  0.00    +0.000 C 
ATOM     30  O   UNL     1       0.710  13.837  21.373  0.00  0.00    +0.000 OA
ATOM     31  H   UNL     1      -0.637  12.112  19.054  0.00  0.00    +0.000 HD
ENDBRANCH  21  29
ENDBRANCH  17  25
ENDBRANCH   1  18
TORSDOF 4
ENDMDL
MODEL 7
REMARK VINA RESULT:      -8.8      2.613      3.046
REMARK  Name = 
REMARK  5 active torsions:
REMARK  status: ('A' for Active; 'I' for Inactive)
REMARK    1  A    between atoms: C_1  and  N_2
REMARK    2  A    between atoms: C_3  and  C_5
REMARK    3  A    between atoms: C_9  and  N_10
REMARK    4  A    between atoms: C_11  and  C_13
REMARK    5  A    between atoms: C_15  and  C_16
REMARK                            x       y       z     vdW  Elec       q    Type
REMARK                         _______ _______ _______ _____ _____    ______ ____
ROOT
ATOM      1  C   UNL     1       2.549   6.828  19.255  0.00  0.00    +0.000 A 
ATOM      2  N   UNL     1       3.592   6.852  18.353  0.00  0.00    +0.000 NA
ATOM      3  C   UNL     1       4.027   5.610  18.232  0.00  0.00    +0.000 A 
ATOM      4  N   UNL     1       3.331   4.775  19.100  0.00  0.00    +0.000 N 
ATOM      5  C   UNL     1       2.357   5.532  19.725  0.00  0.00    +0.000 A 
ATOM      6  C   UNL     1       1.327   4.996  20.682  0.00  0.00    +0.000 C 
ATOM      7  C   UNL     1       0.790   3.631  20.274  0.00  0.00    +0.000 C 
ATOM      8  C   UNL     1       1.689   2.474  20.704  0.00  0.00    +0.000 C 
ATOM      9  C   UNL     1       3.187   2.759  20.618  0.00  0.00    +0.000 C 
ATOM     10  C   UNL     1       3.597   3.358  19.283  0.00  0.00    +0.000 C 
ENDROOT
BRANCH   3  11
ATOM     11  C   UNL     1       5.133   5.227  17.345  0.00  0.00    +0.000 A 
ATOM     12  C   UNL     1       6.408   5.071  17.904  0.00  0.00    +0.000 A 
ATOM     13  C   UNL     1       7.487   4.681  17.118  0.00  0.00    +0.000 A 
ATOM     14  C   UNL     1       7.310   4.446  15.754  0.00  0.00    +0.000 A 
ATOM     15  C   UNL     1       6.057   4.632  15.176  0.00  0.00    +0.000 A 
ATOM     16  C   UNL     1       4.983   5.040  15.964  0.00  0.00    +0.000 A 
ENDBRANCH   3  11
BRANCH   1  18
ATOM     17  N   UNL     1       1.475   8.144  20.943  0.00  0.00    +0.000 N 
ATOM     18  C   UNL     1       1.779   8.032  19.592  0.00  0.00    +0.000 C 
ATOM     19  O   UNL     1       1.496   8.866  18.731  0.00  0.00    +0.000 OA
ATOM     20  H   UNL     1       1.916   7.444  21.536  0.00  0.00    +0.000 HD
BRANCH  17  25
ATOM     21  C   UNL     1       0.152  11.580  21.465  0.00  0.00    +0.000 A 
ATOM     22  C   UNL     1      -0.706  11.382  22.555  0.00  0.00    +0.000 A 
ATOM     23  C   UNL     1      -0.758  10.142  23.175  0.00  0.00    +0.000 A 
ATOM     24  C   UNL     1       0.001   9.084  22.679  0.00  0.00    +0.000 A 
ATOM     25  C   UNL     1       0.809   9.239  21.542  0.00  0.00    +0.000 A 
ATOM     26  C   UNL     1       0.916  10.510  20.964  0.00  0.00    +0.000 A 
BRANCH  21  29
ATOM     27  C   UNL     1       1.092  15.195  20.833  0.00  0.00    +0.000 C 
ATOM     28  N   UNL     1       0.987  13.870  21.379  0.00  0.00    +0.000 N 
ATOM     29  C   UNL     1       0.199  12.904  20.781  0.00  0.00    +0.000 C 
ATOM     30  O   UNL     1      -0.435  13.092  19.752  0.00  0.00    +0.000 OA
ATOM     31  H   UNL     1       1.562  13.638  22.177  0.00  0.00    +0.000 HD
ENDBRANCH  21  29
ENDBRANCH  17  25
ENDBRANCH   1  18
TORSDOF 4
ENDMDL
MODEL 8
REMARK VINA RESULT:      -8.6      2.174      2.427
REMARK  Name = 
REMARK  5 active torsions:
REMARK  status: ('A' for Active; 'I' for Inactive)
REMARK    1  A    between atoms: C_1  and  N_2
REMARK    2  A    between atoms: C_3  and  C_5
REMARK    3  A    between atoms: C_9  and  N_10
REMARK    4  A    between atoms: C_11  and  C_13
REMARK    5  A    between atoms: C_15  and  C_16
REMARK                            x       y       z     vdW  Elec       q    Type
REMARK                         _______ _______ _______ _____ _____    ______ ____
ROOT
ATOM      1  C   UNL     1       2.581   6.645  19.465  0.00  0.00    +0.000 A 
ATOM      2  N   UNL     1       3.608   6.796  18.558  0.00  0.00    +0.000 NA
ATOM      3  C   UNL     1       3.981   5.583  18.192  0.00  0.00    +0.000 A 
ATOM      4  N   UNL     1       3.262   4.628  18.902  0.00  0.00    +0.000 N 
ATOM      5  C   UNL     1       2.336   5.292  19.685  0.00  0.00    +0.000 A 
ATOM      6  C   UNL     1       1.298   4.628  20.548  0.00  0.00    +0.000 C 
ATOM      7  C   UNL     1       0.690   3.391  19.901  0.00  0.00    +0.000 C 
ATOM      8  C   UNL     1       1.541   2.135  20.080  0.00  0.00    +0.000 C 
ATOM      9  C   UNL     1       3.048   2.367  20.012  0.00  0.00    +0.000 C 
ATOM     10  C   UNL     1       3.464   3.192  18.805  0.00  0.00    +0.000 C 
ENDROOT
BRANCH   3  11
ATOM     11  C   UNL     1       5.053   5.329  17.221  0.00  0.00    +0.000 A 
ATOM     12  C   UNL     1       6.312   4.951  17.705  0.00  0.00    +0.000 A 
ATOM     13  C   UNL     1       7.356   4.670  16.830  0.00  0.00    +0.000 A 
ATOM     14  C   UNL     1       7.161   4.768  15.453  0.00  0.00    +0.000 A 
ATOM     15  C   UNL     1       5.926   5.179  14.956  0.00  0.00    +0.000 A 
ATOM     16  C   UNL     1       4.888   5.477  15.837  0.00  0.00    +0.000 A 
ENDBRANCH   3  11
BRANCH   1  18
ATOM     17  N   UNL     1       1.626   8.817  19.137  0.00  0.00    +0.000 N 
ATOM     18  C   UNL     1       1.874   7.794  20.045  0.00  0.00    +0.000 C 
ATOM     19  O   UNL     1       1.506   7.787  21.220  0.00  0.00    +0.000 OA
ATOM     20  H   UNL     1       1.863   8.593  18.173  0.00  0.00    +0.000 HD
BRANCH  17  25
ATOM     21  C   UNL     1      -0.420  11.320  20.975  0.00  0.00    +0.000 A 
ATOM     22  C   UNL     1      -0.335  12.426  20.118  0.00  0.00    +0.000 A 
ATOM     23  C   UNL     1       0.305  12.303  18.894  0.00  0.00    +0.000 A 
ATOM     24  C   UNL     1       0.907  11.097  18.543  0.00  0.00    +0.000 A 
ATOM     25  C   UNL     1       0.901   9.999  19.416  0.00  0.00    +0.000 A 
ATOM     26  C   UNL     1       0.192  10.104  20.618  0.00  0.00    +0.000 A 
BRANCH  21  29
ATOM     27  C   UNL     1      -3.036  12.318  23.526  0.00  0.00    +0.000 C 
ATOM     28  N   UNL     1      -2.306  12.104  22.307  0.00  0.00    +0.000 N 
ATOM     29  C   UNL     1      -1.089  11.449  22.301  0.00  0.00    +0.000 C 
ATOM     30  O   UNL     1      -0.563  10.993  23.306  0.00  0.00    +0.000 OA
ATOM     31  H   UNL     1      -2.741  12.382  21.438  0.00  0.00    +0.000 HD
ENDBRANCH  21  29
ENDBRANCH  17  25
ENDBRANCH   1  18
TORSDOF 4
ENDMDL
MODEL 9
REMARK VINA RESULT:      -8.6      2.015      3.011
REMARK  Name = 
REMARK  5 active torsions:
REMARK  status: ('A' for Active; 'I' for Inactive)
REMARK    1  A    between atoms: C_1  and  N_2
REMARK    2  A    between atoms: C_3  and  C_5
REMARK    3  A    between atoms: C_9  and  N_10
REMARK    4  A    between atoms: C_11  and  C_13
REMARK    5  A    between atoms: C_15  and  C_16
REMARK                            x       y       z     vdW  Elec       q    Type
REMARK                         _______ _______ _______ _____ _____    ______ ____
ROOT
ATOM      1  C   UNL     1       2.773   6.648  18.580  0.00  0.00    +0.000 A 
ATOM      2  N   UNL     1       3.734   6.728  17.594  0.00  0.00    +0.000 NA
ATOM      3  C   UNL     1       4.093   5.491  17.303  0.00  0.00    +0.000 A 
ATOM      4  N   UNL     1       3.433   4.595  18.138  0.00  0.00    +0.000 N 
ATOM      5  C   UNL     1       2.557   5.318  18.926  0.00  0.00    +0.000 A 
ATOM      6  C   UNL     1       1.587   4.723  19.910  0.00  0.00    +0.000 C 
ATOM      7  C   UNL     1       0.948   3.435  19.411  0.00  0.00    +0.000 C 
ATOM      8  C   UNL     1       1.821   2.201  19.632  0.00  0.00    +0.000 C 
ATOM      9  C   UNL     1       3.318   2.432  19.440  0.00  0.00    +0.000 C 
ATOM     10  C   UNL     1       3.641   3.156  18.145  0.00  0.00    +0.000 C 
ENDROOT
BRANCH   3  11
ATOM     11  C   UNL     1       5.097   5.162  16.284  0.00  0.00    +0.000 A 
ATOM     12  C   UNL     1       6.432   5.505  16.533  0.00  0.00    +0.000 A 
ATOM     13  C   UNL     1       7.430   5.191  15.616  0.00  0.00    +0.000 A 
ATOM     14  C   UNL     1       7.108   4.535  14.428  0.00  0.00    +0.000 A 
ATOM     15  C   UNL     1       5.781   4.220  14.148  0.00  0.00    +0.000 A 
ATOM     16  C   UNL     1       4.782   4.552  15.062  0.00  0.00    +0.000 A 
ENDBRANCH   3  11
BRANCH   1  18
ATOM     17  N   UNL     1       1.692   8.739  18.132  0.00  0.00    +0.000 N 
ATOM     18  C   UNL     1       2.097   7.839  19.111  0.00  0.00    +0.000 C 
ATOM     19  O   UNL     1       1.883   7.963  20.318  0.00  0.00    +0.000 OA
ATOM     20  H   UNL     1       1.814   8.408  17.177  0.00  0.00    +0.000 HD
BRANCH  17  25
ATOM     21  C   UNL     1       0.943  12.307  18.865  0.00  0.00    +0.000 A 
ATOM     22  C   UNL     1      -0.430  12.362  18.587  0.00  0.00    +0.000 A 
ATOM     23  C   UNL     1      -1.116  11.199  18.267  0.00  0.00    +0.000 A 
ATOM     24  C   UNL     1      -0.429   9.991  18.168  0.00  0.00    +0.000 A 
ATOM     25  C   UNL     1       0.959   9.925  18.366  0.00  0.00    +0.000 A 
ATOM     26  C   UNL     1       1.635  11.086  18.762  0.00  0.00    +0.000 A 
BRANCH  21  29
ATOM     27  C   UNL     1       3.243  14.651  20.753  0.00  0.00    +0.000 C 
ATOM     28  N   UNL     1       2.493  13.505  20.317  0.00  0.00    +0.000 N 
ATOM     29  C   UNL     1       1.691  13.554  19.192  0.00  0.00    +0.000 C 
ATOM     30  O   UNL     1       1.578  14.546  18.486  0.00  0.00    +0.000 OA
ATOM     31  H   UNL     1       2.623  12.635  20.814  0.00  0.00    +0.000 HD
ENDBRANCH  21  29
ENDBRANCH  17  25
ENDBRANCH   1  18
TORSDOF 4
ENDMDL
