MODEL 1
REMARK VINA RESULT:      -8.3      0.000      0.000
REMARK  Name = 
REMARK  4 active torsions:
REMARK  status: ('A' for Active; 'I' for Inactive)
REMARK    1  A    between atoms: C_2  and  C_13
REMARK    2  A    between atoms: N_3  and  C_4
REMARK    3  A    between atoms: C_17  and  C_18
REMARK    4  A    between atoms: C_18  and  N_19
REMARK                            x       y       z     vdW  Elec       q    Type
REMARK                         _______ _______ _______ _____ _____    ______ ____
ROOT
ATOM      1  C   UNL     1       2.028   4.319  18.889  0.00  0.00    +0.000 A 
ATOM      2  O   UNL     1       1.179   3.277  19.164  0.00  0.00    +0.000 OA
ATOM      3  C   UNL     1       0.661   3.494  20.399  0.00  0.00    +0.000 A 
ATOM      4  C   UNL     1       1.157   4.657  20.928  0.00  0.00    +0.000 A 
ATOM      5  C   UNL     1       2.047   5.208  19.958  0.00  0.00    +0.000 A 
ENDROOT
BRANCH   1   7
ATOM      6  O   UNL     1       2.301   3.771  16.612  0.00  0.00    +0.000 OA
ATOM      7  C   UNL     1       2.720   4.341  17.617  0.00  0.00    +0.000 C 
ATOM      8  N   UNL     1       3.904   5.047  17.604  0.00  0.00    +0.000 N 
ATOM      9  H   UNL     1       4.262   5.398  18.484  0.00  0.00    +0.000 HD
BRANCH   8  10
ATOM     10  C   UNL     1       4.681   5.160  16.394  0.00  0.00    +0.000 C 
ATOM     11  C   UNL     1       5.118   3.774  15.854  0.00  0.00    +0.000 C 
ATOM     12  C   UNL     1       6.097   3.917  14.668  0.00  0.00    +0.000 C 
ATOM     13  C   UNL     1       7.396   4.657  15.056  0.00  0.00    +0.000 C 
ATOM     14  C   UNL     1       7.069   5.772  15.973  0.00  0.00    +0.000 A 
ATOM     15  O   UNL     1       8.002   6.705  16.269  0.00  0.00    +0.000 OA
ATOM     16  C   UNL     1       7.397   7.583  17.116  0.00  0.00    +0.000 A 
ATOM     17  C   UNL     1       6.092   7.207  17.362  0.00  0.00    +0.000 A 
ATOM     18  C   UNL     1       5.878   6.020  16.621  0.00  0.00    +0.000 A 
ENDBRANCH   8  10
ENDBRANCH   1   7
BRANCH   5  19
ATOM     19  C   UNL     1       2.805   6.492  20.081  0.00  0.00    +0.000 C 
BRANCH  19  20
ATOM     20  N   UNL     1       2.009   7.622  19.653  0.00  0.00    +0.000 N 
ATOM     21  C   UNL     1       2.100   8.191  18.377  0.00  0.00    +0.000 C 
ATOM     22  O   UNL     1       2.770   7.799  17.433  0.00  0.00    +0.000 OA
ATOM     23  C   UNL     1       1.219   9.441  18.363  0.00  0.00    +0.000 C 
ATOM     24  C   UNL     1       0.754   9.526  19.781  0.00  0.00    +0.000 A 
ATOM     25  C   UNL     1      -0.027  10.502  20.379  0.00  0.00    +0.000 A 
ATOM     26  C   UNL     1      -0.316  10.368  21.738  0.00  0.00    +0.000 A 
ATOM     27  C   UNL     1       0.178   9.276  22.469  0.00  0.00    +0.000 A 
ATOM     28  C   UNL     1       0.970   8.300  21.852  0.00  0.00    +0.000 A 
ATOM     29  C   UNL     1       1.243   8.437  20.503  0.00  0.00    +0.000 A 
ENDBRANCH  19  20
ENDBRANCH   5  19
TORSDOF 4
ENDMDL
MODEL 2
REMARK VINA RESULT:      -8.0      2.949      4.599
REMARK  Name = 
REMARK  4 active torsions:
REMARK  status: ('A' for Active; 'I' for Inactive)
REMARK    1  A    between atoms: C_2  and  C_13
REMARK    2  A    between atoms: N_3  and  C_4
REMARK    3  A    between atoms: C_17  and  C_18
REMARK    4  A    between atoms: C_18  and  N_19
REMARK                            x       y       z     vdW  Elec       q    Type
REMARK                         _______ _______ _______ _____ _____    ______ ____
ROOT
ATOM      1  C   UNL     1       1.520   8.574  20.072  0.00  0.00    +0.000 A 
ATOM      2  O   UNL     1       1.409   7.997  21.312  0.00  0.00    +0.000 OA
ATOM      3  C   UNL     1       0.875   8.928  22.142  0.00  0.00    +0.000 A 
ATOM      4  C   UNL     1       0.636  10.094  21.463  0.00  0.00    +0.000 A 
ATOM      5  C   UNL     1       1.049   9.880  20.114  0.00  0.00    +0.000 A 
ENDROOT
BRANCH   1   7
ATOM      6  O   UNL     1       2.376   8.272  17.895  0.00  0.00    +0.000 OA
ATOM      7  C   UNL     1       2.063   7.789  18.982  0.00  0.00    +0.000 C 
ATOM      8  N   UNL     1       2.202   6.442  19.239  0.00  0.00    +0.000 N 
ATOM      9  H   UNL     1       1.821   6.078  20.104  0.00  0.00    +0.000 HD
BRANCH   8  10
ATOM     10  C   UNL     1       2.746   5.553  18.241  0.00  0.00    +0.000 C 
ATOM     11  C   UNL     1       1.895   4.267  18.085  0.00  0.00    +0.000 C 
ATOM     12  C   UNL     1       2.586   3.249  17.151  0.00  0.00    +0.000 C 
ATOM     13  C   UNL     1       3.962   2.793  17.681  0.00  0.00    +0.000 C 
ATOM     14  C   UNL     1       4.666   3.952  18.274  0.00  0.00    +0.000 A 
ATOM     15  O   UNL     1       5.976   3.860  18.596  0.00  0.00    +0.000 OA
ATOM     16  C   UNL     1       6.323   5.076  19.102  0.00  0.00    +0.000 A 
ATOM     17  C   UNL     1       5.240   5.932  19.107  0.00  0.00    +0.000 A 
ATOM     18  C   UNL     1       4.155   5.197  18.572  0.00  0.00    +0.000 A 
ENDBRANCH   8  10
ENDBRANCH   1   7
BRANCH   5  19
ATOM     19  C   UNL     1       0.953  10.867  18.993  0.00  0.00    +0.000 C 
BRANCH  19  20
ATOM     20  N   UNL     1      -0.302  11.586  19.023  0.00  0.00    +0.000 N 
ATOM     21  C   UNL     1      -0.512  12.743  19.782  0.00  0.00    +0.000 C 
ATOM     22  O   UNL     1       0.311  13.356  20.446  0.00  0.00    +0.000 OA
ATOM     23  C   UNL     1      -1.991  13.112  19.665  0.00  0.00    +0.000 C 
ATOM     24  C   UNL     1      -2.547  11.977  18.868  0.00  0.00    +0.000 A 
ATOM     25  C   UNL     1      -3.862  11.736  18.505  0.00  0.00    +0.000 A 
ATOM     26  C   UNL     1      -4.138  10.584  17.766  0.00  0.00    +0.000 A 
ATOM     27  C   UNL     1      -3.106   9.701  17.410  0.00  0.00    +0.000 A 
ATOM     28  C   UNL     1      -1.783   9.955  17.789  0.00  0.00    +0.000 A 
ATOM     29  C   UNL     1      -1.519  11.102  18.513  0.00  0.00    +0.000 A 
ENDBRANCH  19  20
ENDBRANCH   5  19
TORSDOF 4
ENDMDL
MODEL 3
REMARK VINA RESULT:      -8.0      2.551      3.910
REMARK  Name = 
REMARK  4 active torsions:
REMARK  status: ('A' for Active; 'I' for Inactive)
REMARK    1  A    between atoms: C_2  and  C_13
REMARK    2  A    between atoms: N_3  and  C_4
REMARK    3  A    between atoms: C_17  and  C_18
REMARK    4  A    between atoms: C_18  and  N_19
REMARK                            x       y       z     vdW  Elec       q    Type
REMARK                         _______ _______ _______ _____ _____    ______ ____
ROOT
ATOM      1  C   UNL     1       1.936   8.282  19.258  0.00  0.00    +0.000 A 
ATOM      2  O   UNL     1       1.792   7.430  20.325  0.00  0.00    +0.000 OA
ATOM      3  C   UNL     1       1.096   8.096  21.280  0.00  0.00    +0.000 A 
ATOM      4  C   UNL     1       0.785   9.361  20.852  0.00  0.00    +0.000 A 
ATOM      5  C   UNL     1       1.323   9.498  19.538  0.00  0.00    +0.000 A 
ENDROOT
BRANCH   1   7
ATOM      6  O   UNL     1       2.588   8.386  16.994  0.00  0.00    +0.000 OA
ATOM      7  C   UNL     1       2.644   7.818  18.084  0.00  0.00    +0.000 C 
ATOM      8  N   UNL     1       3.393   6.674  18.261  0.00  0.00    +0.000 N 
ATOM      9  H   UNL     1       3.313   6.182  19.143  0.00  0.00    +0.000 HD
BRANCH   8  10
ATOM     10  C   UNL     1       4.159   6.118  17.173  0.00  0.00    +0.000 C 
ATOM     11  C   UNL     1       4.036   4.574  17.107  0.00  0.00    +0.000 C 
ATOM     12  C   UNL     1       5.000   3.979  16.057  0.00  0.00    +0.000 C 
ATOM     13  C   UNL     1       6.481   4.279  16.372  0.00  0.00    +0.000 C 
ATOM     14  C   UNL     1       6.601   5.662  16.887  0.00  0.00    +0.000 A 
ATOM     15  O   UNL     1       7.818   6.237  17.016  0.00  0.00    +0.000 OA
ATOM     16  C   UNL     1       7.591   7.490  17.498  0.00  0.00    +0.000 A 
ATOM     17  C   UNL     1       6.241   7.707  17.681  0.00  0.00    +0.000 A 
ATOM     18  C   UNL     1       5.592   6.511  17.289  0.00  0.00    +0.000 A 
ENDBRANCH   8  10
ENDBRANCH   1   7
BRANCH   5  19
ATOM     19  C   UNL     1       1.208  10.701  18.656  0.00  0.00    +0.000 C 
BRANCH  19  20
ATOM     20  N   UNL     1      -0.051  11.385  18.852  0.00  0.00    +0.000 N 
ATOM     21  C   UNL     1      -0.246  12.386  19.811  0.00  0.00    +0.000 C 
ATOM     22  O   UNL     1       0.593  12.884  20.548  0.00  0.00    +0.000 OA
ATOM     23  C   UNL     1      -1.731  12.750  19.807  0.00  0.00    +0.000 C 
ATOM     24  C   UNL     1      -2.304  11.766  18.838  0.00  0.00    +0.000 A 
ATOM     25  C   UNL     1      -3.628  11.575  18.478  0.00  0.00    +0.000 A 
ATOM     26  C   UNL     1      -3.918  10.569  17.555  0.00  0.00    +0.000 A 
ATOM     27  C   UNL     1      -2.891   9.777  17.017  0.00  0.00    +0.000 A 
ATOM     28  C   UNL     1      -1.558   9.979  17.394  0.00  0.00    +0.000 A 
ATOM     29  C   UNL     1      -1.280  10.983  18.302  0.00  0.00    +0.000 A 
ENDBRANCH  19  20
ENDBRANCH   5  19
TORSDOF 4
ENDMDL
MODEL 4
REMARK VINA RESULT:      -7.9      1.767      6.219
REMARK  Name = 
REMARK  4 active torsions:
REMARK  status: ('A' for Active; 'I' for Inactive)
REMARK    1  A    between atoms: C_2  and  C_13
REMARK    2  A    between atoms: N_3  and  C_4
REMARK    3  A    between atoms: C_17  and  C_18
REMARK    4  A    between atoms: C_18  and  N_19
REMARK                            x       y       z     vdW  Elec       q    Type
REMARK                         _______ _______ _______ _____ _____    ______ ____
ROOT
ATOM      1  C   UNL     1       2.024   3.755  19.740  0.00  0.00    +0.000 A 
ATOM      2  O   UNL     1       0.781   3.193  19.591  0.00  0.00    +0.000 OA
ATOM      3  C   UNL     1       0.938   2.053  18.872  0.00  0.00    +0.000 A 
ATOM      4  C   UNL     1       2.257   1.866  18.554  0.00  0.00    +0.000 A 
ATOM      5  C   UNL     1       2.978   2.963  19.112  0.00  0.00    +0.000 A 
ENDROOT
BRANCH   1   7
ATOM      6  O   UNL     1       2.576   5.048  21.633  0.00  0.00    +0.000 OA
ATOM      7  C   UNL     1       2.149   4.992  20.481  0.00  0.00    +0.000 C 
ATOM      8  N   UNL     1       1.743   6.125  19.808  0.00  0.00    +0.000 N 
ATOM      9  H   UNL     1       1.291   6.011  18.909  0.00  0.00    +0.000 HD
BRANCH   8  10
ATOM     10  C   UNL     1       1.831   7.423  20.430  0.00  0.00    +0.000 C 
ATOM     11  C   UNL     1       0.732   7.628  21.504  0.00  0.00    +0.000 C 
ATOM     12  C   UNL     1       0.724   9.081  22.028  0.00  0.00    +0.000 C 
ATOM     13  C   UNL     1       0.438  10.114  20.917  0.00  0.00    +0.000 C 
ATOM     14  C   UNL     1       1.139   9.706  19.678  0.00  0.00    +0.000 A 
ATOM     15  O   UNL     1       1.233  10.562  18.636  0.00  0.00    +0.000 OA
ATOM     16  C   UNL     1       1.930   9.901  17.671  0.00  0.00    +0.000 A 
ATOM     17  C   UNL     1       2.271   8.633  18.093  0.00  0.00    +0.000 A 
ATOM     18  C   UNL     1       1.749   8.501  19.403  0.00  0.00    +0.000 A 
ENDBRANCH   8  10
ENDBRANCH   1   7
BRANCH   5  19
ATOM     19  C   UNL     1       4.458   3.174  19.045  0.00  0.00    +0.000 C 
BRANCH  19  20
ATOM     20  N   UNL     1       4.796   4.313  18.219  0.00  0.00    +0.000 N 
ATOM     21  C   UNL     1       4.199   4.572  16.980  0.00  0.00    +0.000 C 
ATOM     22  O   UNL     1       3.281   3.961  16.454  0.00  0.00    +0.000 OA
ATOM     23  C   UNL     1       4.923   5.767  16.358  0.00  0.00    +0.000 C 
ATOM     24  C   UNL     1       6.020   6.029  17.338  0.00  0.00    +0.000 A 
ATOM     25  C   UNL     1       7.042   6.961  17.266  0.00  0.00    +0.000 A 
ATOM     26  C   UNL     1       7.968   7.002  18.310  0.00  0.00    +0.000 A 
ATOM     27  C   UNL     1       7.860   6.116  19.394  0.00  0.00    +0.000 A 
ATOM     28  C   UNL     1       6.825   5.175  19.451  0.00  0.00    +0.000 A 
ATOM     29  C   UNL     1       5.908   5.149  18.416  0.00  0.00    +0.000 A 
ENDBRANCH  19  20
ENDBRANCH   5  19
TORSDOF 4
ENDMDL
MODEL 5
REMARK VINA RESULT:      -7.8      3.190      4.860
REMARK  Name = 
REMARK  4 active torsions:
REMARK  status: ('A' for Active; 'I' for Inactive)
REMARK    1  A    between atoms: C_2  and  C_13
REMARK    2  A    between atoms: N_3  and  C_4
REMARK    3  A    between atoms: C_17  and  C_18
REMARK    4  A    between atoms: C_18  and  N_19
REMARK                            x       y       z     vdW  Elec       q    Type
REMARK                         _______ _______ _______ _____ _____    ______ ____
ROOT
ATOM      1  C   UNL     1       1.472   8.642  19.961  0.00  0.00    +0.000 A 
ATOM      2  O   UNL     1       1.637   8.256  21.267  0.00  0.00    +0.000 OA
ATOM      3  C   UNL     1       1.005   9.174  22.041  0.00  0.00    +0.000 A 
ATOM      4  C   UNL     1       0.434  10.145  21.261  0.00  0.00    +0.000 A 
ATOM      5  C   UNL     1       0.727   9.814  19.905  0.00  0.00    +0.000 A 
ENDROOT
BRANCH   1   7
ATOM      6  O   UNL     1       2.466   8.289  17.851  0.00  0.00    +0.000 OA
ATOM      7  C   UNL     1       2.049   7.827  18.912  0.00  0.00    +0.000 C 
ATOM      8  N   UNL     1       2.094   6.475  19.176  0.00  0.00    +0.000 N 
ATOM      9  H   UNL     1       1.633   6.134  20.011  0.00  0.00    +0.000 HD
BRANCH   8  10
ATOM     10  C   UNL     1       2.660   5.555  18.219  0.00  0.00    +0.000 C 
ATOM     11  C   UNL     1       1.810   4.266  18.082  0.00  0.00    +0.000 C 
ATOM     12  C   UNL     1       2.520   3.219  17.196  0.00  0.00    +0.000 C 
ATOM     13  C   UNL     1       3.883   2.777  17.773  0.00  0.00    +0.000 C 
ATOM     14  C   UNL     1       4.576   3.953  18.346  0.00  0.00    +0.000 A 
ATOM     15  O   UNL     1       5.878   3.870  18.702  0.00  0.00    +0.000 OA
ATOM     16  C   UNL     1       6.215   5.100  19.178  0.00  0.00    +0.000 A 
ATOM     17  C   UNL     1       5.134   5.957  19.132  0.00  0.00    +0.000 A 
ATOM     18  C   UNL     1       4.060   5.208  18.594  0.00  0.00    +0.000 A 
ENDBRANCH   8  10
ENDBRANCH   1   7
BRANCH   5  19
ATOM     19  C   UNL     1       0.283  10.573  18.694  0.00  0.00    +0.000 C 
BRANCH  19  20
ATOM     20  N   UNL     1       0.183  11.991  18.962  0.00  0.00    +0.000 N 
ATOM     21  C   UNL     1      -1.024  12.640  19.245  0.00  0.00    +0.000 C 
ATOM     22  O   UNL     1      -2.127  12.132  19.389  0.00  0.00    +0.000 OA
ATOM     23  C   UNL     1      -0.738  14.140  19.320  0.00  0.00    +0.000 C 
ATOM     24  C   UNL     1       0.706  14.215  18.939  0.00  0.00    +0.000 A 
ATOM     25  C   UNL     1       1.500  15.337  18.771  0.00  0.00    +0.000 A 
ATOM     26  C   UNL     1       2.830  15.148  18.391  0.00  0.00    +0.000 A 
ATOM     27  C   UNL     1       3.335  13.854  18.182  0.00  0.00    +0.000 A 
ATOM     28  C   UNL     1       2.519  12.730  18.351  0.00  0.00    +0.000 A 
ATOM     29  C   UNL     1       1.206  12.928  18.736  0.00  0.00    +0.000 A 
ENDBRANCH  19  20
ENDBRANCH   5  19
TORSDOF 4
ENDMDL
MODEL 6
REMARK VINA RESULT:      -7.8      1.068      1.114
REMARK  Name = 
REMARK  4 active torsions:
REMARK  status: ('A' for Active; 'I' for Inactive)
REMARK    1  A    between atoms: C_2  and  C_13
REMARK    2  A    between atoms: N_3  and  C_4
REMARK    3  A    between atoms: C_17  and  C_18
REMARK    4  A    between atoms: C_18  and  N_19
REMARK                            x       y       z     vdW  Elec       q    Type
REMARK                         _______ _______ _______ _____ _____    ______ ____
ROOT
ATOM      1  C   UNL     1       2.407   4.420  18.985  0.00  0.00    +0.000 A 
ATOM      2  O   UNL     1       1.512   3.381  19.057  0.00  0.00    +0.000 OA
ATOM      3  C   UNL     1       0.604   3.699  20.013  0.00  0.00    +0.000 A 
ATOM      4  C   UNL     1       0.891   4.922  20.559  0.00  0.00    +0.000 A 
ATOM      5  C   UNL     1       2.061   5.406  19.901  0.00  0.00    +0.000 A 
ENDROOT
BRANCH   1   7
ATOM      6  O   UNL     1       4.036   3.287  17.710  0.00  0.00    +0.000 OA
ATOM      7  C   UNL     1       3.492   4.343  18.030  0.00  0.00    +0.000 C 
ATOM      8  N   UNL     1       3.894   5.549  17.497  0.00  0.00    +0.000 N 
ATOM      9  H   UNL     1       3.494   6.398  17.879  0.00  0.00    +0.000 HD
BRANCH   8  10
ATOM     10  C   UNL     1       4.955   5.608  16.522  0.00  0.00    +0.000 C 
ATOM     11  C   UNL     1       4.637   4.757  15.266  0.00  0.00    +0.000 C 
ATOM     12  C   UNL     1       5.852   4.683  14.316  0.00  0.00    +0.000 C 
ATOM     13  C   UNL     1       7.086   4.031  14.978  0.00  0.00    +0.000 C 
ATOM     14  C   UNL     1       7.185   4.486  16.382  0.00  0.00    +0.000 A 
ATOM     15  O   UNL     1       8.304   4.238  17.101  0.00  0.00    +0.000 OA
ATOM     16  C   UNL     1       8.087   4.783  18.330  0.00  0.00    +0.000 A 
ATOM     17  C   UNL     1       6.838   5.366  18.395  0.00  0.00    +0.000 A 
ATOM     18  C   UNL     1       6.244   5.167  17.125  0.00  0.00    +0.000 A 
ENDBRANCH   8  10
ENDBRANCH   1   7
BRANCH   5  19
ATOM     19  C   UNL     1       2.734   6.720  20.146  0.00  0.00    +0.000 C 
BRANCH  19  20
ATOM     20  N   UNL     1       1.897   7.829  19.743  0.00  0.00    +0.000 N 
ATOM     21  C   UNL     1       1.946   8.411  18.471  0.00  0.00    +0.000 C 
ATOM     22  O   UNL     1       2.608   8.047  17.511  0.00  0.00    +0.000 OA
ATOM     23  C   UNL     1       1.028   9.635  18.486  0.00  0.00    +0.000 C 
ATOM     24  C   UNL     1       0.589   9.694  19.914  0.00  0.00    +0.000 A 
ATOM     25  C   UNL     1      -0.208  10.642  20.536  0.00  0.00    +0.000 A 
ATOM     26  C   UNL     1      -0.465  10.488  21.899  0.00  0.00    +0.000 A 
ATOM     27  C   UNL     1       0.076   9.405  22.610  0.00  0.00    +0.000 A 
ATOM     28  C   UNL     1       0.883   8.458  21.968  0.00  0.00    +0.000 A 
ATOM     29  C   UNL     1       1.125   8.614  20.616  0.00  0.00    +0.000 A 
ENDBRANCH  19  20
ENDBRANCH   5  19
TORSDOF 4
ENDMDL
MODEL 7
REMARK VINA RESULT:      -7.8      2.930      5.783
REMARK  Name = 
REMARK  4 active torsions:
REMARK  status: ('A' for Active; 'I' for Inactive)
REMARK    1  A    between atoms: C_2  and  C_13
REMARK    2  A    between atoms: N_3  and  C_4
REMARK    3  A    between atoms: C_17  and  C_18
REMARK    4  A    between atoms: C_18  and  N_19
REMARK                            x       y       z     vdW  Elec       q    Type
REMARK                         _______ _______ _______ _____ _____    ______ ____
ROOT
ATOM      1  C   UNL     1      -0.206  10.236  18.177  0.00  0.00    +0.000 A 
ATOM      2  O   UNL     1      -1.052   9.575  17.321  0.00  0.00    +0.000 OA
ATOM      3  C   UNL     1      -2.252  10.204  17.375  0.00  0.00    +0.000 A 
ATOM      4  C   UNL     1      -2.200  11.260  18.247  0.00  0.00    +0.000 A 
ATOM      5  C   UNL     1      -0.876  11.296  18.777  0.00  0.00    +0.000 A 
ENDROOT
BRANCH   1   7
ATOM      6  O   UNL     1       2.133  10.520  18.272  0.00  0.00    +0.000 OA
ATOM      7  C   UNL     1       1.158   9.771  18.311  0.00  0.00    +0.000 C 
ATOM      8  N   UNL     1       1.302   8.410  18.478  0.00  0.00    +0.000 N 
ATOM      9  H   UNL     1       0.479   7.826  18.386  0.00  0.00    +0.000 HD
BRANCH   8  10
ATOM     10  C   UNL     1       2.609   7.821  18.639  0.00  0.00    +0.000 C 
ATOM     11  C   UNL     1       3.293   7.546  17.276  0.00  0.00    +0.000 C 
ATOM     12  C   UNL     1       4.606   6.752  17.457  0.00  0.00    +0.000 C 
ATOM     13  C   UNL     1       4.381   5.372  18.113  0.00  0.00    +0.000 C 
ATOM     14  C   UNL     1       3.359   5.496  19.176  0.00  0.00    +0.000 A 
ATOM     15  O   UNL     1       3.156   4.482  20.046  0.00  0.00    +0.000 OA
ATOM     16  C   UNL     1       2.173   4.904  20.890  0.00  0.00    +0.000 A 
ATOM     17  C   UNL     1       1.750   6.174  20.554  0.00  0.00    +0.000 A 
ATOM     18  C   UNL     1       2.520   6.560  19.430  0.00  0.00    +0.000 A 
ENDBRANCH   8  10
ENDBRANCH   1   7
BRANCH   5  19
ATOM     19  C   UNL     1      -0.340  12.298  19.750  0.00  0.00    +0.000 C 
BRANCH  19  20
ATOM     20  N   UNL     1      -0.788  12.023  21.098  0.00  0.00    +0.000 N 
ATOM     21  C   UNL     1      -0.203  11.056  21.924  0.00  0.00    +0.000 C 
ATOM     22  O   UNL     1       0.785  10.376  21.690  0.00  0.00    +0.000 OA
ATOM     23  C   UNL     1      -1.045  10.964  23.198  0.00  0.00    +0.000 C 
ATOM     24  C   UNL     1      -2.180  11.891  22.904  0.00  0.00    +0.000 A 
ATOM     25  C   UNL     1      -3.298  12.163  23.677  0.00  0.00    +0.000 A 
ATOM     26  C   UNL     1      -4.239  13.063  23.173  0.00  0.00    +0.000 A 
ATOM     27  C   UNL     1      -4.051  13.665  21.919  0.00  0.00    +0.000 A 
ATOM     28  C   UNL     1      -2.919  13.376  21.148  0.00  0.00    +0.000 A 
ATOM     29  C   UNL     1      -1.989  12.490  21.658  0.00  0.00    +0.000 A 
ENDBRANCH  19  20
ENDBRANCH   5  19
TORSDOF 4
ENDMDL
MODEL 8
REMARK VINA RESULT:      -7.8      2.676      4.876
REMARK  Name = 
REMARK  4 active torsions:
REMARK  status: ('A' for Active; 'I' for Inactive)
REMARK    1  A    between atoms: C_2  and  C_13
REMARK    2  A    between atoms: N_3  and  C_4
REMARK    3  A    between atoms: C_17  and  C_18
REMARK    4  A    between atoms: C_18  and  N_19
REMARK                            x       y       z     vdW  Elec       q    Type
REMARK                         _______ _______ _______ _____ _____    ______ ____
ROOT
ATOM      1  C   UNL     1       1.612   8.226  20.312  0.00  0.00    +0.000 A 
ATOM      2  O   UNL     1       1.375   7.946  21.635  0.00  0.00    +0.000 OA
ATOM      3  C   UNL     1       0.756   9.027  22.170  0.00  0.00    +0.000 A 
ATOM      4  C   UNL     1       0.586  10.001  21.220  0.00  0.00    +0.000 A 
ATOM      5  C   UNL     1       1.136   9.495  20.005  0.00  0.00    +0.000 A 
ENDROOT
BRANCH   1   7
ATOM      6  O   UNL     1       2.218   7.227  18.263  0.00  0.00    +0.000 OA
ATOM      7  C   UNL     1       2.265   7.227  19.492  0.00  0.00    +0.000 C 
ATOM      8  N   UNL     1       2.950   6.252  20.185  0.00  0.00    +0.000 N 
ATOM      9  H   UNL     1       2.860   6.230  21.194  0.00  0.00    +0.000 HD
BRANCH   8  10
ATOM     10  C   UNL     1       3.657   5.208  19.485  0.00  0.00    +0.000 C 
ATOM     11  C   UNL     1       4.532   5.770  18.335  0.00  0.00    +0.000 C 
ATOM     12  C   UNL     1       5.137   4.632  17.484  0.00  0.00    +0.000 C 
ATOM     13  C   UNL     1       4.059   3.752  16.814  0.00  0.00    +0.000 C 
ATOM     14  C   UNL     1       2.940   3.545  17.761  0.00  0.00    +0.000 A 
ATOM     15  O   UNL     1       1.986   2.624  17.495  0.00  0.00    +0.000 OA
ATOM     16  C   UNL     1       1.119   2.671  18.545  0.00  0.00    +0.000 A 
ATOM     17  C   UNL     1       1.514   3.619  19.466  0.00  0.00    +0.000 A 
ATOM     18  C   UNL     1       2.701   4.196  18.953  0.00  0.00    +0.000 A 
ENDBRANCH   8  10
ENDBRANCH   1   7
BRANCH   5  19
ATOM     19  C   UNL     1       1.154  10.196  18.683  0.00  0.00    +0.000 C 
BRANCH  19  20
ATOM     20  N   UNL     1       0.078  11.157  18.576  0.00  0.00    +0.000 N 
ATOM     21  C   UNL     1       0.170  12.474  19.042  0.00  0.00    +0.000 C 
ATOM     22  O   UNL     1       1.150  13.029  19.516  0.00  0.00    +0.000 OA
ATOM     23  C   UNL     1      -1.207  13.119  18.884  0.00  0.00    +0.000 C 
ATOM     24  C   UNL     1      -2.045  11.981  18.397  0.00  0.00    +0.000 A 
ATOM     25  C   UNL     1      -3.406  11.955  18.140  0.00  0.00    +0.000 A 
ATOM     26  C   UNL     1      -3.969  10.754  17.706  0.00  0.00    +0.000 A 
ATOM     27  C   UNL     1      -3.171   9.610  17.543  0.00  0.00    +0.000 A 
ATOM     28  C   UNL     1      -1.798   9.650  17.811  0.00  0.00    +0.000 A 
ATOM     29  C   UNL     1      -1.248  10.847  18.232  0.00  0.00    +0.000 A 
ENDBRANCH  19  20
ENDBRANCH   5  19
TORSDOF 4
ENDMDL
MODEL 9
REMARK VINA RESULT:      -7.7      2.816      4.476
REMARK  Name = 
REMARK  4 active torsions:
REMARK  status: ('A' for Active; 'I' for Inactive)
REMARK    1  A    between atoms: C_2  and  C_13
REMARK    2  A    between atoms: N_3  and  C_4
REMARK    3  A    between atoms: C_17  and  C_18
REMARK    4  A    between atoms: C_18  and  N_19
REMARK                            x       y       z     vdW  Elec       q    Type
REMARK                         _______ _______ _______ _____ _____    ______ ____
ROOT
ATOM      1  C   UNL     1       1.396   8.711  20.183  0.00  0.00    +0.000 A 
ATOM      2  O   UNL     1       1.502   8.199  21.452  0.00  0.00    +0.000 OA
ATOM      3  C   UNL     1       0.939   9.099  22.297  0.00  0.00    +0.000 A 
ATOM      4  C   UNL     1       0.469  10.182  21.600  0.00  0.00    +0.000 A 
ATOM      5  C   UNL     1       0.757   9.945  20.224  0.00  0.00    +0.000 A 
ENDROOT
BRANCH   1   7
ATOM      6  O   UNL     1       2.166   8.431  17.972  0.00  0.00    +0.000 OA
ATOM      7  C   UNL     1       1.918   7.942  19.073  0.00  0.00    +0.000 C 
ATOM      8  N   UNL     1       2.116   6.602  19.327  0.00  0.00    +0.000 N 
ATOM      9  H   UNL     1       1.787   6.228  20.209  0.00  0.00    +0.000 HD
BRANCH   8  10
ATOM     10  C   UNL     1       2.647   5.729  18.309  0.00  0.00    +0.000 C 
ATOM     11  C   UNL     1       1.774   4.462  18.117  0.00  0.00    +0.000 C 
ATOM     12  C   UNL     1       2.449   3.456  17.160  0.00  0.00    +0.000 C 
ATOM     13  C   UNL     1       3.815   2.962  17.683  0.00  0.00    +0.000 C 
ATOM     14  C   UNL     1       4.538   4.093  18.307  0.00  0.00    +0.000 A 
ATOM     15  O   UNL     1       5.845   3.969  18.631  0.00  0.00    +0.000 OA
ATOM     16  C   UNL     1       6.212   5.165  19.168  0.00  0.00    +0.000 A 
ATOM     17  C   UNL     1       5.145   6.040  19.192  0.00  0.00    +0.000 A 
ATOM     18  C   UNL     1       4.049   5.339  18.635  0.00  0.00    +0.000 A 
ENDBRANCH   8  10
ENDBRANCH   1   7
BRANCH   5  19
ATOM     19  C   UNL     1       0.405  10.843  19.079  0.00  0.00    +0.000 C 
BRANCH  19  20
ATOM     20  N   UNL     1      -1.008  10.782  18.771  0.00  0.00    +0.000 N 
ATOM     21  C   UNL     1      -1.532  10.059  17.693  0.00  0.00    +0.000 C 
ATOM     22  O   UNL     1      -0.928   9.330  16.921  0.00  0.00    +0.000 OA
ATOM     23  C   UNL     1      -3.029  10.363  17.616  0.00  0.00    +0.000 C 
ATOM     24  C   UNL     1      -3.207  11.394  18.684  0.00  0.00    +0.000 A 
ATOM     25  C   UNL     1      -4.352  12.092  19.032  0.00  0.00    +0.000 A 
ATOM     26  C   UNL     1      -4.261  13.028  20.064  0.00  0.00    +0.000 A 
ATOM     27  C   UNL     1      -3.039  13.250  20.720  0.00  0.00    +0.000 A 
ATOM     28  C   UNL     1      -1.889  12.541  20.353  0.00  0.00    +0.000 A 
ATOM     29  C   UNL     1      -1.992  11.610  19.336  0.00  0.00    +0.000 A 
ENDBRANCH  19  20
ENDBRANCH   5  19
TORSDOF 4
ENDMDL
