MODEL 1
REMARK VINA RESULT:      -8.5      0.000      0.000
REMARK  Name = 
REMARK  7 active torsions:
REMARK  status: ('A' for Active; 'I' for Inactive)
REMARK    1  A    between atoms: C_2  and  C_19
REMARK    2  A    between atoms: N_3  and  C_4
REMARK    3  A    between atoms: C_7  and  O_8
REMARK    4  A    between atoms: O_8  and  C_9
REMARK    5  A    between atoms: C_9  and  C_10
REMARK    6  A    between atoms: C_19  and  C_22
REMARK    7  A    between atoms: C_22  and  O_23
REMARK                            x       y       z     vdW  Elec       q    Type
REMARK                         _______ _______ _______ _____ _____    ______ ____
ROOT
ATOM      1  O   UNL     1       4.708   3.298  17.153  0.00  0.00    +0.000 OA
ATOM      2  C   UNL     1       4.608   3.325  18.383  0.00  0.00    +0.000 C 
ATOM      3  N   UNL     1       5.316   4.175  19.226  0.00  0.00    +0.000 N 
ATOM      4  H   UNL     1       5.300   3.961  20.220  0.00  0.00    +0.000 HD
ENDROOT
BRANCH   3   5
ATOM      5  C   UNL     1       6.194   5.183  18.781  0.00  0.00    +0.000 A 
ATOM      6  C   UNL     1       7.400   5.437  19.433  0.00  0.00    +0.000 A 
ATOM      7  C   UNL     1       8.203   6.510  19.069  0.00  0.00    +0.000 A 
ATOM      8  C   UNL     1       7.846   7.320  17.996  0.00  0.00    +0.000 A 
ATOM      9  C   UNL     1       6.663   7.037  17.308  0.00  0.00    +0.000 A 
ATOM     10  F   UNL     1       6.286   7.799  16.270  0.00  0.00    +0.000 F 
ATOM     11  C   UNL     1       5.844   5.965  17.680  0.00  0.00    +0.000 A 
BRANCH   8  12
ATOM     12  O   UNL     1       8.592   8.389  17.571  0.00  0.00    +0.000 OA
BRANCH  12  13
ATOM     13  C   UNL     1       8.067   9.659  17.971  0.00  0.00    +0.000 C 
BRANCH  13  14
ATOM     14  C   UNL     1       9.149  10.495  18.603  0.00  0.00    +0.000 A 
ATOM     15  C   UNL     1       9.265  10.581  19.981  0.00  0.00    +0.000 A 
ATOM     16  C   UNL     1      10.297  11.340  20.517  0.00  0.00    +0.000 A 
ATOM     17  C   UNL     1      11.177  11.995  19.663  0.00  0.00    +0.000 A 
ATOM     18  C   UNL     1      10.993  11.856  18.301  0.00  0.00    +0.000 A 
ATOM     19  N   UNL     1      10.011  11.119  17.753  0.00  0.00    +0.000 NA
ENDBRANCH  13  14
ENDBRANCH  12  13
ENDBRANCH   8  12
ENDBRANCH   3   5
BRANCH   2  20
ATOM     20  C   UNL     1       3.707   2.322  19.110  0.00  0.00    +0.000 C 
ATOM     21  F   UNL     1       4.109   1.047  18.830  0.00  0.00    +0.000 F 
ATOM     22  F   UNL     1       3.851   2.446  20.461  0.00  0.00    +0.000 F 
BRANCH  20  23
ATOM     23  C   UNL     1       2.217   2.513  18.663  0.00  0.00    +0.000 C 
ATOM     24  C   UNL     1       1.881   3.978  18.308  0.00  0.00    +0.000 C 
ATOM     25  C   UNL     1       1.890   4.907  19.518  0.00  0.00    +0.000 C 
ATOM     26  C   UNL     1       0.995   4.390  20.643  0.00  0.00    +0.000 C 
ATOM     27  C   UNL     1       1.230   2.920  20.987  0.00  0.00    +0.000 C 
ATOM     28  C   UNL     1       1.240   2.033  19.747  0.00  0.00    +0.000 C 
BRANCH  23  29
ATOM     29  O   UNL     1       1.901   1.718  17.493  0.00  0.00    +0.000 OA
ATOM     30  H   UNL     1       2.377   0.862  17.570  0.00  0.00    +0.000 HD
ENDBRANCH  23  29
ENDBRANCH  20  23
ENDBRANCH   2  20
TORSDOF 7
ENDMDL
MODEL 2
REMARK VINA RESULT:      -8.4      1.821      2.419
REMARK  Name = 
REMARK  7 active torsions:
REMARK  status: ('A' for Active; 'I' for Inactive)
REMARK    1  A    between atoms: C_2  and  C_19
REMARK    2  A    between atoms: N_3  and  C_4
REMARK    3  A    between atoms: C_7  and  O_8
REMARK    4  A    between atoms: O_8  and  C_9
REMARK    5  A    between atoms: C_9  and  C_10
REMARK    6  A    between atoms: C_19  and  C_22
REMARK    7  A    between atoms: C_22  and  O_23
REMARK                            x       y       z     vdW  Elec       q    Type
REMARK                         _______ _______ _______ _____ _____    ______ ____
ROOT
ATOM      1  O   UNL     1       2.854   5.979  18.139  0.00  0.00    +0.000 OA
ATOM      2  C   UNL     1       3.377   4.914  17.800  0.00  0.00    +0.000 C 
ATOM      3  N   UNL     1       4.738   4.721  17.585  0.00  0.00    +0.000 N 
ATOM      4  H   UNL     1       5.016   3.864  17.113  0.00  0.00    +0.000 HD
ENDROOT
BRANCH   3   5
ATOM      5  C   UNL     1       5.722   5.705  17.803  0.00  0.00    +0.000 A 
ATOM      6  C   UNL     1       5.721   6.905  17.092  0.00  0.00    +0.000 A 
ATOM      7  C   UNL     1       6.761   7.818  17.218  0.00  0.00    +0.000 A 
ATOM      8  C   UNL     1       7.799   7.577  18.112  0.00  0.00    +0.000 A 
ATOM      9  C   UNL     1       7.776   6.399  18.863  0.00  0.00    +0.000 A 
ATOM     10  F   UNL     1       8.763   6.134  19.733  0.00  0.00    +0.000 F 
ATOM     11  C   UNL     1       6.739   5.470  18.730  0.00  0.00    +0.000 A 
BRANCH   8  12
ATOM     12  O   UNL     1       8.852   8.434  18.300  0.00  0.00    +0.000 OA
BRANCH  12  13
ATOM     13  C   UNL     1       8.505   9.817  18.168  0.00  0.00    +0.000 C 
BRANCH  13  14
ATOM     14  C   UNL     1       9.553  10.681  18.820  0.00  0.00    +0.000 A 
ATOM     15  C   UNL     1      10.590  11.220  18.077  0.00  0.00    +0.000 A 
ATOM     16  C   UNL     1      11.516  12.034  18.717  0.00  0.00    +0.000 A 
ATOM     17  C   UNL     1      11.381  12.281  20.079  0.00  0.00    +0.000 A 
ATOM     18  C   UNL     1      10.316  11.707  20.746  0.00  0.00    +0.000 A 
ATOM     19  N   UNL     1       9.399  10.924  20.152  0.00  0.00    +0.000 NA
ENDBRANCH  13  14
ENDBRANCH  12  13
ENDBRANCH   8  12
ENDBRANCH   3   5
BRANCH   2  20
ATOM     20  C   UNL     1       2.512   3.685  17.504  0.00  0.00    +0.000 C 
ATOM     21  F   UNL     1       1.189   4.015  17.591  0.00  0.00    +0.000 F 
ATOM     22  F   UNL     1       2.687   3.280  16.213  0.00  0.00    +0.000 F 
BRANCH  20  23
ATOM     23  C   UNL     1       2.836   2.539  18.523  0.00  0.00    +0.000 C 
ATOM     24  C   UNL     1       1.603   1.673  18.863  0.00  0.00    +0.000 C 
ATOM     25  C   UNL     1       0.547   2.421  19.669  0.00  0.00    +0.000 C 
ATOM     26  C   UNL     1       1.135   3.066  20.924  0.00  0.00    +0.000 C 
ATOM     27  C   UNL     1       2.403   3.875  20.661  0.00  0.00    +0.000 C 
ATOM     28  C   UNL     1       3.419   3.099  19.829  0.00  0.00    +0.000 C 
BRANCH  23  29
ATOM     29  O   UNL     1       3.851   1.638  18.014  0.00  0.00    +0.000 OA
ATOM     30  H   UNL     1       3.595   0.722  18.259  0.00  0.00    +0.000 HD
ENDBRANCH  23  29
ENDBRANCH  20  23
ENDBRANCH   2  20
TORSDOF 7
ENDMDL
MODEL 3
REMARK VINA RESULT:      -8.4      2.441      9.759
REMARK  Name = 
REMARK  7 active torsions:
REMARK  status: ('A' for Active; 'I' for Inactive)
REMARK    1  A    between atoms: C_2  and  C_19
REMARK    2  A    between atoms: N_3  and  C_4
REMARK    3  A    between atoms: C_7  and  O_8
REMARK    4  A    between atoms: O_8  and  C_9
REMARK    5  A    between atoms: C_9  and  C_10
REMARK    6  A    between atoms: C_19  and  C_22
REMARK    7  A    between atoms: C_22  and  O_23
REMARK                            x       y       z     vdW  Elec       q    Type
REMARK                         _______ _______ _______ _____ _____    ______ ____
ROOT
ATOM      1  O   UNL     1       9.302   9.610  19.707  0.00  0.00    +0.000 OA
ATOM      2  C   UNL     1       8.969  10.032  18.596  0.00  0.00    +0.000 C 
ATOM      3  N   UNL     1       8.241   9.316  17.651  0.00  0.00    +0.000 N 
ATOM      4  H   UNL     1       8.211   9.693  16.706  0.00  0.00    +0.000 HD
ENDROOT
BRANCH   3   5
ATOM      5  C   UNL     1       7.712   8.029  17.866  0.00  0.00    +0.000 A 
ATOM      6  C   UNL     1       6.536   7.612  17.244  0.00  0.00    +0.000 A 
ATOM      7  C   UNL     1       5.951   6.391  17.554  0.00  0.00    +0.000 A 
ATOM      8  C   UNL     1       6.568   5.527  18.452  0.00  0.00    +0.000 A 
ATOM      9  C   UNL     1       7.774   5.920  19.039  0.00  0.00    +0.000 A 
ATOM     10  F   UNL     1       8.395   5.112  19.912  0.00  0.00    +0.000 F 
ATOM     11  C   UNL     1       8.360   7.155  18.741  0.00  0.00    +0.000 A 
BRANCH   8  12
ATOM     12  O   UNL     1       6.058   4.303  18.799  0.00  0.00    +0.000 OA
BRANCH  12  13
ATOM     13  C   UNL     1       4.756   4.043  18.264  0.00  0.00    +0.000 C 
BRANCH  13  14
ATOM     14  C   UNL     1       3.746   3.939  19.377  0.00  0.00    +0.000 A 
ATOM     15  C   UNL     1       2.833   4.956  19.604  0.00  0.00    +0.000 A 
ATOM     16  C   UNL     1       1.903   4.802  20.624  0.00  0.00    +0.000 A 
ATOM     17  C   UNL     1       1.916   3.641  21.390  0.00  0.00    +0.000 A 
ATOM     18  C   UNL     1       2.859   2.674  21.097  0.00  0.00    +0.000 A 
ATOM     19  N   UNL     1       3.764   2.790  20.109  0.00  0.00    +0.000 NA
ENDBRANCH  13  14
ENDBRANCH  12  13
ENDBRANCH   8  12
ENDBRANCH   3   5
BRANCH   2  20
ATOM     20  C   UNL     1       9.423  11.417  18.125  0.00  0.00    +0.000 C 
ATOM     21  F   UNL     1      10.521  11.299  17.320  0.00  0.00    +0.000 F 
ATOM     22  F   UNL     1       8.469  11.987  17.334  0.00  0.00    +0.000 F 
BRANCH  20  23
ATOM     23  C   UNL     1       9.772  12.318  19.359  0.00  0.00    +0.000 C 
ATOM     24  C   UNL     1       9.742  13.826  19.028  0.00  0.00    +0.000 C 
ATOM     25  C   UNL     1      10.863  14.258  18.090  0.00  0.00    +0.000 C 
ATOM     26  C   UNL     1      12.237  13.832  18.606  0.00  0.00    +0.000 C 
ATOM     27  C   UNL     1      12.307  12.364  19.022  0.00  0.00    +0.000 C 
ATOM     28  C   UNL     1      11.152  11.969  19.936  0.00  0.00    +0.000 C 
BRANCH  23  29
ATOM     29  O   UNL     1       8.844  12.113  20.453  0.00  0.00    +0.000 OA
ATOM     30  H   UNL     1       8.121  12.773  20.366  0.00  0.00    +0.000 HD
ENDBRANCH  23  29
ENDBRANCH  20  23
ENDBRANCH   2  20
TORSDOF 7
ENDMDL
MODEL 4
REMARK VINA RESULT:      -8.2      5.635      8.465
REMARK  Name = 
REMARK  7 active torsions:
REMARK  status: ('A' for Active; 'I' for Inactive)
REMARK    1  A    between atoms: C_2  and  C_19
REMARK    2  A    between atoms: N_3  and  C_4
REMARK    3  A    between atoms: C_7  and  O_8
REMARK    4  A    between atoms: O_8  and  C_9
REMARK    5  A    between atoms: C_9  and  C_10
REMARK    6  A    between atoms: C_19  and  C_22
REMARK    7  A    between atoms: C_22  and  O_23
REMARK                            x       y       z     vdW  Elec       q    Type
REMARK                         _______ _______ _______ _____ _____    ______ ____
ROOT
ATOM      1  O   UNL     1       2.115   5.230  18.364  0.00  0.00    +0.000 OA
ATOM      2  C   UNL     1       3.118   5.710  18.900  0.00  0.00    +0.000 C 
ATOM      3  N   UNL     1       3.200   6.985  19.451  0.00  0.00    +0.000 N 
ATOM      4  H   UNL     1       4.129   7.335  19.673  0.00  0.00    +0.000 HD
ENDROOT
BRANCH   3   5
ATOM      5  C   UNL     1       2.117   7.880  19.543  0.00  0.00    +0.000 A 
ATOM      6  C   UNL     1       1.774   8.718  18.482  0.00  0.00    +0.000 A 
ATOM      7  C   UNL     1       0.786   9.686  18.619  0.00  0.00    +0.000 A 
ATOM      8  C   UNL     1       0.073   9.794  19.808  0.00  0.00    +0.000 A 
ATOM      9  C   UNL     1       0.380   8.922  20.856  0.00  0.00    +0.000 A 
ATOM     10  F   UNL     1      -0.287   9.001  22.018  0.00  0.00    +0.000 F 
ATOM     11  C   UNL     1       1.383   7.955  20.727  0.00  0.00    +0.000 A 
BRANCH   8  12
ATOM     12  O   UNL     1      -0.921  10.715  20.014  0.00  0.00    +0.000 OA
BRANCH  12  13
ATOM     13  C   UNL     1      -1.019  11.705  18.984  0.00  0.00    +0.000 C 
BRANCH  13  14
ATOM     14  C   UNL     1      -2.326  11.564  18.249  0.00  0.00    +0.000 A 
ATOM     15  C   UNL     1      -3.526  11.877  18.867  0.00  0.00    +0.000 A 
ATOM     16  C   UNL     1      -4.702  11.759  18.140  0.00  0.00    +0.000 A 
ATOM     17  C   UNL     1      -4.647  11.326  16.819  0.00  0.00    +0.000 A 
ATOM     18  C   UNL     1      -3.410  11.036  16.276  0.00  0.00    +0.000 A 
ATOM     19  N   UNL     1      -2.254  11.151  16.952  0.00  0.00    +0.000 NA
ENDBRANCH  13  14
ENDBRANCH  12  13
ENDBRANCH   8  12
ENDBRANCH   3   5
BRANCH   2  20
ATOM     20  C   UNL     1       4.432   4.924  18.930  0.00  0.00    +0.000 C 
ATOM     21  F   UNL     1       5.349   5.579  19.704  0.00  0.00    +0.000 F 
ATOM     22  F   UNL     1       4.253   3.719  19.544  0.00  0.00    +0.000 F 
BRANCH  20  23
ATOM     23  C   UNL     1       4.995   4.759  17.476  0.00  0.00    +0.000 C 
ATOM     24  C   UNL     1       6.441   4.218  17.451  0.00  0.00    +0.000 C 
ATOM     25  C   UNL     1       7.464   5.209  17.994  0.00  0.00    +0.000 C 
ATOM     26  C   UNL     1       7.369   6.567  17.300  0.00  0.00    +0.000 C 
ATOM     27  C   UNL     1       5.947   7.120  17.227  0.00  0.00    +0.000 C 
ATOM     28  C   UNL     1       4.954   6.088  16.705  0.00  0.00    +0.000 C 
BRANCH  23  29
ATOM     29  O   UNL     1       4.192   3.843  16.690  0.00  0.00    +0.000 OA
ATOM     30  H   UNL     1       4.723   3.031  16.536  0.00  0.00    +0.000 HD
ENDBRANCH  23  29
ENDBRANCH  20  23
ENDBRANCH   2  20
TORSDOF 7
ENDMDL
MODEL 5
REMARK VINA RESULT:      -8.2      6.551      8.993
REMARK  Name = 
REMARK  7 active torsions:
REMARK  status: ('A' for Active; 'I' for Inactive)
REMARK    1  A    between atoms: C_2  and  C_19
REMARK    2  A    between atoms: N_3  and  C_4
REMARK    3  A    between atoms: C_7  and  O_8
REMARK    4  A    between atoms: O_8  and  C_9
REMARK    5  A    between atoms: C_9  and  C_10
REMARK    6  A    between atoms: C_19  and  C_22
REMARK    7  A    between atoms: C_22  and  O_23
REMARK                            x       y       z     vdW  Elec       q    Type
REMARK                         _______ _______ _______ _____ _____    ______ ____
ROOT
ATOM      1  O   UNL     1       1.109   5.575  20.855  0.00  0.00    +0.000 OA
ATOM      2  C   UNL     1       2.093   6.082  20.308  0.00  0.00    +0.000 C 
ATOM      3  N   UNL     1       2.301   7.447  20.137  0.00  0.00    +0.000 N 
ATOM      4  H   UNL     1       3.040   7.727  19.496  0.00  0.00    +0.000 HD
ENDROOT
BRANCH   3   5
ATOM      5  C   UNL     1       1.447   8.448  20.638  0.00  0.00    +0.000 A 
ATOM      6  C   UNL     1       0.911   9.430  19.806  0.00  0.00    +0.000 A 
ATOM      7  C   UNL     1       0.171  10.486  20.322  0.00  0.00    +0.000 A 
ATOM      8  C   UNL     1      -0.104  10.549  21.685  0.00  0.00    +0.000 A 
ATOM      9  C   UNL     1       0.390   9.539  22.514  0.00  0.00    +0.000 A 
ATOM     10  F   UNL     1       0.147   9.570  23.834  0.00  0.00    +0.000 F 
ATOM     11  C   UNL     1       1.147   8.481  22.001  0.00  0.00    +0.000 A 
BRANCH   8  12
ATOM     12  O   UNL     1      -0.835  11.552  22.265  0.00  0.00    +0.000 OA
BRANCH  12  13
ATOM     13  C   UNL     1      -1.866  12.082  21.424  0.00  0.00    +0.000 C 
BRANCH  13  14
ATOM     14  C   UNL     1      -3.095  12.389  22.238  0.00  0.00    +0.000 A 
ATOM     15  C   UNL     1      -3.081  12.270  23.618  0.00  0.00    +0.000 A 
ATOM     16  C   UNL     1      -4.230  12.592  24.328  0.00  0.00    +0.000 A 
ATOM     17  C   UNL     1      -5.360  13.019  23.639  0.00  0.00    +0.000 A 
ATOM     18  C   UNL     1      -5.291  13.113  22.262  0.00  0.00    +0.000 A 
ATOM     19  N   UNL     1      -4.190  12.818  21.550  0.00  0.00    +0.000 NA
ENDBRANCH  13  14
ENDBRANCH  12  13
ENDBRANCH   8  12
ENDBRANCH   3   5
BRANCH   2  20
ATOM     20  C   UNL     1       3.174   5.196  19.681  0.00  0.00    +0.000 C 
ATOM     21  F   UNL     1       4.408   5.741  19.899  0.00  0.00    +0.000 F 
ATOM     22  F   UNL     1       3.213   3.982  20.300  0.00  0.00    +0.000 F 
BRANCH  20  23
ATOM     23  C   UNL     1       2.928   5.056  18.139  0.00  0.00    +0.000 C 
ATOM     24  C   UNL     1       1.531   4.490  17.804  0.00  0.00    +0.000 C 
ATOM     25  C   UNL     1       1.361   3.030  18.209  0.00  0.00    +0.000 C 
ATOM     26  C   UNL     1       2.469   2.146  17.638  0.00  0.00    +0.000 C 
ATOM     27  C   UNL     1       3.874   2.696  17.872  0.00  0.00    +0.000 C 
ATOM     28  C   UNL     1       3.991   4.164  17.480  0.00  0.00    +0.000 C 
BRANCH  23  29
ATOM     29  O   UNL     1       3.034   6.333  17.460  0.00  0.00    +0.000 OA
ATOM     30  H   UNL     1       3.520   6.950  18.050  0.00  0.00    +0.000 HD
ENDBRANCH  23  29
ENDBRANCH  20  23
ENDBRANCH   2  20
TORSDOF 7
ENDMDL
MODEL 6
REMARK VINA RESULT:      -8.1      5.983      8.694
REMARK  Name = 
REMARK  7 active torsions:
REMARK  status: ('A' for Active; 'I' for Inactive)
REMARK    1  A    between atoms: C_2  and  C_19
REMARK    2  A    between atoms: N_3  and  C_4
REMARK    3  A    between atoms: C_7  and  O_8
REMARK    4  A    between atoms: O_8  and  C_9
REMARK    5  A    between atoms: C_9  and  C_10
REMARK    6  A    between atoms: C_19  and  C_22
REMARK    7  A    between atoms: C_22  and  O_23
REMARK                            x       y       z     vdW  Elec       q    Type
REMARK                         _______ _______ _______ _____ _____    ______ ____
ROOT
ATOM      1  O   UNL     1      -0.305  10.024  18.093  0.00  0.00    +0.000 OA
ATOM      2  C   UNL     1       0.143  10.456  19.159  0.00  0.00    +0.000 C 
ATOM      3  N   UNL     1       1.024   9.774  19.993  0.00  0.00    +0.000 N 
ATOM      4  H   UNL     1       1.155  10.144  20.931  0.00  0.00    +0.000 HD
ENDROOT
BRANCH   3   5
ATOM      5  C   UNL     1       1.589   8.519  19.693  0.00  0.00    +0.000 A 
ATOM      6  C   UNL     1       2.204   8.273  18.465  0.00  0.00    +0.000 A 
ATOM      7  C   UNL     1       2.649   7.001  18.125  0.00  0.00    +0.000 A 
ATOM      8  C   UNL     1       2.544   5.956  19.037  0.00  0.00    +0.000 A 
ATOM      9  C   UNL     1       1.973   6.211  20.286  0.00  0.00    +0.000 A 
ATOM     10  F   UNL     1       1.854   5.225  21.188  0.00  0.00    +0.000 F 
ATOM     11  C   UNL     1       1.512   7.486  20.629  0.00  0.00    +0.000 A 
BRANCH   8  12
ATOM     12  O   UNL     1       2.969   4.679  18.777  0.00  0.00    +0.000 OA
BRANCH  12  13
ATOM     13  C   UNL     1       4.290   4.399  19.253  0.00  0.00    +0.000 C 
BRANCH  13  14
ATOM     14  C   UNL     1       5.269   4.404  18.108  0.00  0.00    +0.000 A 
ATOM     15  C   UNL     1       4.830   4.276  16.800  0.00  0.00    +0.000 A 
ATOM     16  C   UNL     1       5.767   4.315  15.776  0.00  0.00    +0.000 A 
ATOM     17  C   UNL     1       7.113   4.476  16.087  0.00  0.00    +0.000 A 
ATOM     18  C   UNL     1       7.466   4.599  17.418  0.00  0.00    +0.000 A 
ATOM     19  N   UNL     1       6.581   4.576  18.429  0.00  0.00    +0.000 NA
ENDBRANCH  13  14
ENDBRANCH  12  13
ENDBRANCH   8  12
ENDBRANCH   3   5
BRANCH   2  20
ATOM     20  C   UNL     1      -0.320  11.810  19.704  0.00  0.00    +0.000 C 
ATOM     21  F   UNL     1      -1.661  11.774  19.962  0.00  0.00    +0.000 F 
ATOM     22  F   UNL     1       0.262  12.062  20.911  0.00  0.00    +0.000 F 
BRANCH  20  23
ATOM     23  C   UNL     1      -0.017  12.942  18.663  0.00  0.00    +0.000 C 
ATOM     24  C   UNL     1       1.479  13.028  18.290  0.00  0.00    +0.000 C 
ATOM     25  C   UNL     1       2.357  13.515  19.438  0.00  0.00    +0.000 C 
ATOM     26  C   UNL     1       1.855  14.834  20.023  0.00  0.00    +0.000 C 
ATOM     27  C   UNL     1       0.361  14.834  20.342  0.00  0.00    +0.000 C 
ATOM     28  C   UNL     1      -0.476  14.315  19.178  0.00  0.00    +0.000 C 
BRANCH  23  29
ATOM     29  O   UNL     1      -0.744  12.742  17.425  0.00  0.00    +0.000 OA
ATOM     30  H   UNL     1      -0.538  13.494  16.827  0.00  0.00    +0.000 HD
ENDBRANCH  23  29
ENDBRANCH  20  23
ENDBRANCH   2  20
TORSDOF 7
ENDMDL
MODEL 7
REMARK VINA RESULT:      -8.1      5.982      8.835
REMARK  Name = 
REMARK  7 active torsions:
REMARK  status: ('A' for Active; 'I' for Inactive)
REMARK    1  A    between atoms: C_2  and  C_19
REMARK    2  A    between atoms: N_3  and  C_4
REMARK    3  A    between atoms: C_7  and  O_8
REMARK    4  A    between atoms: O_8  and  C_9
REMARK    5  A    between atoms: C_9  and  C_10
REMARK    6  A    between atoms: C_19  and  C_22
REMARK    7  A    between atoms: C_22  and  O_23
REMARK                            x       y       z     vdW  Elec       q    Type
REMARK                         _______ _______ _______ _____ _____    ______ ____
ROOT
ATOM      1  O   UNL     1       1.832   5.569  17.962  0.00  0.00    +0.000 OA
ATOM      2  C   UNL     1       2.894   6.094  18.308  0.00  0.00    +0.000 C 
ATOM      3  N   UNL     1       3.023   7.380  18.822  0.00  0.00    +0.000 N 
ATOM      4  H   UNL     1       3.962   7.768  18.873  0.00  0.00    +0.000 HD
ENDROOT
BRANCH   3   5
ATOM      5  C   UNL     1       1.938   8.238  19.092  0.00  0.00    +0.000 A 
ATOM      6  C   UNL     1       1.434   9.101  18.119  0.00  0.00    +0.000 A 
ATOM      7  C   UNL     1       0.448  10.032  18.424  0.00  0.00    +0.000 A 
ATOM      8  C   UNL     1      -0.101  10.077  19.701  0.00  0.00    +0.000 A 
ATOM      9  C   UNL     1       0.368   9.180  20.664  0.00  0.00    +0.000 A 
ATOM     10  F   UNL     1      -0.138   9.199  21.907  0.00  0.00    +0.000 F 
ATOM     11  C   UNL     1       1.369   8.250  20.366  0.00  0.00    +0.000 A 
BRANCH   8  12
ATOM     12  O   UNL     1      -1.082  10.959  20.073  0.00  0.00    +0.000 OA
BRANCH  12  13
ATOM     13  C   UNL     1      -1.338  11.985  19.108  0.00  0.00    +0.000 C 
BRANCH  13  14
ATOM     14  C   UNL     1      -2.695  11.787  18.484  0.00  0.00    +0.000 A 
ATOM     15  C   UNL     1      -2.818  11.288  17.198  0.00  0.00    +0.000 A 
ATOM     16  C   UNL     1      -4.091  11.096  16.677  0.00  0.00    +0.000 A 
ATOM     17  C   UNL     1      -5.201  11.413  17.451  0.00  0.00    +0.000 A 
ATOM     18  C   UNL     1      -4.991  11.905  18.726  0.00  0.00    +0.000 A 
ATOM     19  N   UNL     1      -3.772  12.091  19.261  0.00  0.00    +0.000 NA
ENDBRANCH  13  14
ENDBRANCH  12  13
ENDBRANCH   8  12
ENDBRANCH   3   5
BRANCH   2  20
ATOM     20  C   UNL     1       4.223   5.357  18.116  0.00  0.00    +0.000 C 
ATOM     21  F   UNL     1       4.950   5.398  19.273  0.00  0.00    +0.000 F 
ATOM     22  F   UNL     1       4.003   4.030  17.888  0.00  0.00    +0.000 F 
BRANCH  20  23
ATOM     23  C   UNL     1       5.045   6.019  16.957  0.00  0.00    +0.000 C 
ATOM     24  C   UNL     1       5.366   5.034  15.812  0.00  0.00    +0.000 C 
ATOM     25  C   UNL     1       6.355   3.945  16.216  0.00  0.00    +0.000 C 
ATOM     26  C   UNL     1       7.631   4.527  16.821  0.00  0.00    +0.000 C 
ATOM     27  C   UNL     1       7.374   5.567  17.910  0.00  0.00    +0.000 C 
ATOM     28  C   UNL     1       6.361   6.619  17.474  0.00  0.00    +0.000 C 
BRANCH  23  29
ATOM     29  O   UNL     1       4.332   7.131  16.361  0.00  0.00    +0.000 OA
ATOM     30  H   UNL     1       4.071   6.873  15.450  0.00  0.00    +0.000 HD
ENDBRANCH  23  29
ENDBRANCH  20  23
ENDBRANCH   2  20
TORSDOF 7
ENDMDL
MODEL 8
REMARK VINA RESULT:      -8.1      5.504      7.749
REMARK  Name = 
REMARK  7 active torsions:
REMARK  status: ('A' for Active; 'I' for Inactive)
REMARK    1  A    between atoms: C_2  and  C_19
REMARK    2  A    between atoms: N_3  and  C_4
REMARK    3  A    between atoms: C_7  and  O_8
REMARK    4  A    between atoms: O_8  and  C_9
REMARK    5  A    between atoms: C_9  and  C_10
REMARK    6  A    between atoms: C_19  and  C_22
REMARK    7  A    between atoms: C_22  and  O_23
REMARK                            x       y       z     vdW  Elec       q    Type
REMARK                         _______ _______ _______ _____ _____    ______ ____
ROOT
ATOM      1  O   UNL     1       1.835   8.630  20.296  0.00  0.00    +0.000 OA
ATOM      2  C   UNL     1       1.294   8.908  19.222  0.00  0.00    +0.000 C 
ATOM      3  N   UNL     1       1.663   8.395  17.982  0.00  0.00    +0.000 N 
ATOM      4  H   UNL     1       1.282   8.855  17.158  0.00  0.00    +0.000 HD
ENDROOT
BRANCH   3   5
ATOM      5  C   UNL     1       2.661   7.420  17.793  0.00  0.00    +0.000 A 
ATOM      6  C   UNL     1       3.954   7.769  17.403  0.00  0.00    +0.000 A 
ATOM      7  C   UNL     1       4.900   6.799  17.097  0.00  0.00    +0.000 A 
ATOM      8  C   UNL     1       4.590   5.450  17.235  0.00  0.00    +0.000 A 
ATOM      9  C   UNL     1       3.310   5.099  17.673  0.00  0.00    +0.000 A 
ATOM     10  F   UNL     1       2.977   3.806  17.815  0.00  0.00    +0.000 F 
ATOM     11  C   UNL     1       2.350   6.071  17.970  0.00  0.00    +0.000 A 
BRANCH   8  12
ATOM     12  O   UNL     1       5.473   4.437  16.963  0.00  0.00    +0.000 OA
BRANCH  12  13
ATOM     13  C   UNL     1       6.738   4.887  16.466  0.00  0.00    +0.000 C 
BRANCH  13  14
ATOM     14  C   UNL     1       6.824   4.662  14.979  0.00  0.00    +0.000 A 
ATOM     15  C   UNL     1       5.995   3.747  14.352  0.00  0.00    +0.000 A 
ATOM     16  C   UNL     1       6.091   3.595  12.975  0.00  0.00    +0.000 A 
ATOM     17  C   UNL     1       7.014   4.357  12.267  0.00  0.00    +0.000 A 
ATOM     18  C   UNL     1       7.802   5.249  12.968  0.00  0.00    +0.000 A 
ATOM     19  N   UNL     1       7.724   5.426  14.299  0.00  0.00    +0.000 NA
ENDBRANCH  13  14
ENDBRANCH  12  13
ENDBRANCH   8  12
ENDBRANCH   3   5
BRANCH   2  20
ATOM     20  C   UNL     1       0.172   9.949  19.165  0.00  0.00    +0.000 C 
ATOM     21  F   UNL     1      -0.599   9.742  18.056  0.00  0.00    +0.000 F 
ATOM     22  F   UNL     1      -0.680   9.789  20.218  0.00  0.00    +0.000 F 
BRANCH  20  23
ATOM     23  C   UNL     1       0.778  11.394  19.120  0.00  0.00    +0.000 C 
ATOM     24  C   UNL     1       1.256  11.886  20.503  0.00  0.00    +0.000 C 
ATOM     25  C   UNL     1       0.113  12.135  21.480  0.00  0.00    +0.000 C 
ATOM     26  C   UNL     1      -0.946  13.068  20.896  0.00  0.00    +0.000 C 
ATOM     27  C   UNL     1      -1.404  12.674  19.493  0.00  0.00    +0.000 C 
ATOM     28  C   UNL     1      -0.230  12.408  18.558  0.00  0.00    +0.000 C 
BRANCH  23  29
ATOM     29  O   UNL     1       1.922  11.469  18.232  0.00  0.00    +0.000 OA
ATOM     30  H   UNL     1       2.727  11.577  18.783  0.00  0.00    +0.000 HD
ENDBRANCH  23  29
ENDBRANCH  20  23
ENDBRANCH   2  20
TORSDOF 7
ENDMDL
MODEL 9
REMARK VINA RESULT:      -8.0      5.424      7.587
REMARK  Name = 
REMARK  7 active torsions:
REMARK  status: ('A' for Active; 'I' for Inactive)
REMARK    1  A    between atoms: C_2  and  C_19
REMARK    2  A    between atoms: N_3  and  C_4
REMARK    3  A    between atoms: C_7  and  O_8
REMARK    4  A    between atoms: O_8  and  C_9
REMARK    5  A    between atoms: C_9  and  C_10
REMARK    6  A    between atoms: C_19  and  C_22
REMARK    7  A    between atoms: C_22  and  O_23
REMARK                            x       y       z     vdW  Elec       q    Type
REMARK                         _______ _______ _______ _____ _____    ______ ____
ROOT
ATOM      1  O   UNL     1       1.311   5.075  17.564  0.00  0.00    +0.000 OA
ATOM      2  C   UNL     1       2.440   5.145  18.059  0.00  0.00    +0.000 C 
ATOM      3  N   UNL     1       2.967   6.263  18.696  0.00  0.00    +0.000 N 
ATOM      4  H   UNL     1       3.969   6.266  18.875  0.00  0.00    +0.000 HD
ENDROOT
BRANCH   3   5
ATOM      5  C   UNL     1       2.250   7.452  18.935  0.00  0.00    +0.000 A 
ATOM      6  C   UNL     1       2.079   8.410  17.936  0.00  0.00    +0.000 A 
ATOM      7  C   UNL     1       1.480   9.634  18.208  0.00  0.00    +0.000 A 
ATOM      8  C   UNL     1       0.981   9.903  19.478  0.00  0.00    +0.000 A 
ATOM      9  C   UNL     1       1.107   8.924  20.468  0.00  0.00    +0.000 A 
ATOM     10  F   UNL     1       0.640   9.152  21.705  0.00  0.00    +0.000 F 
ATOM     11  C   UNL     1       1.721   7.696  20.203  0.00  0.00    +0.000 A 
BRANCH   8  12
ATOM     12  O   UNL     1       0.369  11.081  19.819  0.00  0.00    +0.000 OA
BRANCH  12  13
ATOM     13  C   UNL     1      -0.053  11.862  18.696  0.00  0.00    +0.000 C 
BRANCH  13  14
ATOM     14  C   UNL     1      -1.546  11.764  18.524  0.00  0.00    +0.000 A 
ATOM     15  C   UNL     1      -2.093  11.122  17.425  0.00  0.00    +0.000 A 
ATOM     16  C   UNL     1      -3.475  11.031  17.326  0.00  0.00    +0.000 A 
ATOM     17  C   UNL     1      -4.270  11.589  18.322  0.00  0.00    +0.000 A 
ATOM     18  C   UNL     1      -3.645  12.210  19.386  0.00  0.00    +0.000 A 
ATOM     19  N   UNL     1      -2.310  12.303  19.516  0.00  0.00    +0.000 NA
ENDBRANCH  13  14
ENDBRANCH  12  13
ENDBRANCH   8  12
ENDBRANCH   3   5
BRANCH   2  20
ATOM     20  C   UNL     1       3.416   3.972  17.933  0.00  0.00    +0.000 C 
ATOM     21  F   UNL     1       3.829   3.846  16.637  0.00  0.00    +0.000 F 
ATOM     22  F   UNL     1       4.555   4.222  18.641  0.00  0.00    +0.000 F 
BRANCH  20  23
ATOM     23  C   UNL     1       2.724   2.643  18.395  0.00  0.00    +0.000 C 
ATOM     24  C   UNL     1       1.594   2.880  19.420  0.00  0.00    +0.000 C 
ATOM     25  C   UNL     1       2.102   3.369  20.771  0.00  0.00    +0.000 C 
ATOM     26  C   UNL     1       3.183   2.453  21.342  0.00  0.00    +0.000 C 
ATOM     27  C   UNL     1       4.293   2.121  20.346  0.00  0.00    +0.000 C 
ATOM     28  C   UNL     1       3.740   1.663  19.001  0.00  0.00    +0.000 C 
BRANCH  23  29
ATOM     29  O   UNL     1       2.133   1.930  17.279  0.00  0.00    +0.000 OA
ATOM     30  H   UNL     1       2.731   1.187  17.043  0.00  0.00    +0.000 HD
ENDBRANCH  23  29
ENDBRANCH  20  23
ENDBRANCH   2  20
TORSDOF 7
ENDMDL
