MODEL 1
REMARK VINA RESULT:      -8.7      0.000      0.000
REMARK  Name = 
REMARK  3 active torsions:
REMARK  status: ('A' for Active; 'I' for Inactive)
REMARK    1  A    between atoms: C_2  and  C_3
REMARK    2  A    between atoms: C_3  and  N_4
REMARK    3  A    between atoms: N_16  and  C_17
REMARK                            x       y       z     vdW  Elec       q    Type
REMARK                         _______ _______ _______ _____ _____    ______ ____
ROOT
ATOM      1  O   UNL     1       1.731   7.448  20.268  0.00  0.00    +0.000 OA
ATOM      2  C   UNL     1       2.034   7.961  19.190  0.00  0.00    +0.000 C 
ATOM      3  N   UNL     1       2.643   7.344  18.118  0.00  0.00    +0.000 N 
ATOM      4  H   UNL     1       2.673   7.911  17.281  0.00  0.00    +0.000 HD
ENDROOT
BRANCH   3   5
ATOM      5  C   UNL     1       2.883   5.965  17.904  0.00  0.00    +0.000 A 
ATOM      6  C   UNL     1       1.904   4.995  18.121  0.00  0.00    +0.000 A 
ATOM      7  C   UNL     1       2.122   3.680  17.713  0.00  0.00    +0.000 A 
ATOM      8  C   UNL     1       3.301   3.339  17.053  0.00  0.00    +0.000 A 
ATOM      9  C   UNL     1       4.327   4.284  16.885  0.00  0.00    +0.000 A 
ATOM     10  C   UNL     1       4.151   5.582  17.386  0.00  0.00    +0.000 A 
ATOM     11  C   UNL     1       5.335   6.505  17.512  0.00  0.00    +0.000 C 
ATOM     12  C   UNL     1       6.600   6.197  16.731  0.00  0.00    +0.000 C 
ATOM     13  C   UNL     1       6.614   4.949  15.873  0.00  0.00    +0.000 C 
ATOM     14  C   UNL     1       5.586   3.863  16.178  0.00  0.00    +0.000 C 
ENDBRANCH   3   5
BRANCH   2  15
ATOM     15  C   UNL     1       1.689   9.430  18.884  0.00  0.00    +0.000 C 
BRANCH  15  16
ATOM     16  N   UNL     1       0.762   9.970  19.869  0.00  0.00    +0.000 N 
ATOM     17  N   UNL     1       1.092   9.700  21.195  0.00  0.00    +0.000 N 
ATOM     18  C   UNL     1       0.325  10.117  22.250  0.00  0.00    +0.000 A 
ATOM     19  O   UNL     1       0.576   9.764  23.397  0.00  0.00    +0.000 OA
ATOM     20  C   UNL     1      -0.805  11.011  21.950  0.00  0.00    +0.000 A 
ATOM     21  C   UNL     1      -1.551  11.557  23.005  0.00  0.00    +0.000 A 
ATOM     22  C   UNL     1      -2.605  12.431  22.737  0.00  0.00    +0.000 A 
ATOM     23  C   UNL     1      -2.919  12.752  21.415  0.00  0.00    +0.000 A 
ATOM     24  C   UNL     1      -2.190  12.192  20.363  0.00  0.00    +0.000 A 
ATOM     25  C   UNL     1      -1.125  11.317  20.629  0.00  0.00    +0.000 A 
ATOM     26  C   UNL     1      -0.336  10.736  19.515  0.00  0.00    +0.000 A 
ATOM     27  O   UNL     1      -0.643  10.960  18.347  0.00  0.00    +0.000 OA
ATOM     28  H   UNL     1       1.765   8.964  21.391  0.00  0.00    +0.000 HD
ENDBRANCH  15  16
ENDBRANCH   2  15
TORSDOF 3
ENDMDL
MODEL 2
REMARK VINA RESULT:      -8.6      6.572      9.489
REMARK  Name = 
REMARK  3 active torsions:
REMARK  status: ('A' for Active; 'I' for Inactive)
REMARK    1  A    between atoms: C_2  and  C_3
REMARK    2  A    between atoms: C_3  and  N_4
REMARK    3  A    between atoms: N_16  and  C_17
REMARK                            x       y       z     vdW  Elec       q    Type
REMARK                         _______ _______ _______ _____ _____    ______ ____
ROOT
ATOM      1  O   UNL     1       7.486   9.495  17.964  0.00  0.00    +0.000 OA
ATOM      2  C   UNL     1       8.421   8.912  18.516  0.00  0.00    +0.000 C 
ATOM      3  N   UNL     1       9.369   9.466  19.348  0.00  0.00    +0.000 N 
ATOM      4  H   UNL     1       9.961   8.785  19.805  0.00  0.00    +0.000 HD
ENDROOT
BRANCH   3   5
ATOM      5  C   UNL     1       9.398  10.757  19.930  0.00  0.00    +0.000 A 
ATOM      6  C   UNL     1       8.799  11.035  21.158  0.00  0.00    +0.000 A 
ATOM      7  C   UNL     1       9.019  12.263  21.781  0.00  0.00    +0.000 A 
ATOM      8  C   UNL     1       9.870  13.199  21.196  0.00  0.00    +0.000 A 
ATOM      9  C   UNL     1      10.430  12.967  19.929  0.00  0.00    +0.000 A 
ATOM     10  C   UNL     1      10.127  11.775  19.256  0.00  0.00    +0.000 A 
ATOM     11  C   UNL     1      10.439  11.643  17.787  0.00  0.00    +0.000 C 
ATOM     12  C   UNL     1      11.431  12.600  17.152  0.00  0.00    +0.000 C 
ATOM     13  C   UNL     1      12.047  13.668  18.033  0.00  0.00    +0.000 C 
ATOM     14  C   UNL     1      11.331  14.015  19.335  0.00  0.00    +0.000 C 
ENDBRANCH   3   5
BRANCH   2  15
ATOM     15  C   UNL     1       8.604   7.390  18.371  0.00  0.00    +0.000 C 
BRANCH  15  16
ATOM     16  N   UNL     1       7.334   6.729  18.103  0.00  0.00    +0.000 N 
ATOM     17  N   UNL     1       6.750   7.054  16.880  0.00  0.00    +0.000 N 
ATOM     18  C   UNL     1       5.549   6.539  16.472  0.00  0.00    +0.000 A 
ATOM     19  O   UNL     1       5.004   6.932  15.447  0.00  0.00    +0.000 OA
ATOM     20  C   UNL     1       4.947   5.488  17.309  0.00  0.00    +0.000 A 
ATOM     21  C   UNL     1       3.777   4.848  16.875  0.00  0.00    +0.000 A 
ATOM     22  C   UNL     1       3.212   3.828  17.643  0.00  0.00    +0.000 A 
ATOM     23  C   UNL     1       3.812   3.455  18.847  0.00  0.00    +0.000 A 
ATOM     24  C   UNL     1       4.966   4.107  19.289  0.00  0.00    +0.000 A 
ATOM     25  C   UNL     1       5.539   5.129  18.517  0.00  0.00    +0.000 A 
ATOM     26  C   UNL     1       6.776   5.809  18.974  0.00  0.00    +0.000 A 
ATOM     27  O   UNL     1       7.276   5.535  20.062  0.00  0.00    +0.000 OA
ATOM     28  H   UNL     1       7.076   7.881  16.388  0.00  0.00    +0.000 HD
ENDBRANCH  15  16
ENDBRANCH   2  15
TORSDOF 3
ENDMDL
MODEL 3
REMARK VINA RESULT:      -8.6      1.682      2.446
REMARK  Name = 
REMARK  3 active torsions:
REMARK  status: ('A' for Active; 'I' for Inactive)
REMARK    1  A    between atoms: C_2  and  C_3
REMARK    2  A    between atoms: C_3  and  N_4
REMARK    3  A    between atoms: N_16  and  C_17
REMARK                            x       y       z     vdW  Elec       q    Type
REMARK                         _______ _______ _______ _____ _____    ______ ____
ROOT
ATOM      1  O   UNL     1       1.585   8.130  19.707  0.00  0.00    +0.000 OA
ATOM      2  C   UNL     1       2.163   8.508  18.687  0.00  0.00    +0.000 C 
ATOM      3  N   UNL     1       2.910   7.737  17.822  0.00  0.00    +0.000 N 
ATOM      4  H   UNL     1       3.177   8.217  16.973  0.00  0.00    +0.000 HD
ENDROOT
BRANCH   3   5
ATOM      5  C   UNL     1       3.034   6.328  17.767  0.00  0.00    +0.000 A 
ATOM      6  C   UNL     1       1.980   5.473  18.088  0.00  0.00    +0.000 A 
ATOM      7  C   UNL     1       2.086   4.107  17.834  0.00  0.00    +0.000 A 
ATOM      8  C   UNL     1       3.231   3.597  17.222  0.00  0.00    +0.000 A 
ATOM      9  C   UNL     1       4.330   4.429  16.952  0.00  0.00    +0.000 A 
ATOM     10  C   UNL     1       4.264   5.785  17.302  0.00  0.00    +0.000 A 
ATOM     11  C   UNL     1       5.521   6.616  17.327  0.00  0.00    +0.000 C 
ATOM     12  C   UNL     1       6.752   6.118  16.592  0.00  0.00    +0.000 C 
ATOM     13  C   UNL     1       6.660   4.783  15.882  0.00  0.00    +0.000 C 
ATOM     14  C   UNL     1       5.547   3.828  16.304  0.00  0.00    +0.000 C 
ENDBRANCH   3   5
BRANCH   2  15
ATOM     15  C   UNL     1       2.055   9.967  18.206  0.00  0.00    +0.000 C 
BRANCH  15  16
ATOM     16  N   UNL     1       0.699  10.476  18.367  0.00  0.00    +0.000 N 
ATOM     17  N   UNL     1      -0.260   9.852  17.573  0.00  0.00    +0.000 N 
ATOM     18  C   UNL     1      -1.581  10.213  17.584  0.00  0.00    +0.000 A 
ATOM     19  O   UNL     1      -2.379   9.728  16.790  0.00  0.00    +0.000 OA
ATOM     20  C   UNL     1      -2.001  11.200  18.592  0.00  0.00    +0.000 A 
ATOM     21  C   UNL     1      -3.361  11.518  18.720  0.00  0.00    +0.000 A 
ATOM     22  C   UNL     1      -3.778  12.427  19.692  0.00  0.00    +0.000 A 
ATOM     23  C   UNL     1      -2.835  13.025  20.531  0.00  0.00    +0.000 A 
ATOM     24  C   UNL     1      -1.478  12.725  20.390  0.00  0.00    +0.000 A 
ATOM     25  C   UNL     1      -1.056  11.806  19.417  0.00  0.00    +0.000 A 
ATOM     26  C   UNL     1       0.382  11.469  19.278  0.00  0.00    +0.000 A 
ATOM     27  O   UNL     1       1.227  12.037  19.965  0.00  0.00    +0.000 OA
ATOM     28  H   UNL     1       0.048   9.297  16.780  0.00  0.00    +0.000 HD
ENDBRANCH  15  16
ENDBRANCH   2  15
TORSDOF 3
ENDMDL
MODEL 4
REMARK VINA RESULT:      -8.6      1.218      1.432
REMARK  Name = 
REMARK  3 active torsions:
REMARK  status: ('A' for Active; 'I' for Inactive)
REMARK    1  A    between atoms: C_2  and  C_3
REMARK    2  A    between atoms: C_3  and  N_4
REMARK    3  A    between atoms: N_16  and  C_17
REMARK                            x       y       z     vdW  Elec       q    Type
REMARK                         _______ _______ _______ _____ _____    ______ ____
ROOT
ATOM      1  O   UNL     1       1.671   8.116  19.791  0.00  0.00    +0.000 OA
ATOM      2  C   UNL     1       2.065   8.455  18.674  0.00  0.00    +0.000 C 
ATOM      3  N   UNL     1       2.722   7.670  17.752  0.00  0.00    +0.000 N 
ATOM      4  H   UNL     1       2.829   8.105  16.845  0.00  0.00    +0.000 HD
ENDROOT
BRANCH   3   5
ATOM      5  C   UNL     1       2.925   6.268  17.760  0.00  0.00    +0.000 A 
ATOM      6  C   UNL     1       1.916   5.370  18.109  0.00  0.00    +0.000 A 
ATOM      7  C   UNL     1       2.102   4.002  17.916  0.00  0.00    +0.000 A 
ATOM      8  C   UNL     1       3.279   3.532  17.337  0.00  0.00    +0.000 A 
ATOM      9  C   UNL     1       4.334   4.412  17.041  0.00  0.00    +0.000 A 
ATOM     10  C   UNL     1       4.188   5.776  17.330  0.00  0.00    +0.000 A 
ATOM     11  C   UNL     1       5.397   6.676  17.330  0.00  0.00    +0.000 C 
ATOM     12  C   UNL     1       6.662   6.217  16.628  0.00  0.00    +0.000 C 
ATOM     13  C   UNL     1       6.652   4.849  15.976  0.00  0.00    +0.000 C 
ATOM     14  C   UNL     1       5.590   3.853  16.430  0.00  0.00    +0.000 C 
ENDBRANCH   3   5
BRANCH   2  15
ATOM     15  C   UNL     1       1.795   9.871  18.132  0.00  0.00    +0.000 C 
BRANCH  15  16
ATOM     16  N   UNL     1       0.680  10.498  18.828  0.00  0.00    +0.000 N 
ATOM     17  N   UNL     1       1.020  11.158  20.007  0.00  0.00    +0.000 N 
ATOM     18  C   UNL     1       0.098  11.790  20.797  0.00  0.00    +0.000 A 
ATOM     19  O   UNL     1       0.408  12.259  21.886  0.00  0.00    +0.000 OA
ATOM     20  C   UNL     1      -1.277  11.888  20.280  0.00  0.00    +0.000 A 
ATOM     21  C   UNL     1      -2.232  12.624  20.997  0.00  0.00    +0.000 A 
ATOM     22  C   UNL     1      -3.530  12.753  20.504  0.00  0.00    +0.000 A 
ATOM     23  C   UNL     1      -3.877  12.139  19.299  0.00  0.00    +0.000 A 
ATOM     24  C   UNL     1      -2.932  11.389  18.594  0.00  0.00    +0.000 A 
ATOM     25  C   UNL     1      -1.623  11.262  19.085  0.00  0.00    +0.000 A 
ATOM     26  C   UNL     1      -0.612  10.483  18.329  0.00  0.00    +0.000 A 
ATOM     27  O   UNL     1      -0.921   9.885  17.302  0.00  0.00    +0.000 OA
ATOM     28  H   UNL     1       1.919  10.957  20.437  0.00  0.00    +0.000 HD
ENDBRANCH  15  16
ENDBRANCH   2  15
TORSDOF 3
ENDMDL
MODEL 5
REMARK VINA RESULT:      -8.6      1.417      2.645
REMARK  Name = 
REMARK  3 active torsions:
REMARK  status: ('A' for Active; 'I' for Inactive)
REMARK    1  A    between atoms: C_2  and  C_3
REMARK    2  A    between atoms: C_3  and  N_4
REMARK    3  A    between atoms: N_16  and  C_17
REMARK                            x       y       z     vdW  Elec       q    Type
REMARK                         _______ _______ _______ _____ _____    ______ ____
ROOT
ATOM      1  O   UNL     1      -0.134   7.263  20.986  0.00  0.00    +0.000 OA
ATOM      2  C   UNL     1       1.076   7.443  21.134  0.00  0.00    +0.000 C 
ATOM      3  N   UNL     1       2.085   6.535  20.894  0.00  0.00    +0.000 N 
ATOM      4  H   UNL     1       3.014   6.932  20.945  0.00  0.00    +0.000 HD
ENDROOT
BRANCH   3   5
ATOM      5  C   UNL     1       2.017   5.278  20.246  0.00  0.00    +0.000 A 
ATOM      6  C   UNL     1       1.053   4.324  20.569  0.00  0.00    +0.000 A 
ATOM      7  C   UNL     1       0.901   3.187  19.777  0.00  0.00    +0.000 A 
ATOM      8  C   UNL     1       1.686   3.022  18.637  0.00  0.00    +0.000 A 
ATOM      9  C   UNL     1       2.708   3.936  18.330  0.00  0.00    +0.000 A 
ATOM     10  C   UNL     1       2.929   5.026  19.184  0.00  0.00    +0.000 A 
ATOM     11  C   UNL     1       4.201   5.825  19.066  0.00  0.00    +0.000 C 
ATOM     12  C   UNL     1       5.024   5.724  17.795  0.00  0.00    +0.000 C 
ATOM     13  C   UNL     1       4.530   4.795  16.705  0.00  0.00    +0.000 C 
ATOM     14  C   UNL     1       3.536   3.705  17.096  0.00  0.00    +0.000 C 
ENDBRANCH   3   5
BRANCH   2  15
ATOM     15  C   UNL     1       1.629   8.810  21.575  0.00  0.00    +0.000 C 
BRANCH  15  16
ATOM     16  N   UNL     1       0.625   9.856  21.429  0.00  0.00    +0.000 N 
ATOM     17  N   UNL     1       0.430  10.304  20.124  0.00  0.00    +0.000 N 
ATOM     18  C   UNL     1      -0.461  11.293  19.804  0.00  0.00    +0.000 A 
ATOM     19  O   UNL     1      -0.526  11.747  18.668  0.00  0.00    +0.000 OA
ATOM     20  C   UNL     1      -1.342  11.778  20.879  0.00  0.00    +0.000 A 
ATOM     21  C   UNL     1      -2.349  12.707  20.578  0.00  0.00    +0.000 A 
ATOM     22  C   UNL     1      -3.212  13.153  21.579  0.00  0.00    +0.000 A 
ATOM     23  C   UNL     1      -3.063  12.677  22.883  0.00  0.00    +0.000 A 
ATOM     24  C   UNL     1      -2.048  11.768  23.188  0.00  0.00    +0.000 A 
ATOM     25  C   UNL     1      -1.181  11.313  22.182  0.00  0.00    +0.000 A 
ATOM     26  C   UNL     1      -0.114  10.332  22.498  0.00  0.00    +0.000 A 
ATOM     27  O   UNL     1       0.068   9.956  23.653  0.00  0.00    +0.000 OA
ATOM     28  H   UNL     1       1.135  10.090  19.424  0.00  0.00    +0.000 HD
ENDBRANCH  15  16
ENDBRANCH   2  15
TORSDOF 3
ENDMDL
MODEL 6
REMARK VINA RESULT:      -8.6      1.971      3.117
REMARK  Name = 
REMARK  3 active torsions:
REMARK  status: ('A' for Active; 'I' for Inactive)
REMARK    1  A    between atoms: C_2  and  C_3
REMARK    2  A    between atoms: C_3  and  N_4
REMARK    3  A    between atoms: N_16  and  C_17
REMARK                            x       y       z     vdW  Elec       q    Type
REMARK                         _______ _______ _______ _____ _____    ______ ____
ROOT
ATOM      1  O   UNL     1       0.895   8.962  20.525  0.00  0.00    +0.000 OA
ATOM      2  C   UNL     1       1.461   9.090  19.438  0.00  0.00    +0.000 C 
ATOM      3  N   UNL     1       2.277   8.170  18.814  0.00  0.00    +0.000 N 
ATOM      4  H   UNL     1       2.524   8.418  17.865  0.00  0.00    +0.000 HD
ENDROOT
BRANCH   3   5
ATOM      5  C   UNL     1       2.506   6.813  19.146  0.00  0.00    +0.000 A 
ATOM      6  C   UNL     1       1.874   6.193  20.225  0.00  0.00    +0.000 A 
ATOM      7  C   UNL     1       1.978   4.813  20.395  0.00  0.00    +0.000 A 
ATOM      8  C   UNL     1       2.680   4.046  19.467  0.00  0.00    +0.000 A 
ATOM      9  C   UNL     1       3.379   4.657  18.413  0.00  0.00    +0.000 A 
ATOM     10  C   UNL     1       3.359   6.054  18.299  0.00  0.00    +0.000 A 
ATOM     11  C   UNL     1       4.346   6.747  17.395  0.00  0.00    +0.000 C 
ATOM     12  C   UNL     1       5.055   5.944  16.320  0.00  0.00    +0.000 C 
ATOM     13  C   UNL     1       4.749   4.463  16.226  0.00  0.00    +0.000 C 
ATOM     14  C   UNL     1       4.132   3.786  17.446  0.00  0.00    +0.000 C 
ENDBRANCH   3   5
BRANCH   2  15
ATOM     15  C   UNL     1       1.255  10.349  18.577  0.00  0.00    +0.000 C 
BRANCH  15  16
ATOM     16  N   UNL     1      -0.160  10.673  18.447  0.00  0.00    +0.000 N 
ATOM     17  N   UNL     1      -0.830   9.984  17.439  0.00  0.00    +0.000 N 
ATOM     18  C   UNL     1      -2.157  10.175  17.165  0.00  0.00    +0.000 A 
ATOM     19  O   UNL     1      -2.690   9.643  16.198  0.00  0.00    +0.000 OA
ATOM     20  C   UNL     1      -2.917  11.037  18.085  0.00  0.00    +0.000 A 
ATOM     21  C   UNL     1      -4.303  11.173  17.915  0.00  0.00    +0.000 A 
ATOM     22  C   UNL     1      -5.041  11.961  18.798  0.00  0.00    +0.000 A 
ATOM     23  C   UNL     1      -4.394  12.620  19.845  0.00  0.00    +0.000 A 
ATOM     24  C   UNL     1      -3.011  12.502  20.002  0.00  0.00    +0.000 A 
ATOM     25  C   UNL     1      -2.266  11.705  19.119  0.00  0.00    +0.000 A 
ATOM     26  C   UNL     1      -0.800  11.561  19.295  0.00  0.00    +0.000 A 
ATOM     27  O   UNL     1      -0.210  12.187  20.172  0.00  0.00    +0.000 OA
ATOM     28  H   UNL     1      -0.283   9.522  16.717  0.00  0.00    +0.000 HD
ENDBRANCH  15  16
ENDBRANCH   2  15
TORSDOF 3
ENDMDL
MODEL 7
REMARK VINA RESULT:      -8.5      1.735      3.359
REMARK  Name = 
REMARK  3 active torsions:
REMARK  status: ('A' for Active; 'I' for Inactive)
REMARK    1  A    between atoms: C_2  and  C_3
REMARK    2  A    between atoms: C_3  and  N_4
REMARK    3  A    between atoms: N_16  and  C_17
REMARK                            x       y       z     vdW  Elec       q    Type
REMARK                         _______ _______ _______ _____ _____    ______ ____
ROOT
ATOM      1  O   UNL     1       0.913   8.900  19.487  0.00  0.00    +0.000 OA
ATOM      2  C   UNL     1       1.469   8.344  20.435  0.00  0.00    +0.000 C 
ATOM      3  N   UNL     1       2.180   7.164  20.404  0.00  0.00    +0.000 N 
ATOM      4  H   UNL     1       2.672   6.959  21.263  0.00  0.00    +0.000 HD
ENDROOT
BRANCH   3   5
ATOM      5  C   UNL     1       2.615   6.415  19.284  0.00  0.00    +0.000 A 
ATOM      6  C   UNL     1       3.423   6.965  18.288  0.00  0.00    +0.000 A 
ATOM      7  C   UNL     1       3.984   6.144  17.312  0.00  0.00    +0.000 A 
ATOM      8  C   UNL     1       3.772   4.767  17.351  0.00  0.00    +0.000 A 
ATOM      9  C   UNL     1       2.908   4.201  18.304  0.00  0.00    +0.000 A 
ATOM     10  C   UNL     1       2.261   5.039  19.223  0.00  0.00    +0.000 A 
ATOM     11  C   UNL     1       1.100   4.515  20.028  0.00  0.00    +0.000 C 
ATOM     12  C   UNL     1       0.903   3.016  20.155  0.00  0.00    +0.000 C 
ATOM     13  C   UNL     1       1.884   2.111  19.436  0.00  0.00    +0.000 C 
ATOM     14  C   UNL     1       2.700   2.712  18.295  0.00  0.00    +0.000 C 
ENDBRANCH   3   5
BRANCH   2  15
ATOM     15  C   UNL     1       1.481   8.983  21.836  0.00  0.00    +0.000 C 
BRANCH  15  16
ATOM     16  N   UNL     1       0.714  10.222  21.857  0.00  0.00    +0.000 N 
ATOM     17  N   UNL     1       1.172  11.210  20.989  0.00  0.00    +0.000 N 
ATOM     18  C   UNL     1       0.582  12.442  20.889  0.00  0.00    +0.000 A 
ATOM     19  O   UNL     1       1.077  13.330  20.206  0.00  0.00    +0.000 OA
ATOM     20  C   UNL     1      -0.674  12.648  21.629  0.00  0.00    +0.000 A 
ATOM     21  C   UNL     1      -1.377  13.852  21.470  0.00  0.00    +0.000 A 
ATOM     22  C   UNL     1      -2.585  14.049  22.140  0.00  0.00    +0.000 A 
ATOM     23  C   UNL     1      -3.085  13.049  22.975  0.00  0.00    +0.000 A 
ATOM     24  C   UNL     1      -2.375  11.859  23.150  0.00  0.00    +0.000 A 
ATOM     25  C   UNL     1      -1.162  11.654  22.474  0.00  0.00    +0.000 A 
ATOM     26  C   UNL     1      -0.415  10.384  22.642  0.00  0.00    +0.000 A 
ATOM     27  O   UNL     1      -0.811   9.523  23.424  0.00  0.00    +0.000 OA
ATOM     28  H   UNL     1       2.110  11.129  20.608  0.00  0.00    +0.000 HD
ENDBRANCH  15  16
ENDBRANCH   2  15
TORSDOF 3
ENDMDL
MODEL 8
REMARK VINA RESULT:      -8.5      1.585      3.391
REMARK  Name = 
REMARK  3 active torsions:
REMARK  status: ('A' for Active; 'I' for Inactive)
REMARK    1  A    between atoms: C_2  and  C_3
REMARK    2  A    between atoms: C_3  and  N_4
REMARK    3  A    between atoms: N_16  and  C_17
REMARK                            x       y       z     vdW  Elec       q    Type
REMARK                         _______ _______ _______ _____ _____    ______ ____
ROOT
ATOM      1  O   UNL     1       2.100   9.160  17.280  0.00  0.00    +0.000 OA
ATOM      2  C   UNL     1       2.046   8.584  18.368  0.00  0.00    +0.000 C 
ATOM      3  N   UNL     1       2.458   7.299  18.649  0.00  0.00    +0.000 N 
ATOM      4  H   UNL     1       2.455   7.074  19.634  0.00  0.00    +0.000 HD
ENDROOT
BRANCH   3   5
ATOM      5  C   UNL     1       3.211   6.410  17.843  0.00  0.00    +0.000 A 
ATOM      6  C   UNL     1       4.302   6.833  17.085  0.00  0.00    +0.000 A 
ATOM      7  C   UNL     1       5.127   5.895  16.465  0.00  0.00    +0.000 A 
ATOM      8  C   UNL     1       4.887   4.533  16.636  0.00  0.00    +0.000 A 
ATOM      9  C   UNL     1       3.756   4.087  17.339  0.00  0.00    +0.000 A 
ATOM     10  C   UNL     1       2.868   5.030  17.876  0.00  0.00    +0.000 A 
ATOM     11  C   UNL     1       1.502   4.595  18.341  0.00  0.00    +0.000 C 
ATOM     12  C   UNL     1       1.247   3.124  18.615  0.00  0.00    +0.000 C 
ATOM     13  C   UNL     1       2.387   2.154  18.382  0.00  0.00    +0.000 C 
ATOM     14  C   UNL     1       3.533   2.606  17.482  0.00  0.00    +0.000 C 
ENDBRANCH   3   5
BRANCH   2  15
ATOM     15  C   UNL     1       1.532   9.308  19.626  0.00  0.00    +0.000 C 
BRANCH  15  16
ATOM     16  N   UNL     1       0.275   9.996  19.362  0.00  0.00    +0.000 N 
ATOM     17  N   UNL     1      -0.361   9.624  18.180  0.00  0.00    +0.000 N 
ATOM     18  C   UNL     1      -1.542  10.179  17.766  0.00  0.00    +0.000 A 
ATOM     19  O   UNL     1      -2.017   9.918  16.667  0.00  0.00    +0.000 OA
ATOM     20  C   UNL     1      -2.220  11.093  18.701  0.00  0.00    +0.000 A 
ATOM     21  C   UNL     1      -3.487  11.598  18.373  0.00  0.00    +0.000 A 
ATOM     22  C   UNL     1      -4.155  12.440  19.261  0.00  0.00    +0.000 A 
ATOM     23  C   UNL     1      -3.554  12.784  20.474  0.00  0.00    +0.000 A 
ATOM     24  C   UNL     1      -2.284  12.298  20.792  0.00  0.00    +0.000 A 
ATOM     25  C   UNL     1      -1.611  11.447  19.902  0.00  0.00    +0.000 A 
ATOM     26  C   UNL     1      -0.270  10.913  20.245  0.00  0.00    +0.000 A 
ATOM     27  O   UNL     1       0.297  11.260  21.278  0.00  0.00    +0.000 OA
ATOM     28  H   UNL     1       0.174   9.125  17.474  0.00  0.00    +0.000 HD
ENDBRANCH  15  16
ENDBRANCH   2  15
TORSDOF 3
ENDMDL
MODEL 9
REMARK VINA RESULT:      -8.5      2.614      8.458
REMARK  Name = 
REMARK  3 active torsions:
REMARK  status: ('A' for Active; 'I' for Inactive)
REMARK    1  A    between atoms: C_2  and  C_3
REMARK    2  A    between atoms: C_3  and  N_4
REMARK    3  A    between atoms: N_16  and  C_17
REMARK                            x       y       z     vdW  Elec       q    Type
REMARK                         _______ _______ _______ _____ _____    ______ ____
ROOT
ATOM      1  O   UNL     1       0.787   5.033  20.383  0.00  0.00    +0.000 OA
ATOM      2  C   UNL     1       1.882   5.569  20.562  0.00  0.00    +0.000 C 
ATOM      3  N   UNL     1       2.129   6.914  20.733  0.00  0.00    +0.000 N 
ATOM      4  H   UNL     1       3.080   7.124  21.007  0.00  0.00    +0.000 HD
ENDROOT
BRANCH   3   5
ATOM      5  C   UNL     1       1.208   7.969  20.946  0.00  0.00    +0.000 A 
ATOM      6  C   UNL     1       0.352   8.000  22.047  0.00  0.00    +0.000 A 
ATOM      7  C   UNL     1      -0.395   9.146  22.318  0.00  0.00    +0.000 A 
ATOM      8  C   UNL     1      -0.257  10.276  21.513  0.00  0.00    +0.000 A 
ATOM      9  C   UNL     1       0.548  10.242  20.362  0.00  0.00    +0.000 A 
ATOM     10  C   UNL     1       1.220   9.057  20.031  0.00  0.00    +0.000 A 
ATOM     11  C   UNL     1       1.815   8.890  18.656  0.00  0.00    +0.000 C 
ATOM     12  C   UNL     1       2.053  10.120  17.799  0.00  0.00    +0.000 C 
ATOM     13  C   UNL     1       1.653  11.466  18.367  0.00  0.00    +0.000 C 
ATOM     14  C   UNL     1       0.652  11.483  19.519  0.00  0.00    +0.000 C 
ENDBRANCH   3   5
BRANCH   2  15
ATOM     15  C   UNL     1       3.167   4.730  20.681  0.00  0.00    +0.000 C 
BRANCH  15  16
ATOM     16  N   UNL     1       3.747   4.465  19.370  0.00  0.00    +0.000 N 
ATOM     17  N   UNL     1       2.846   4.003  18.413  0.00  0.00    +0.000 N 
ATOM     18  C   UNL     1       3.220   3.688  17.134  0.00  0.00    +0.000 A 
ATOM     19  O   UNL     1       2.431   3.173  16.350  0.00  0.00    +0.000 OA
ATOM     20  C   UNL     1       4.603   4.004  16.740  0.00  0.00    +0.000 A 
ATOM     21  C   UNL     1       5.002   3.807  15.409  0.00  0.00    +0.000 A 
ATOM     22  C   UNL     1       6.300   4.130  15.013  0.00  0.00    +0.000 A 
ATOM     23  C   UNL     1       7.202   4.642  15.948  0.00  0.00    +0.000 A 
ATOM     24  C   UNL     1       6.811   4.818  17.278  0.00  0.00    +0.000 A 
ATOM     25  C   UNL     1       5.504   4.499  17.679  0.00  0.00    +0.000 A 
ATOM     26  C   UNL     1       5.080   4.704  19.085  0.00  0.00    +0.000 A 
ATOM     27  O   UNL     1       5.882   5.092  19.931  0.00  0.00    +0.000 OA
ATOM     28  H   UNL     1       1.949   3.640  18.722  0.00  0.00    +0.000 HD
ENDBRANCH  15  16
ENDBRANCH   2  15
TORSDOF 3
ENDMDL
