MODEL 1
REMARK VINA RESULT:      -8.7      0.000      0.000
REMARK  Name = 
REMARK  2 active torsions:
REMARK  status: ('A' for Active; 'I' for Inactive)
REMARK    1  A    between atoms: C_1  and  C_2
REMARK    2  A    between atoms: N_20  and  C_21
REMARK                            x       y       z     vdW  Elec       q    Type
REMARK                         _______ _______ _______ _____ _____    ______ ____
ROOT
ATOM      1  C   UNL     1      10.606  12.715  20.777  0.00  0.00    +0.000 C 
ATOM      2  C   UNL     1       9.917  11.719  19.921  0.00  0.00    +0.000 A 
ATOM      3  C   UNL     1       9.701  10.372  20.122  0.00  0.00    +0.000 A 
ATOM      4  C   UNL     1       9.007   9.909  18.978  0.00  0.00    +0.000 A 
ATOM      5  N   UNL     1       8.620   8.591  18.824  0.00  0.00    +0.000 N 
ATOM      6  C   UNL     1       7.906   8.063  17.773  0.00  0.00    +0.000 C 
ATOM      7  O   UNL     1       7.518   8.699  16.796  0.00  0.00    +0.000 OA
ATOM      8  N   UNL     1       7.618   6.699  17.888  0.00  0.00    +0.000 N 
ATOM      9  C   UNL     1       8.049   5.771  18.931  0.00  0.00    +0.000 C 
ATOM     10  C   UNL     1       6.845   5.379  19.788  0.00  0.00    +0.000 C 
ATOM     11  C   UNL     1       5.719   4.864  18.924  0.00  0.00    +0.000 A 
ATOM     12  C   UNL     1       4.713   4.070  19.495  0.00  0.00    +0.000 A 
ATOM     13  C   UNL     1       3.668   3.590  18.709  0.00  0.00    +0.000 A 
ATOM     14  C   UNL     1       3.625   3.909  17.358  0.00  0.00    +0.000 A 
ATOM     15  F   UNL     1       2.625   3.436  16.603  0.00  0.00    +0.000 F 
ATOM     16  C   UNL     1       4.600   4.714  16.777  0.00  0.00    +0.000 A 
ATOM     17  C   UNL     1       5.652   5.218  17.557  0.00  0.00    +0.000 A 
ATOM     18  C   UNL     1       6.710   6.097  16.908  0.00  0.00    +0.000 C 
ATOM     19  N   UNL     1       8.804  10.904  18.122  0.00  0.00    +0.000 NA
ATOM     20  N   UNL     1       9.356  11.991  18.696  0.00  0.00    +0.000 N 
ATOM     21  H   UNL     1       8.854   8.007  19.599  0.00  0.00    +0.000 HD
ENDROOT
BRANCH  20  22
ATOM     22  C   UNL     1       9.344  13.261  17.973  0.00  0.00    +0.000 C 
ATOM     23  C   UNL     1      10.759  13.823  17.760  0.00  0.00    +0.000 C 
ATOM     24  C   UNL     1      10.730  15.164  17.028  0.00  0.00    +0.000 C 
ATOM     25  C   UNL     1       9.833  16.173  17.739  0.00  0.00    +0.000 C 
ATOM     26  C   UNL     1       8.421  15.625  17.930  0.00  0.00    +0.000 C 
ATOM     27  C   UNL     1       8.431  14.286  18.663  0.00  0.00    +0.000 C 
ENDBRANCH  20  22
TORSDOF 1
ENDMDL
MODEL 2
REMARK VINA RESULT:      -8.6      8.319     11.420
REMARK  Name = 
REMARK  2 active torsions:
REMARK  status: ('A' for Active; 'I' for Inactive)
REMARK    1  A    between atoms: C_1  and  C_2
REMARK    2  A    between atoms: N_20  and  C_21
REMARK                            x       y       z     vdW  Elec       q    Type
REMARK                         _______ _______ _______ _____ _____    ______ ____
ROOT
ATOM      1  C   UNL     1       3.560   6.441  17.243  0.00  0.00    +0.000 C 
ATOM      2  C   UNL     1       2.787   7.039  18.359  0.00  0.00    +0.000 A 
ATOM      3  C   UNL     1       2.423   8.349  18.587  0.00  0.00    +0.000 A 
ATOM      4  C   UNL     1       1.708   8.353  19.808  0.00  0.00    +0.000 A 
ATOM      5  N   UNL     1       1.185   9.506  20.362  0.00  0.00    +0.000 N 
ATOM      6  C   UNL     1       0.442   9.598  21.516  0.00  0.00    +0.000 C 
ATOM      7  O   UNL     1       0.144   8.651  22.239  0.00  0.00    +0.000 OA
ATOM      8  N   UNL     1       0.007  10.891  21.830  0.00  0.00    +0.000 N 
ATOM      9  C   UNL     1       0.314  12.139  21.136  0.00  0.00    +0.000 C 
ATOM     10  C   UNL     1      -0.943  12.647  20.429  0.00  0.00    +0.000 C 
ATOM     11  C   UNL     1      -2.099  12.741  21.395  0.00  0.00    +0.000 A 
ATOM     12  C   UNL     1      -3.196  13.560  21.088  0.00  0.00    +0.000 A 
ATOM     13  C   UNL     1      -4.270  13.653  21.970  0.00  0.00    +0.000 A 
ATOM     14  C   UNL     1      -4.250  12.925  23.153  0.00  0.00    +0.000 A 
ATOM     15  F   UNL     1      -5.279  13.027  24.005  0.00  0.00    +0.000 F 
ATOM     16  C   UNL     1      -3.182  12.089  23.466  0.00  0.00    +0.000 A 
ATOM     17  C   UNL     1      -2.099  11.972  22.582  0.00  0.00    +0.000 A 
ATOM     18  C   UNL     1      -0.939  11.054  22.937  0.00  0.00    +0.000 C 
ATOM     19  N   UNL     1       1.631   7.124  20.308  0.00  0.00    +0.000 NA
ATOM     20  N   UNL     1       2.284   6.338  19.430  0.00  0.00    +0.000 N 
ATOM     21  H   UNL     1       1.340  10.325  19.812  0.00  0.00    +0.000 HD
ENDROOT
BRANCH  20  22
ATOM     22  C   UNL     1       2.424   4.912  19.718  0.00  0.00    +0.000 C 
ATOM     23  C   UNL     1       1.432   4.055  18.915  0.00  0.00    +0.000 C 
ATOM     24  C   UNL     1       1.571   2.570  19.247  0.00  0.00    +0.000 C 
ATOM     25  C   UNL     1       1.440   2.315  20.745  0.00  0.00    +0.000 C 
ATOM     26  C   UNL     1       2.440   3.147  21.542  0.00  0.00    +0.000 C 
ATOM     27  C   UNL     1       2.314   4.636  21.225  0.00  0.00    +0.000 C 
ENDBRANCH  20  22
TORSDOF 1
ENDMDL
MODEL 3
REMARK VINA RESULT:      -8.4      6.290      9.636
REMARK  Name = 
REMARK  2 active torsions:
REMARK  status: ('A' for Active; 'I' for Inactive)
REMARK    1  A    between atoms: C_1  and  C_2
REMARK    2  A    between atoms: N_20  and  C_21
REMARK                            x       y       z     vdW  Elec       q    Type
REMARK                         _______ _______ _______ _____ _____    ______ ____
ROOT
ATOM      1  C   UNL     1       3.322   3.147  20.490  0.00  0.00    +0.000 C 
ATOM      2  C   UNL     1       3.097   4.513  19.959  0.00  0.00    +0.000 A 
ATOM      3  C   UNL     1       2.154   5.458  20.306  0.00  0.00    +0.000 A 
ATOM      4  C   UNL     1       2.389   6.574  19.468  0.00  0.00    +0.000 A 
ATOM      5  N   UNL     1       1.627   7.725  19.529  0.00  0.00    +0.000 N 
ATOM      6  C   UNL     1       1.809   8.871  18.790  0.00  0.00    +0.000 C 
ATOM      7  O   UNL     1       2.684   9.030  17.943  0.00  0.00    +0.000 OA
ATOM      8  N   UNL     1       0.909   9.903  19.078  0.00  0.00    +0.000 N 
ATOM      9  C   UNL     1      -0.229   9.878  19.994  0.00  0.00    +0.000 C 
ATOM     10  C   UNL     1       0.079  10.756  21.207  0.00  0.00    +0.000 C 
ATOM     11  C   UNL     1       0.497  12.140  20.773  0.00  0.00    +0.000 A 
ATOM     12  C   UNL     1       0.413  13.208  21.679  0.00  0.00    +0.000 A 
ATOM     13  C   UNL     1       0.797  14.489  21.292  0.00  0.00    +0.000 A 
ATOM     14  C   UNL     1       1.271  14.702  20.003  0.00  0.00    +0.000 A 
ATOM     15  F   UNL     1       1.627  15.938  19.630  0.00  0.00    +0.000 F 
ATOM     16  C   UNL     1       1.383  13.653  19.096  0.00  0.00    +0.000 A 
ATOM     17  C   UNL     1       1.014  12.353  19.474  0.00  0.00    +0.000 A 
ATOM     18  C   UNL     1       1.144  11.216  18.472  0.00  0.00    +0.000 C 
ATOM     19  N   UNL     1       3.412   6.340  18.654  0.00  0.00    +0.000 NA
ATOM     20  N   UNL     1       3.833   5.095  18.954  0.00  0.00    +0.000 N 
ATOM     21  H   UNL     1       0.915   7.703  20.230  0.00  0.00    +0.000 HD
ENDROOT
BRANCH  20  22
ATOM     22  C   UNL     1       4.932   4.511  18.189  0.00  0.00    +0.000 C 
ATOM     23  C   UNL     1       6.267   5.225  18.450  0.00  0.00    +0.000 C 
ATOM     24  C   UNL     1       7.402   4.622  17.623  0.00  0.00    +0.000 C 
ATOM     25  C   UNL     1       7.064   4.602  16.136  0.00  0.00    +0.000 C 
ATOM     26  C   UNL     1       5.750   3.873  15.872  0.00  0.00    +0.000 C 
ATOM     27  C   UNL     1       4.603   4.464  16.689  0.00  0.00    +0.000 C 
ENDBRANCH  20  22
TORSDOF 1
ENDMDL
MODEL 4
REMARK VINA RESULT:      -8.0      7.933     11.125
REMARK  Name = 
REMARK  2 active torsions:
REMARK  status: ('A' for Active; 'I' for Inactive)
REMARK    1  A    between atoms: C_1  and  C_2
REMARK    2  A    between atoms: N_20  and  C_21
REMARK                            x       y       z     vdW  Elec       q    Type
REMARK                         _______ _______ _______ _____ _____    ______ ____
ROOT
ATOM      1  C   UNL     1       3.725   5.962  17.075  0.00  0.00    +0.000 C 
ATOM      2  C   UNL     1       2.976   6.603  18.182  0.00  0.00    +0.000 A 
ATOM      3  C   UNL     1       2.651   7.928  18.386  0.00  0.00    +0.000 A 
ATOM      4  C   UNL     1       1.943   7.976  19.611  0.00  0.00    +0.000 A 
ATOM      5  N   UNL     1       1.457   9.154  20.145  0.00  0.00    +0.000 N 
ATOM      6  C   UNL     1       0.723   9.290  21.301  0.00  0.00    +0.000 C 
ATOM      7  O   UNL     1       0.402   8.366  22.044  0.00  0.00    +0.000 OA
ATOM      8  N   UNL     1       0.328  10.601  21.592  0.00  0.00    +0.000 N 
ATOM      9  C   UNL     1       0.667  11.826  20.872  0.00  0.00    +0.000 C 
ATOM     10  C   UNL     1      -0.579  12.356  20.162  0.00  0.00    +0.000 C 
ATOM     11  C   UNL     1      -1.726  12.503  21.132  0.00  0.00    +0.000 A 
ATOM     12  C   UNL     1      -2.800  13.347  20.815  0.00  0.00    +0.000 A 
ATOM     13  C   UNL     1      -3.866  13.489  21.700  0.00  0.00    +0.000 A 
ATOM     14  C   UNL     1      -3.861  12.783  22.897  0.00  0.00    +0.000 A 
ATOM     15  F   UNL     1      -4.881  12.932  23.752  0.00  0.00    +0.000 F 
ATOM     16  C   UNL     1      -2.816  11.923  23.220  0.00  0.00    +0.000 A 
ATOM     17  C   UNL     1      -1.742  11.757  22.334  0.00  0.00    +0.000 A 
ATOM     18  C   UNL     1      -0.607  10.812  22.700  0.00  0.00    +0.000 C 
ATOM     19  N   UNL     1       1.833   6.760  20.135  0.00  0.00    +0.000 NA
ATOM     20  N   UNL     1       2.459   5.938  19.269  0.00  0.00    +0.000 N 
ATOM     21  H   UNL     1       1.632   9.958  19.579  0.00  0.00    +0.000 HD
ENDROOT
BRANCH  20  22
ATOM     22  C   UNL     1       2.558   4.514  19.584  0.00  0.00    +0.000 C 
ATOM     23  C   UNL     1       4.012   4.015  19.567  0.00  0.00    +0.000 C 
ATOM     24  C   UNL     1       4.099   2.520  19.872  0.00  0.00    +0.000 C 
ATOM     25  C   UNL     1       3.220   1.703  18.929  0.00  0.00    +0.000 C 
ATOM     26  C   UNL     1       1.772   2.183  18.961  0.00  0.00    +0.000 C 
ATOM     27  C   UNL     1       1.665   3.675  18.657  0.00  0.00    +0.000 C 
ENDBRANCH  20  22
TORSDOF 1
ENDMDL
MODEL 5
REMARK VINA RESULT:      -7.8      6.542      9.723
REMARK  Name = 
REMARK  2 active torsions:
REMARK  status: ('A' for Active; 'I' for Inactive)
REMARK    1  A    between atoms: C_1  and  C_2
REMARK    2  A    between atoms: N_20  and  C_21
REMARK                            x       y       z     vdW  Elec       q    Type
REMARK                         _______ _______ _______ _____ _____    ______ ____
ROOT
ATOM      1  C   UNL     1       4.287   4.266  19.444  0.00  0.00    +0.000 C 
ATOM      2  C   UNL     1       3.662   5.560  19.076  0.00  0.00    +0.000 A 
ATOM      3  C   UNL     1       2.702   6.301  19.731  0.00  0.00    +0.000 A 
ATOM      4  C   UNL     1       2.465   7.441  18.925  0.00  0.00    +0.000 A 
ATOM      5  N   UNL     1       1.551   8.419  19.266  0.00  0.00    +0.000 N 
ATOM      6  C   UNL     1       1.289   9.576  18.570  0.00  0.00    +0.000 C 
ATOM      7  O   UNL     1       1.832   9.903  17.518  0.00  0.00    +0.000 OA
ATOM      8  N   UNL     1       0.335  10.412  19.162  0.00  0.00    +0.000 N 
ATOM      9  C   UNL     1      -0.459  10.164  20.363  0.00  0.00    +0.000 C 
ATOM     10  C   UNL     1       0.017  11.088  21.484  0.00  0.00    +0.000 C 
ATOM     11  C   UNL     1       0.020  12.527  21.026  0.00  0.00    +0.000 A 
ATOM     12  C   UNL     1       0.004  13.559  21.976  0.00  0.00    +0.000 A 
ATOM     13  C   UNL     1       0.009  14.890  21.567  0.00  0.00    +0.000 A 
ATOM     14  C   UNL     1       0.036  15.189  20.210  0.00  0.00    +0.000 A 
ATOM     15  F   UNL     1       0.027  16.470  19.820  0.00  0.00    +0.000 F 
ATOM     16  C   UNL     1       0.075  14.181  19.252  0.00  0.00    +0.000 A 
ATOM     17  C   UNL     1       0.085  12.835  19.647  0.00  0.00    +0.000 A 
ATOM     18  C   UNL     1       0.129  11.743  18.588  0.00  0.00    +0.000 C 
ATOM     19  N   UNL     1       3.231   7.411  17.839  0.00  0.00    +0.000 NA
ATOM     20  N   UNL     1       3.949   6.274  17.937  0.00  0.00    +0.000 N 
ATOM     21  H   UNL     1       1.093   8.257  20.139  0.00  0.00    +0.000 HD
ENDROOT
BRANCH  20  22
ATOM     22  C   UNL     1       4.866   5.916  16.857  0.00  0.00    +0.000 C 
ATOM     23  C   UNL     1       4.581   4.517  16.290  0.00  0.00    +0.000 C 
ATOM     24  C   UNL     1       5.564   4.145  15.181  0.00  0.00    +0.000 C 
ATOM     25  C   UNL     1       7.012   4.271  15.648  0.00  0.00    +0.000 C 
ATOM     26  C   UNL     1       7.303   5.668  16.190  0.00  0.00    +0.000 C 
ATOM     27  C   UNL     1       6.330   6.055  17.302  0.00  0.00    +0.000 C 
ENDBRANCH  20  22
TORSDOF 1
ENDMDL
MODEL 6
REMARK VINA RESULT:      -7.7      6.559     10.278
REMARK  Name = 
REMARK  2 active torsions:
REMARK  status: ('A' for Active; 'I' for Inactive)
REMARK    1  A    between atoms: C_1  and  C_2
REMARK    2  A    between atoms: N_20  and  C_21
REMARK                            x       y       z     vdW  Elec       q    Type
REMARK                         _______ _______ _______ _____ _____    ______ ____
ROOT
ATOM      1  C   UNL     1       2.340   4.420  21.088  0.00  0.00    +0.000 C 
ATOM      2  C   UNL     1       2.199   5.764  20.477  0.00  0.00    +0.000 A 
ATOM      3  C   UNL     1       1.400   6.827  20.841  0.00  0.00    +0.000 A 
ATOM      4  C   UNL     1       1.656   7.853  19.900  0.00  0.00    +0.000 A 
ATOM      5  N   UNL     1       1.025   9.082  19.947  0.00  0.00    +0.000 N 
ATOM      6  C   UNL     1       1.243  10.149  19.107  0.00  0.00    +0.000 C 
ATOM      7  O   UNL     1       2.035  10.155  18.168  0.00  0.00    +0.000 OA
ATOM      8  N   UNL     1       0.489  11.290  19.402  0.00  0.00    +0.000 N 
ATOM      9  C   UNL     1      -0.541  11.450  20.426  0.00  0.00    +0.000 C 
ATOM     10  C   UNL     1      -0.018  12.368  21.530  0.00  0.00    +0.000 C 
ATOM     11  C   UNL     1       0.489  13.667  20.951  0.00  0.00    +0.000 A 
ATOM     12  C   UNL     1       0.611  14.795  21.776  0.00  0.00    +0.000 A 
ATOM     13  C   UNL     1       1.080  15.998  21.254  0.00  0.00    +0.000 A 
ATOM     14  C   UNL     1       1.432  16.071  19.912  0.00  0.00    +0.000 A 
ATOM     15  F   UNL     1       1.871  17.233  19.410  0.00  0.00    +0.000 F 
ATOM     16  C   UNL     1       1.340  14.958  19.082  0.00  0.00    +0.000 A 
ATOM     17  C   UNL     1       0.883  13.735  19.595  0.00  0.00    +0.000 A 
ATOM     18  C   UNL     1       0.789  12.526  18.676  0.00  0.00    +0.000 C 
ATOM     19  N   UNL     1       2.557   7.454  19.009  0.00  0.00    +0.000 NA
ATOM     20  N   UNL     1       2.879   6.194  19.362  0.00  0.00    +0.000 N 
ATOM     21  H   UNL     1       0.394   9.183  20.714  0.00  0.00    +0.000 HD
ENDROOT
BRANCH  20  22
ATOM     22  C   UNL     1       3.825   5.444  18.539  0.00  0.00    +0.000 C 
ATOM     23  C   UNL     1       4.780   6.365  17.763  0.00  0.00    +0.000 C 
ATOM     24  C   UNL     1       5.745   5.568  16.887  0.00  0.00    +0.000 C 
ATOM     25  C   UNL     1       5.002   4.621  15.949  0.00  0.00    +0.000 C 
ATOM     26  C   UNL     1       4.071   3.691  16.720  0.00  0.00    +0.000 C 
ATOM     27  C   UNL     1       3.096   4.470  17.600  0.00  0.00    +0.000 C 
ENDBRANCH  20  22
TORSDOF 1
ENDMDL
MODEL 7
REMARK VINA RESULT:      -7.3      6.153     10.544
REMARK  Name = 
REMARK  2 active torsions:
REMARK  status: ('A' for Active; 'I' for Inactive)
REMARK    1  A    between atoms: C_1  and  C_2
REMARK    2  A    between atoms: N_20  and  C_21
REMARK                            x       y       z     vdW  Elec       q    Type
REMARK                         _______ _______ _______ _____ _____    ______ ____
ROOT
ATOM      1  C   UNL     1       1.853   4.899  21.123  0.00  0.00    +0.000 C 
ATOM      2  C   UNL     1       1.891   6.180  20.377  0.00  0.00    +0.000 A 
ATOM      3  C   UNL     1       1.466   7.439  20.749  0.00  0.00    +0.000 A 
ATOM      4  C   UNL     1       1.729   8.285  19.645  0.00  0.00    +0.000 A 
ATOM      5  N   UNL     1       1.428   9.634  19.653  0.00  0.00    +0.000 N 
ATOM      6  C   UNL     1       1.687  10.538  18.648  0.00  0.00    +0.000 C 
ATOM      7  O   UNL     1       2.220  10.265  17.576  0.00  0.00    +0.000 OA
ATOM      8  N   UNL     1       1.308  11.855  18.934  0.00  0.00    +0.000 N 
ATOM      9  C   UNL     1       0.608  12.355  20.114  0.00  0.00    +0.000 C 
ATOM     10  C   UNL     1       1.570  13.195  20.954  0.00  0.00    +0.000 C 
ATOM     11  C   UNL     1       2.217  14.269  20.113  0.00  0.00    +0.000 A 
ATOM     12  C   UNL     1       2.784  15.391  20.735  0.00  0.00    +0.000 A 
ATOM     13  C   UNL     1       3.386  16.388  19.970  0.00  0.00    +0.000 A 
ATOM     14  C   UNL     1       3.425  16.260  18.587  0.00  0.00    +0.000 A 
ATOM     15  F   UNL     1       3.993  17.226  17.854  0.00  0.00    +0.000 F 
ATOM     16  C   UNL     1       2.889  15.144  17.952  0.00  0.00    +0.000 A 
ATOM     17  C   UNL     1       2.292  14.124  18.708  0.00  0.00    +0.000 A 
ATOM     18  C   UNL     1       1.710  12.910  18.001  0.00  0.00    +0.000 C 
ATOM     19  N   UNL     1       2.282   7.598  18.651  0.00  0.00    +0.000 NA
ATOM     20  N   UNL     1       2.375   6.331  19.099  0.00  0.00    +0.000 N 
ATOM     21  H   UNL     1       1.033   9.956  20.511  0.00  0.00    +0.000 HD
ENDROOT
BRANCH  20  22
ATOM     22  C   UNL     1       2.905   5.299  18.210  0.00  0.00    +0.000 C 
ATOM     23  C   UNL     1       1.916   4.140  18.008  0.00  0.00    +0.000 C 
ATOM     24  C   UNL     1       2.494   3.057  17.098  0.00  0.00    +0.000 C 
ATOM     25  C   UNL     1       3.841   2.554  17.609  0.00  0.00    +0.000 C 
ATOM     26  C   UNL     1       4.832   3.701  17.789  0.00  0.00    +0.000 C 
ATOM     27  C   UNL     1       4.272   4.793  18.697  0.00  0.00    +0.000 C 
ENDBRANCH  20  22
TORSDOF 1
ENDMDL
MODEL 8
REMARK VINA RESULT:      -7.2      6.612     10.640
REMARK  Name = 
REMARK  2 active torsions:
REMARK  status: ('A' for Active; 'I' for Inactive)
REMARK    1  A    between atoms: C_1  and  C_2
REMARK    2  A    between atoms: N_20  and  C_21
REMARK                            x       y       z     vdW  Elec       q    Type
REMARK                         _______ _______ _______ _____ _____    ______ ____
ROOT
ATOM      1  C   UNL     1       1.988   4.916  21.080  0.00  0.00    +0.000 C 
ATOM      2  C   UNL     1       1.902   6.263  20.465  0.00  0.00    +0.000 A 
ATOM      3  C   UNL     1       1.219   7.387  20.878  0.00  0.00    +0.000 A 
ATOM      4  C   UNL     1       1.477   8.384  19.907  0.00  0.00    +0.000 A 
ATOM      5  N   UNL     1       0.947   9.658  19.988  0.00  0.00    +0.000 N 
ATOM      6  C   UNL     1       1.178  10.700  19.120  0.00  0.00    +0.000 C 
ATOM      7  O   UNL     1       1.891  10.639  18.121  0.00  0.00    +0.000 OA
ATOM      8  N   UNL     1       0.540  11.898  19.460  0.00  0.00    +0.000 N 
ATOM      9  C   UNL     1      -0.390  12.143  20.559  0.00  0.00    +0.000 C 
ATOM     10  C   UNL     1       0.288  13.026  21.608  0.00  0.00    +0.000 C 
ATOM     11  C   UNL     1       0.845  14.278  20.974  0.00  0.00    +0.000 A 
ATOM     12  C   UNL     1       1.118  15.398  21.772  0.00  0.00    +0.000 A 
ATOM     13  C   UNL     1       1.635  16.558  21.199  0.00  0.00    +0.000 A 
ATOM     14  C   UNL     1       1.884  16.595  19.833  0.00  0.00    +0.000 A 
ATOM     15  F   UNL     1       2.368  17.717  19.284  0.00  0.00    +0.000 F 
ATOM     16  C   UNL     1       1.641  15.487  19.027  0.00  0.00    +0.000 A 
ATOM     17  C   UNL     1       1.134  14.306  19.589  0.00  0.00    +0.000 A 
ATOM     18  C   UNL     1       0.875  13.102  18.696  0.00  0.00    +0.000 C 
ATOM     19  N   UNL     1       2.271   7.912  18.953  0.00  0.00    +0.000 NA
ATOM     20  N   UNL     1       2.522   6.633  19.295  0.00  0.00    +0.000 N 
ATOM     21  H   UNL     1       0.389   9.814  20.802  0.00  0.00    +0.000 HD
ENDROOT
BRANCH  20  22
ATOM     22  C   UNL     1       3.340   5.806  18.409  0.00  0.00    +0.000 C 
ATOM     23  C   UNL     1       2.564   4.600  17.857  0.00  0.00    +0.000 C 
ATOM     24  C   UNL     1       3.438   3.731  16.955  0.00  0.00    +0.000 C 
ATOM     25  C   UNL     1       4.715   3.291  17.665  0.00  0.00    +0.000 C 
ATOM     26  C   UNL     1       5.499   4.488  18.194  0.00  0.00    +0.000 C 
ATOM     27  C   UNL     1       4.640   5.368  19.100  0.00  0.00    +0.000 C 
ENDBRANCH  20  22
TORSDOF 1
ENDMDL
