MODEL 1
REMARK VINA RESULT:      -8.7      0.000      0.000
REMARK  Name = 
REMARK  7 active torsions:
REMARK  status: ('A' for Active; 'I' for Inactive)
REMARK    1  A    between atoms: C_2  and  C_7
REMARK    2  A    between atoms: N_3  and  C_4
REMARK    3  A    between atoms: C_9  and  N_10
REMARK    4  A    between atoms: N_10  and  C_11
REMARK    5  A    between atoms: C_11  and  C_12
REMARK    6  A    between atoms: N_14  and  C_15
REMARK    7  A    between atoms: C_15  and  C_16
REMARK                            x       y       z     vdW  Elec       q    Type
REMARK                         _______ _______ _______ _____ _____    ______ ____
ROOT
ATOM      1  C   UNL     1      -0.303  10.160  18.958  0.00  0.00    +0.000 A 
ATOM      2  C   UNL     1       0.540   9.549  18.019  0.00  0.00    +0.000 A 
ATOM      3  C   UNL     1       1.589   8.763  18.467  0.00  0.00    +0.000 A 
ATOM      4  N   UNL     1       1.813   8.560  19.778  0.00  0.00    +0.000 NA
ATOM      5  C   UNL     1       1.010   9.137  20.686  0.00  0.00    +0.000 A 
ATOM      6  C   UNL     1       1.304   8.921  22.034  0.00  0.00    +0.000 A 
ATOM      7  C   UNL     1       0.520   9.458  23.056  0.00  0.00    +0.000 A 
ATOM      8  C   UNL     1      -0.589  10.218  22.738  0.00  0.00    +0.000 A 
ATOM      9  C   UNL     1      -0.894  10.455  21.397  0.00  0.00    +0.000 A 
ATOM     10  C   UNL     1      -0.089   9.938  20.346  0.00  0.00    +0.000 A 
ENDROOT
BRANCH   1  12
ATOM     11  O   UNL     1      -1.018  12.307  18.293  0.00  0.00    +0.000 OA
ATOM     12  C   UNL     1      -1.328  11.133  18.486  0.00  0.00    +0.000 C 
ATOM     13  N   UNL     1      -2.622  10.681  18.259  0.00  0.00    +0.000 N 
ATOM     14  H   UNL     1      -2.896   9.742  18.518  0.00  0.00    +0.000 HD
BRANCH  13  15
ATOM     15  C   UNL     1      -3.632  11.609  17.840  0.00  0.00    +0.000 C 
ATOM     16  C   UNL     1      -5.098  11.290  17.864  0.00  0.00    +0.000 C 
ATOM     17  C   UNL     1      -4.377  11.390  16.551  0.00  0.00    +0.000 C 
ENDBRANCH  13  15
ENDBRANCH   1  12
BRANCH   3  18
ATOM     18  N   UNL     1       2.394   8.128  17.514  0.00  0.00    +0.000 N 
ATOM     19  H   UNL     1       2.439   8.685  16.661  0.00  0.00    +0.000 HD
BRANCH  18  20
ATOM     20  C   UNL     1       3.759   7.805  17.958  0.00  0.00    +0.000 C 
BRANCH  20  21
ATOM     21  C   UNL     1       4.107   6.392  17.460  0.00  0.00    +0.000 C 
ATOM     22  C   UNL     1       4.848   5.572  18.535  0.00  0.00    +0.000 C 
ATOM     23  N   UNL     1       5.132   4.183  18.095  0.00  0.00    +0.000 NA
ATOM     24  C   UNL     1       5.911   4.290  16.834  0.00  0.00    +0.000 C 
ATOM     25  C   UNL     1       5.255   5.190  15.764  0.00  0.00    +0.000 C 
ATOM     26  O   UNL     1       4.939   6.495  16.276  0.00  0.00    +0.000 OA
BRANCH  23  27
ATOM     27  C   UNL     1       3.916   3.369  17.869  0.00  0.00    +0.000 C 
BRANCH  27  28
ATOM     28  C   UNL     1       3.004   3.195  19.068  0.00  0.00    +0.000 A 
ATOM     29  C   UNL     1       3.491   2.650  20.268  0.00  0.00    +0.000 A 
ATOM     30  C   UNL     1       2.655   2.509  21.379  0.00  0.00    +0.000 A 
ATOM     31  C   UNL     1       1.332   2.940  21.313  0.00  0.00    +0.000 A 
ATOM     32  C   UNL     1       0.848   3.516  20.142  0.00  0.00    +0.000 A 
ATOM     33  C   UNL     1       1.674   3.633  19.020  0.00  0.00    +0.000 A 
ENDBRANCH  27  28
ENDBRANCH  23  27
ENDBRANCH  20  21
ENDBRANCH  18  20
ENDBRANCH   3  18
TORSDOF 7
ENDMDL
MODEL 2
REMARK VINA RESULT:      -8.4      1.946      3.723
REMARK  Name = 
REMARK  7 active torsions:
REMARK  status: ('A' for Active; 'I' for Inactive)
REMARK    1  A    between atoms: C_2  and  C_7
REMARK    2  A    between atoms: N_3  and  C_4
REMARK    3  A    between atoms: C_9  and  N_10
REMARK    4  A    between atoms: N_10  and  C_11
REMARK    5  A    between atoms: C_11  and  C_12
REMARK    6  A    between atoms: N_14  and  C_15
REMARK    7  A    between atoms: C_15  and  C_16
REMARK                            x       y       z     vdW  Elec       q    Type
REMARK                         _______ _______ _______ _____ _____    ______ ____
ROOT
ATOM      1  C   UNL     1      -0.778  10.690  19.573  0.00  0.00    +0.000 A 
ATOM      2  C   UNL     1       0.216   9.703  19.622  0.00  0.00    +0.000 A 
ATOM      3  C   UNL     1       0.718   9.314  20.853  0.00  0.00    +0.000 A 
ATOM      4  N   UNL     1       0.267   9.848  22.003  0.00  0.00    +0.000 NA
ATOM      5  C   UNL     1      -0.687  10.791  21.968  0.00  0.00    +0.000 A 
ATOM      6  C   UNL     1      -1.097  11.337  23.187  0.00  0.00    +0.000 A 
ATOM      7  C   UNL     1      -2.097  12.307  23.262  0.00  0.00    +0.000 A 
ATOM      8  C   UNL     1      -2.715  12.742  22.106  0.00  0.00    +0.000 A 
ATOM      9  C   UNL     1      -2.312  12.217  20.877  0.00  0.00    +0.000 A 
ATOM     10  C   UNL     1      -1.277  11.249  20.782  0.00  0.00    +0.000 A 
ENDROOT
BRANCH   1  12
ATOM     11  O   UNL     1      -0.813  12.332  17.880  0.00  0.00    +0.000 OA
ATOM     12  C   UNL     1      -1.203  11.225  18.248  0.00  0.00    +0.000 C 
ATOM     13  N   UNL     1      -2.026  10.445  17.447  0.00  0.00    +0.000 N 
ATOM     14  H   UNL     1      -2.426   9.585  17.797  0.00  0.00    +0.000 HD
BRANCH  13  15
ATOM     15  C   UNL     1      -2.475  10.958  16.184  0.00  0.00    +0.000 C 
ATOM     16  C   UNL     1      -3.915  10.949  15.762  0.00  0.00    +0.000 C 
ATOM     17  C   UNL     1      -2.938  10.019  15.104  0.00  0.00    +0.000 C 
ENDBRANCH  13  15
ENDBRANCH   1  12
BRANCH   3  18
ATOM     18  N   UNL     1       1.680   8.297  20.884  0.00  0.00    +0.000 N 
ATOM     19  H   UNL     1       1.369   7.535  21.486  0.00  0.00    +0.000 HD
BRANCH  18  20
ATOM     20  C   UNL     1       2.065   7.755  19.572  0.00  0.00    +0.000 C 
BRANCH  20  21
ATOM     21  C   UNL     1       2.420   6.269  19.748  0.00  0.00    +0.000 C 
ATOM     22  C   UNL     1       2.323   5.496  18.418  0.00  0.00    +0.000 C 
ATOM     23  N   UNL     1       2.728   4.075  18.556  0.00  0.00    +0.000 NA
ATOM     24  C   UNL     1       1.860   3.489  19.612  0.00  0.00    +0.000 C 
ATOM     25  C   UNL     1       1.845   4.292  20.930  0.00  0.00    +0.000 C 
ATOM     26  O   UNL     1       1.518   5.675  20.716  0.00  0.00    +0.000 OA
BRANCH  23  27
ATOM     27  C   UNL     1       4.153   3.893  18.916  0.00  0.00    +0.000 C 
BRANCH  27  28
ATOM     28  C   UNL     1       5.155   4.197  17.821  0.00  0.00    +0.000 A 
ATOM     29  C   UNL     1       6.330   4.915  18.101  0.00  0.00    +0.000 A 
ATOM     30  C   UNL     1       7.264   5.177  17.095  0.00  0.00    +0.000 A 
ATOM     31  C   UNL     1       7.049   4.699  15.804  0.00  0.00    +0.000 A 
ATOM     32  C   UNL     1       5.906   3.955  15.522  0.00  0.00    +0.000 A 
ATOM     33  C   UNL     1       4.957   3.714  16.520  0.00  0.00    +0.000 A 
ENDBRANCH  27  28
ENDBRANCH  23  27
ENDBRANCH  20  21
ENDBRANCH  18  20
ENDBRANCH   3  18
TORSDOF 7
ENDMDL
MODEL 3
REMARK VINA RESULT:      -8.4      2.156      3.064
REMARK  Name = 
REMARK  7 active torsions:
REMARK  status: ('A' for Active; 'I' for Inactive)
REMARK    1  A    between atoms: C_2  and  C_7
REMARK    2  A    between atoms: N_3  and  C_4
REMARK    3  A    between atoms: C_9  and  N_10
REMARK    4  A    between atoms: N_10  and  C_11
REMARK    5  A    between atoms: C_11  and  C_12
REMARK    6  A    between atoms: N_14  and  C_15
REMARK    7  A    between atoms: C_15  and  C_16
REMARK                            x       y       z     vdW  Elec       q    Type
REMARK                         _______ _______ _______ _____ _____    ______ ____
ROOT
ATOM      1  C   UNL     1       0.977  10.805  19.464  0.00  0.00    +0.000 A 
ATOM      2  C   UNL     1       1.600   9.682  18.902  0.00  0.00    +0.000 A 
ATOM      3  C   UNL     1       1.593   8.488  19.603  0.00  0.00    +0.000 A 
ATOM      4  N   UNL     1       0.996   8.373  20.803  0.00  0.00    +0.000 NA
ATOM      5  C   UNL     1       0.394   9.441  21.349  0.00  0.00    +0.000 A 
ATOM      6  C   UNL     1      -0.184   9.279  22.611  0.00  0.00    +0.000 A 
ATOM      7  C   UNL     1      -0.853  10.320  23.257  0.00  0.00    +0.000 A 
ATOM      8  C   UNL     1      -0.962  11.549  22.636  0.00  0.00    +0.000 A 
ATOM      9  C   UNL     1      -0.383  11.735  21.381  0.00  0.00    +0.000 A 
ATOM     10  C   UNL     1       0.324  10.693  20.722  0.00  0.00    +0.000 A 
ENDROOT
BRANCH   1  12
ATOM     11  O   UNL     1       0.163  12.624  18.201  0.00  0.00    +0.000 OA
ATOM     12  C   UNL     1       1.121  12.127  18.790  0.00  0.00    +0.000 C 
ATOM     13  N   UNL     1       2.345  12.778  18.857  0.00  0.00    +0.000 N 
ATOM     14  H   UNL     1       3.156  12.319  19.251  0.00  0.00    +0.000 HD
BRANCH  13  15
ATOM     15  C   UNL     1       2.516  14.034  18.183  0.00  0.00    +0.000 C 
ATOM     16  C   UNL     1       3.839  14.732  18.076  0.00  0.00    +0.000 C 
ATOM     17  C   UNL     1       2.771  15.290  18.971  0.00  0.00    +0.000 C 
ENDBRANCH  13  15
ENDBRANCH   1  12
BRANCH   3  18
ATOM     18  N   UNL     1       2.183   7.367  19.006  0.00  0.00    +0.000 N 
ATOM     19  H   UNL     1       1.469   6.772  18.587  0.00  0.00    +0.000 HD
BRANCH  18  20
ATOM     20  C   UNL     1       3.222   7.660  18.007  0.00  0.00    +0.000 C 
BRANCH  20  21
ATOM     21  C   UNL     1       3.857   6.330  17.565  0.00  0.00    +0.000 C 
ATOM     22  C   UNL     1       4.704   5.700  18.687  0.00  0.00    +0.000 C 
ATOM     23  N   UNL     1       5.269   4.382  18.301  0.00  0.00    +0.000 NA
ATOM     24  C   UNL     1       6.056   4.607  17.060  0.00  0.00    +0.000 C 
ATOM     25  C   UNL     1       5.275   5.333  15.944  0.00  0.00    +0.000 C 
ATOM     26  O   UNL     1       4.693   6.563  16.403  0.00  0.00    +0.000 OA
BRANCH  23  27
ATOM     27  C   UNL     1       4.244   3.340  18.066  0.00  0.00    +0.000 C 
BRANCH  27  28
ATOM     28  C   UNL     1       3.188   3.195  19.144  0.00  0.00    +0.000 A 
ATOM     29  C   UNL     1       1.832   3.429  18.858  0.00  0.00    +0.000 A 
ATOM     30  C   UNL     1       0.858   3.276  19.848  0.00  0.00    +0.000 A 
ATOM     31  C   UNL     1       1.223   2.857  21.125  0.00  0.00    +0.000 A 
ATOM     32  C   UNL     1       2.559   2.588  21.411  0.00  0.00    +0.000 A 
ATOM     33  C   UNL     1       3.539   2.766  20.431  0.00  0.00    +0.000 A 
ENDBRANCH  27  28
ENDBRANCH  23  27
ENDBRANCH  20  21
ENDBRANCH  18  20
ENDBRANCH   3  18
TORSDOF 7
ENDMDL
MODEL 4
REMARK VINA RESULT:      -8.3      1.801      2.357
REMARK  Name = 
REMARK  7 active torsions:
REMARK  status: ('A' for Active; 'I' for Inactive)
REMARK    1  A    between atoms: C_2  and  C_7
REMARK    2  A    between atoms: N_3  and  C_4
REMARK    3  A    between atoms: C_9  and  N_10
REMARK    4  A    between atoms: N_10  and  C_11
REMARK    5  A    between atoms: C_11  and  C_12
REMARK    6  A    between atoms: N_14  and  C_15
REMARK    7  A    between atoms: C_15  and  C_16
REMARK                            x       y       z     vdW  Elec       q    Type
REMARK                         _______ _______ _______ _____ _____    ______ ____
ROOT
ATOM      1  C   UNL     1       0.482  10.937  19.102  0.00  0.00    +0.000 A 
ATOM      2  C   UNL     1       1.173  10.157  18.165  0.00  0.00    +0.000 A 
ATOM      3  C   UNL     1       1.688   8.933  18.557  0.00  0.00    +0.000 A 
ATOM      4  N   UNL     1       1.531   8.467  19.810  0.00  0.00    +0.000 NA
ATOM      5  C   UNL     1       0.868   9.203  20.714  0.00  0.00    +0.000 A 
ATOM      6  C   UNL     1       0.760   8.689  22.009  0.00  0.00    +0.000 A 
ATOM      7  C   UNL     1       0.073   9.365  23.018  0.00  0.00    +0.000 A 
ATOM      8  C   UNL     1      -0.532  10.575  22.738  0.00  0.00    +0.000 A 
ATOM      9  C   UNL     1      -0.427  11.111  21.454  0.00  0.00    +0.000 A 
ATOM     10  C   UNL     1       0.292  10.448  20.424  0.00  0.00    +0.000 A 
ENDROOT
BRANCH   1  12
ATOM     11  O   UNL     1      -0.992  12.507  18.139  0.00  0.00    +0.000 OA
ATOM     12  C   UNL     1       0.069  12.321  18.731  0.00  0.00    +0.000 C 
ATOM     13  N   UNL     1       0.898  13.379  19.079  0.00  0.00    +0.000 N 
ATOM     14  H   UNL     1       1.816  13.212  19.470  0.00  0.00    +0.000 HD
BRANCH  13  15
ATOM     15  C   UNL     1       0.538  14.714  18.697  0.00  0.00    +0.000 C 
ATOM     16  C   UNL     1       1.473  15.881  18.818  0.00  0.00    +0.000 C 
ATOM     17  C   UNL     1       0.299  15.766  19.747  0.00  0.00    +0.000 C 
ENDBRANCH  13  15
ENDBRANCH   1  12
BRANCH   3  18
ATOM     18  N   UNL     1       2.338   8.150  17.596  0.00  0.00    +0.000 N 
ATOM     19  H   UNL     1       2.228   8.562  16.670  0.00  0.00    +0.000 HD
BRANCH  18  20
ATOM     20  C   UNL     1       3.766   7.899  17.850  0.00  0.00    +0.000 C 
BRANCH  20  21
ATOM     21  C   UNL     1       4.099   6.476  17.371  0.00  0.00    +0.000 C 
ATOM     22  C   UNL     1       4.834   5.664  18.455  0.00  0.00    +0.000 C 
ATOM     23  N   UNL     1       5.104   4.267  18.033  0.00  0.00    +0.000 NA
ATOM     24  C   UNL     1       5.881   4.349  16.769  0.00  0.00    +0.000 C 
ATOM     25  C   UNL     1       5.231   5.241  15.689  0.00  0.00    +0.000 C 
ATOM     26  O   UNL     1       4.929   6.555  16.183  0.00  0.00    +0.000 OA
BRANCH  23  27
ATOM     27  C   UNL     1       3.879   3.461  17.821  0.00  0.00    +0.000 C 
BRANCH  27  28
ATOM     28  C   UNL     1       2.973   3.307  19.026  0.00  0.00    +0.000 A 
ATOM     29  C   UNL     1       3.453   2.742  20.220  0.00  0.00    +0.000 A 
ATOM     30  C   UNL     1       2.623   2.619  21.336  0.00  0.00    +0.000 A 
ATOM     31  C   UNL     1       1.311   3.086  21.283  0.00  0.00    +0.000 A 
ATOM     32  C   UNL     1       0.834   3.681  20.118  0.00  0.00    +0.000 A 
ATOM     33  C   UNL     1       1.655   3.781  18.991  0.00  0.00    +0.000 A 
ENDBRANCH  27  28
ENDBRANCH  23  27
ENDBRANCH  20  21
ENDBRANCH  18  20
ENDBRANCH   3  18
TORSDOF 7
ENDMDL
MODEL 5
REMARK VINA RESULT:      -8.2      1.754      8.550
REMARK  Name = 
REMARK  7 active torsions:
REMARK  status: ('A' for Active; 'I' for Inactive)
REMARK    1  A    between atoms: C_2  and  C_7
REMARK    2  A    between atoms: N_3  and  C_4
REMARK    3  A    between atoms: C_9  and  N_10
REMARK    4  A    between atoms: N_10  and  C_11
REMARK    5  A    between atoms: C_11  and  C_12
REMARK    6  A    between atoms: N_14  and  C_15
REMARK    7  A    between atoms: C_15  and  C_16
REMARK                            x       y       z     vdW  Elec       q    Type
REMARK                         _______ _______ _______ _____ _____    ______ ____
ROOT
ATOM      1  C   UNL     1       3.157   5.954  18.579  0.00  0.00    +0.000 A 
ATOM      2  C   UNL     1       2.818   7.025  19.419  0.00  0.00    +0.000 A 
ATOM      3  C   UNL     1       1.883   6.824  20.420  0.00  0.00    +0.000 A 
ATOM      4  N   UNL     1       1.300   5.627  20.616  0.00  0.00    +0.000 NA
ATOM      5  C   UNL     1       1.619   4.595  19.821  0.00  0.00    +0.000 A 
ATOM      6  C   UNL     1       0.963   3.382  20.045  0.00  0.00    +0.000 A 
ATOM      7  C   UNL     1       1.237   2.242  19.289  0.00  0.00    +0.000 A 
ATOM      8  C   UNL     1       2.192   2.299  18.291  0.00  0.00    +0.000 A 
ATOM      9  C   UNL     1       2.851   3.503  18.044  0.00  0.00    +0.000 A 
ATOM     10  C   UNL     1       2.563   4.679  18.788  0.00  0.00    +0.000 A 
ENDROOT
BRANCH   1  12
ATOM     11  O   UNL     1       4.134   7.342  16.941  0.00  0.00    +0.000 OA
ATOM     12  C   UNL     1       4.038   6.207  17.403  0.00  0.00    +0.000 C 
ATOM     13  N   UNL     1       4.746   5.143  16.861  0.00  0.00    +0.000 N 
ATOM     14  H   UNL     1       4.584   4.196  17.178  0.00  0.00    +0.000 HD
BRANCH  13  15
ATOM     15  C   UNL     1       5.570   5.358  15.706  0.00  0.00    +0.000 C 
ATOM     16  C   UNL     1       5.675   4.372  14.580  0.00  0.00    +0.000 C 
ATOM     17  C   UNL     1       6.833   4.562  15.515  0.00  0.00    +0.000 C 
ENDBRANCH  13  15
ENDBRANCH   1  12
BRANCH   3  18
ATOM     18  N   UNL     1       1.589   7.893  21.275  0.00  0.00    +0.000 N 
ATOM     19  H   UNL     1       2.166   8.701  21.042  0.00  0.00    +0.000 HD
BRANCH  18  20
ATOM     20  C   UNL     1       0.175   8.298  21.314  0.00  0.00    +0.000 C 
BRANCH  20  21
ATOM     21  C   UNL     1       0.081   9.767  20.869  0.00  0.00    +0.000 C 
ATOM     22  C   UNL     1       0.157   9.908  19.336  0.00  0.00    +0.000 C 
ATOM     23  N   UNL     1      -0.001  11.314  18.887  0.00  0.00    +0.000 NA
ATOM     24  C   UNL     1       1.055  12.099  19.576  0.00  0.00    +0.000 C 
ATOM     25  C   UNL     1       1.083  11.906  21.108  0.00  0.00    +0.000 C 
ATOM     26  O   UNL     1       1.162  10.519  21.476  0.00  0.00    +0.000 OA
BRANCH  23  27
ATOM     27  C   UNL     1      -1.333  11.889  19.184  0.00  0.00    +0.000 C 
BRANCH  27  28
ATOM     28  C   UNL     1      -2.415  11.616  18.157  0.00  0.00    +0.000 A 
ATOM     29  C   UNL     1      -2.083  11.229  16.848  0.00  0.00    +0.000 A 
ATOM     30  C   UNL     1      -3.081  10.958  15.909  0.00  0.00    +0.000 A 
ATOM     31  C   UNL     1      -4.423  11.040  16.275  0.00  0.00    +0.000 A 
ATOM     32  C   UNL     1      -4.765  11.387  17.580  0.00  0.00    +0.000 A 
ATOM     33  C   UNL     1      -3.769  11.685  18.514  0.00  0.00    +0.000 A 
ENDBRANCH  27  28
ENDBRANCH  23  27
ENDBRANCH  20  21
ENDBRANCH  18  20
ENDBRANCH   3  18
TORSDOF 7
ENDMDL
MODEL 6
REMARK VINA RESULT:      -8.2      0.882      1.296
REMARK  Name = 
REMARK  7 active torsions:
REMARK  status: ('A' for Active; 'I' for Inactive)
REMARK    1  A    between atoms: C_2  and  C_7
REMARK    2  A    between atoms: N_3  and  C_4
REMARK    3  A    between atoms: C_9  and  N_10
REMARK    4  A    between atoms: N_10  and  C_11
REMARK    5  A    between atoms: C_11  and  C_12
REMARK    6  A    between atoms: N_14  and  C_15
REMARK    7  A    between atoms: C_15  and  C_16
REMARK                            x       y       z     vdW  Elec       q    Type
REMARK                         _______ _______ _______ _____ _____    ______ ____
ROOT
ATOM      1  C   UNL     1       0.062   9.836  18.710  0.00  0.00    +0.000 A 
ATOM      2  C   UNL     1       0.907   9.055  17.909  0.00  0.00    +0.000 A 
ATOM      3  C   UNL     1       1.840   8.232  18.518  0.00  0.00    +0.000 A 
ATOM      4  N   UNL     1       1.949   8.153  19.857  0.00  0.00    +0.000 NA
ATOM      5  C   UNL     1       1.144   8.893  20.634  0.00  0.00    +0.000 A 
ATOM      6  C   UNL     1       1.318   8.800  22.016  0.00  0.00    +0.000 A 
ATOM      7  C   UNL     1       0.519   9.511  22.912  0.00  0.00    +0.000 A 
ATOM      8  C   UNL     1      -0.486  10.328  22.430  0.00  0.00    +0.000 A 
ATOM      9  C   UNL     1      -0.670  10.444  21.052  0.00  0.00    +0.000 A 
ATOM     10  C   UNL     1       0.154   9.747  20.127  0.00  0.00    +0.000 A 
ENDROOT
BRANCH   1  12
ATOM     11  O   UNL     1      -0.734  12.028  18.359  0.00  0.00    +0.000 OA
ATOM     12  C   UNL     1      -0.828  10.839  18.061  0.00  0.00    +0.000 C 
ATOM     13  N   UNL     1      -1.744  10.402  17.113  0.00  0.00    +0.000 N 
ATOM     14  H   UNL     1      -1.889   9.415  16.948  0.00  0.00    +0.000 HD
BRANCH  13  15
ATOM     15  C   UNL     1      -2.635  11.347  16.503  0.00  0.00    +0.000 C 
ATOM     16  C   UNL     1      -4.128  11.252  16.612  0.00  0.00    +0.000 C 
ATOM     17  C   UNL     1      -3.455  10.953  15.304  0.00  0.00    +0.000 C 
ENDBRANCH  13  15
ENDBRANCH   1  12
BRANCH   3  18
ATOM     18  N   UNL     1       2.646   7.428  17.703  0.00  0.00    +0.000 N 
ATOM     19  H   UNL     1       2.364   7.519  16.727  0.00  0.00    +0.000 HD
BRANCH  18  20
ATOM     20  C   UNL     1       4.093   7.669  17.816  0.00  0.00    +0.000 C 
BRANCH  20  21
ATOM     21  C   UNL     1       4.823   6.330  17.610  0.00  0.00    +0.000 C 
ATOM     22  C   UNL     1       5.177   5.660  18.952  0.00  0.00    +0.000 C 
ATOM     23  N   UNL     1       5.822   4.334  18.771  0.00  0.00    +0.000 NA
ATOM     24  C   UNL     1       7.020   4.559  17.921  0.00  0.00    +0.000 C 
ATOM     25  C   UNL     1       6.727   5.324  16.612  0.00  0.00    +0.000 C 
ATOM     26  O   UNL     1       6.038   6.561  16.852  0.00  0.00    +0.000 OA
BRANCH  23  27
ATOM     27  C   UNL     1       4.940   3.323  18.144  0.00  0.00    +0.000 C 
BRANCH  27  28
ATOM     28  C   UNL     1       3.542   3.217  18.719  0.00  0.00    +0.000 A 
ATOM     29  C   UNL     1       2.416   3.498  17.926  0.00  0.00    +0.000 A 
ATOM     30  C   UNL     1       1.126   3.380  18.451  0.00  0.00    +0.000 A 
ATOM     31  C   UNL     1       0.946   2.951  19.764  0.00  0.00    +0.000 A 
ATOM     32  C   UNL     1       2.052   2.635  20.549  0.00  0.00    +0.000 A 
ATOM     33  C   UNL     1       3.344   2.778  20.035  0.00  0.00    +0.000 A 
ENDBRANCH  27  28
ENDBRANCH  23  27
ENDBRANCH  20  21
ENDBRANCH  18  20
ENDBRANCH   3  18
TORSDOF 7
ENDMDL
MODEL 7
REMARK VINA RESULT:      -8.2      2.276      8.916
REMARK  Name = 
REMARK  7 active torsions:
REMARK  status: ('A' for Active; 'I' for Inactive)
REMARK    1  A    between atoms: C_2  and  C_7
REMARK    2  A    between atoms: N_3  and  C_4
REMARK    3  A    between atoms: C_9  and  N_10
REMARK    4  A    between atoms: N_10  and  C_11
REMARK    5  A    between atoms: C_11  and  C_12
REMARK    6  A    between atoms: N_14  and  C_15
REMARK    7  A    between atoms: C_15  and  C_16
REMARK                            x       y       z     vdW  Elec       q    Type
REMARK                         _______ _______ _______ _____ _____    ______ ____
ROOT
ATOM      1  C   UNL     1       4.355   5.731  17.885  0.00  0.00    +0.000 A 
ATOM      2  C   UNL     1       3.968   7.035  17.546  0.00  0.00    +0.000 A 
ATOM      3  C   UNL     1       2.886   7.606  18.196  0.00  0.00    +0.000 A 
ATOM      4  N   UNL     1       2.204   6.947  19.151  0.00  0.00    +0.000 NA
ATOM      5  C   UNL     1       2.568   5.699  19.486  0.00  0.00    +0.000 A 
ATOM      6  C   UNL     1       1.809   5.047  20.460  0.00  0.00    +0.000 A 
ATOM      7  C   UNL     1       2.116   3.757  20.895  0.00  0.00    +0.000 A 
ATOM      8  C   UNL     1       3.207   3.098  20.361  0.00  0.00    +0.000 A 
ATOM      9  C   UNL     1       3.972   3.728  19.378  0.00  0.00    +0.000 A 
ATOM     10  C   UNL     1       3.656   5.031  18.906  0.00  0.00    +0.000 A 
ENDROOT
BRANCH   1  12
ATOM     11  O   UNL     1       6.555   4.961  17.521  0.00  0.00    +0.000 OA
ATOM     12  C   UNL     1       5.411   5.056  17.078  0.00  0.00    +0.000 C 
ATOM     13  N   UNL     1       5.070   4.534  15.838  0.00  0.00    +0.000 N 
ATOM     14  H   UNL     1       4.159   4.707  15.435  0.00  0.00    +0.000 HD
BRANCH  13  15
ATOM     15  C   UNL     1       6.081   3.914  15.030  0.00  0.00    +0.000 C 
ATOM     16  C   UNL     1       6.971   4.682  14.098  0.00  0.00    +0.000 C 
ATOM     17  C   UNL     1       5.896   3.794  13.541  0.00  0.00    +0.000 C 
ENDBRANCH  13  15
ENDBRANCH   1  12
BRANCH   3  18
ATOM     18  N   UNL     1       2.541   8.924  17.874  0.00  0.00    +0.000 N 
ATOM     19  H   UNL     1       2.902   9.169  16.953  0.00  0.00    +0.000 HD
BRANCH  18  20
ATOM     20  C   UNL     1       1.103   9.229  17.931  0.00  0.00    +0.000 C 
BRANCH  20  21
ATOM     21  C   UNL     1       0.912  10.502  18.774  0.00  0.00    +0.000 C 
ATOM     22  C   UNL     1      -0.489  11.114  18.578  0.00  0.00    +0.000 C 
ATOM     23  N   UNL     1      -0.714  12.305  19.435  0.00  0.00    +0.000 NA
ATOM     24  C   UNL     1       0.371  13.268  19.114  0.00  0.00    +0.000 C 
ATOM     25  C   UNL     1       1.791  12.666  19.196  0.00  0.00    +0.000 C 
ATOM     26  O   UNL     1       1.920  11.476  18.402  0.00  0.00    +0.000 OA
BRANCH  23  27
ATOM     27  C   UNL     1      -0.709  12.004  20.885  0.00  0.00    +0.000 C 
BRANCH  27  28
ATOM     28  C   UNL     1      -1.990  12.321  21.631  0.00  0.00    +0.000 A 
ATOM     29  C   UNL     1      -3.115  12.816  20.949  0.00  0.00    +0.000 A 
ATOM     30  C   UNL     1      -4.302  13.088  21.633  0.00  0.00    +0.000 A 
ATOM     31  C   UNL     1      -4.389  12.840  23.002  0.00  0.00    +0.000 A 
ATOM     32  C   UNL     1      -3.293  12.316  23.682  0.00  0.00    +0.000 A 
ATOM     33  C   UNL     1      -2.096  12.068  23.005  0.00  0.00    +0.000 A 
ENDBRANCH  27  28
ENDBRANCH  23  27
ENDBRANCH  20  21
ENDBRANCH  18  20
ENDBRANCH   3  18
TORSDOF 7
ENDMDL
MODEL 8
REMARK VINA RESULT:      -8.2      2.314      8.685
REMARK  Name = 
REMARK  7 active torsions:
REMARK  status: ('A' for Active; 'I' for Inactive)
REMARK    1  A    between atoms: C_2  and  C_7
REMARK    2  A    between atoms: N_3  and  C_4
REMARK    3  A    between atoms: C_9  and  N_10
REMARK    4  A    between atoms: N_10  and  C_11
REMARK    5  A    between atoms: C_11  and  C_12
REMARK    6  A    between atoms: N_14  and  C_15
REMARK    7  A    between atoms: C_15  and  C_16
REMARK                            x       y       z     vdW  Elec       q    Type
REMARK                         _______ _______ _______ _____ _____    ______ ____
ROOT
ATOM      1  C   UNL     1       4.249   5.710  17.987  0.00  0.00    +0.000 A 
ATOM      2  C   UNL     1       3.882   7.004  17.590  0.00  0.00    +0.000 A 
ATOM      3  C   UNL     1       2.800   7.614  18.202  0.00  0.00    +0.000 A 
ATOM      4  N   UNL     1       2.098   7.004  19.174  0.00  0.00    +0.000 NA
ATOM      5  C   UNL     1       2.441   5.767  19.564  0.00  0.00    +0.000 A 
ATOM      6  C   UNL     1       1.662   5.164  20.554  0.00  0.00    +0.000 A 
ATOM      7  C   UNL     1       1.946   3.890  21.045  0.00  0.00    +0.000 A 
ATOM      8  C   UNL     1       3.035   3.196  20.553  0.00  0.00    +0.000 A 
ATOM      9  C   UNL     1       3.821   3.776  19.556  0.00  0.00    +0.000 A 
ATOM     10  C   UNL     1       3.528   5.061  19.027  0.00  0.00    +0.000 A 
ENDROOT
BRANCH   1  12
ATOM     11  O   UNL     1       6.385   4.737  17.756  0.00  0.00    +0.000 OA
ATOM     12  C   UNL     1       5.306   4.990  17.222  0.00  0.00    +0.000 C 
ATOM     13  N   UNL     1       5.039   4.606  15.915  0.00  0.00    +0.000 N 
ATOM     14  H   UNL     1       4.193   4.907  15.449  0.00  0.00    +0.000 HD
BRANCH  13  15
ATOM     15  C   UNL     1       6.057   3.945  15.150  0.00  0.00    +0.000 C 
ATOM     16  C   UNL     1       7.048   4.680  14.298  0.00  0.00    +0.000 C 
ATOM     17  C   UNL     1       5.957   3.879  13.650  0.00  0.00    +0.000 C 
ENDBRANCH  13  15
ENDBRANCH   1  12
BRANCH   3  18
ATOM     18  N   UNL     1       2.476   8.922  17.822  0.00  0.00    +0.000 N 
ATOM     19  H   UNL     1       2.499   9.012  16.806  0.00  0.00    +0.000 HD
BRANCH  18  20
ATOM     20  C   UNL     1       1.188   9.423  18.326  0.00  0.00    +0.000 C 
BRANCH  20  21
ATOM     21  C   UNL     1       1.388  10.868  18.814  0.00  0.00    +0.000 C 
ATOM     22  C   UNL     1       0.076  11.675  18.768  0.00  0.00    +0.000 C 
ATOM     23  N   UNL     1       0.238  13.052  19.299  0.00  0.00    +0.000 NA
ATOM     24  C   UNL     1       1.318  13.689  18.502  0.00  0.00    +0.000 C 
ATOM     25  C   UNL     1       2.620  12.862  18.434  0.00  0.00    +0.000 C 
ATOM     26  O   UNL     1       2.383  11.518  17.983  0.00  0.00    +0.000 OA
BRANCH  23  27
ATOM     27  C   UNL     1       0.579  13.099  20.740  0.00  0.00    +0.000 C 
BRANCH  27  28
ATOM     28  C   UNL     1      -0.540  12.737  21.696  0.00  0.00    +0.000 A 
ATOM     29  C   UNL     1      -1.607  13.622  21.923  0.00  0.00    +0.000 A 
ATOM     30  C   UNL     1      -2.648  13.279  22.789  0.00  0.00    +0.000 A 
ATOM     31  C   UNL     1      -2.651  12.034  23.415  0.00  0.00    +0.000 A 
ATOM     32  C   UNL     1      -1.618  11.133  23.170  0.00  0.00    +0.000 A 
ATOM     33  C   UNL     1      -0.562  11.484  22.325  0.00  0.00    +0.000 A 
ENDBRANCH  27  28
ENDBRANCH  23  27
ENDBRANCH  20  21
ENDBRANCH  18  20
ENDBRANCH   3  18
TORSDOF 7
ENDMDL
MODEL 9
REMARK VINA RESULT:      -8.1      1.818      8.601
REMARK  Name = 
REMARK  7 active torsions:
REMARK  status: ('A' for Active; 'I' for Inactive)
REMARK    1  A    between atoms: C_2  and  C_7
REMARK    2  A    between atoms: N_3  and  C_4
REMARK    3  A    between atoms: C_9  and  N_10
REMARK    4  A    between atoms: N_10  and  C_11
REMARK    5  A    between atoms: C_11  and  C_12
REMARK    6  A    between atoms: N_14  and  C_15
REMARK    7  A    between atoms: C_15  and  C_16
REMARK                            x       y       z     vdW  Elec       q    Type
REMARK                         _______ _______ _______ _____ _____    ______ ____
ROOT
ATOM      1  C   UNL     1       3.329   5.633  18.609  0.00  0.00    +0.000 A 
ATOM      2  C   UNL     1       2.766   6.656  19.384  0.00  0.00    +0.000 A 
ATOM      3  C   UNL     1       1.774   6.340  20.297  0.00  0.00    +0.000 A 
ATOM      4  N   UNL     1       1.344   5.077  20.467  0.00  0.00    +0.000 NA
ATOM      5  C   UNL     1       1.878   4.089  19.733  0.00  0.00    +0.000 A 
ATOM      6  C   UNL     1       1.375   2.800  19.925  0.00  0.00    +0.000 A 
ATOM      7  C   UNL     1       1.875   1.700  19.228  0.00  0.00    +0.000 A 
ATOM      8  C   UNL     1       2.907   1.875  18.325  0.00  0.00    +0.000 A 
ATOM      9  C   UNL     1       3.416   3.157  18.111  0.00  0.00    +0.000 A 
ATOM     10  C   UNL     1       2.898   4.290  18.793  0.00  0.00    +0.000 A 
ENDROOT
BRANCH   1  12
ATOM     11  O   UNL     1       4.800   7.103  17.496  0.00  0.00    +0.000 OA
ATOM     12  C   UNL     1       4.278   5.990  17.516  0.00  0.00    +0.000 C 
ATOM     13  N   UNL     1       4.563   5.041  16.544  0.00  0.00    +0.000 N 
ATOM     14  H   UNL     1       4.053   4.168  16.506  0.00  0.00    +0.000 HD
BRANCH  13  15
ATOM     15  C   UNL     1       5.444   5.377  15.463  0.00  0.00    +0.000 C 
ATOM     16  C   UNL     1       5.723   4.453  14.315  0.00  0.00    +0.000 C 
ATOM     17  C   UNL     1       6.787   4.710  15.342  0.00  0.00    +0.000 C 
ENDBRANCH  13  15
ENDBRANCH   1  12
BRANCH   3  18
ATOM     18  N   UNL     1       1.254   7.369  21.091  0.00  0.00    +0.000 N 
ATOM     19  H   UNL     1       1.265   7.096  22.074  0.00  0.00    +0.000 HD
BRANCH  18  20
ATOM     20  C   UNL     1       1.913   8.675  20.940  0.00  0.00    +0.000 C 
BRANCH  20  21
ATOM     21  C   UNL     1       0.827   9.744  20.731  0.00  0.00    +0.000 C 
ATOM     22  C   UNL     1       0.825  10.283  19.287  0.00  0.00    +0.000 C 
ATOM     23  N   UNL     1      -0.261  11.266  19.050  0.00  0.00    +0.000 NA
ATOM     24  C   UNL     1      -0.080  12.347  20.053  0.00  0.00    +0.000 C 
ATOM     25  C   UNL     1       0.032  11.841  21.508  0.00  0.00    +0.000 C 
ATOM     26  O   UNL     1       1.052  10.840  21.654  0.00  0.00    +0.000 OA
BRANCH  23  27
ATOM     27  C   UNL     1      -1.621  10.692  19.166  0.00  0.00    +0.000 C 
BRANCH  27  28
ATOM     28  C   UNL     1      -2.436  10.658  17.888  0.00  0.00    +0.000 A 
ATOM     29  C   UNL     1      -3.612  11.416  17.765  0.00  0.00    +0.000 A 
ATOM     30  C   UNL     1      -4.351  11.400  16.580  0.00  0.00    +0.000 A 
ATOM     31  C   UNL     1      -3.907  10.649  15.493  0.00  0.00    +0.000 A 
ATOM     32  C   UNL     1      -2.724   9.922  15.590  0.00  0.00    +0.000 A 
ATOM     33  C   UNL     1      -1.997   9.915  16.784  0.00  0.00    +0.000 A 
ENDBRANCH  27  28
ENDBRANCH  23  27
ENDBRANCH  20  21
ENDBRANCH  18  20
ENDBRANCH   3  18
TORSDOF 7
ENDMDL
