MODEL 1
REMARK VINA RESULT:      -9.2      0.000      0.000
REMARK  Name = 
REMARK  6 active torsions:
REMARK  status: ('A' for Active; 'I' for Inactive)
REMARK    1  A    between atoms: C_2  and  C_24
REMARK    2  A    between atoms: N_3  and  C_4
REMARK    3  A    between atoms: C_9  and  C_10
REMARK    4  A    between atoms: N_12  and  C_13
REMARK    5  A    between atoms: C_13  and  C_14
REMARK    6  A    between atoms: C_14  and  C_15
REMARK                            x       y       z     vdW  Elec       q    Type
REMARK                         _______ _______ _______ _____ _____    ______ ____
ROOT
ATOM      1  C   UNL     1       5.383   4.885  15.903  0.00  0.00    +0.000 A 
ATOM      2  C   UNL     1       5.161   4.234  14.678  0.00  0.00    +0.000 A 
ATOM      3  C   UNL     1       6.160   4.176  13.698  0.00  0.00    +0.000 A 
ATOM      4  C   UNL     1       7.386   4.768  13.913  0.00  0.00    +0.000 A 
ATOM      5  C   UNL     1       7.618   5.445  15.114  0.00  0.00    +0.000 A 
ATOM      6  C   UNL     1       6.613   5.542  16.096  0.00  0.00    +0.000 A 
ENDROOT
BRANCH   1   9
ATOM      7  O   UNL     1       4.055   2.602  17.272  0.00  0.00    +0.000 OA
ATOM      8  C   UNL     1       3.800   3.778  17.509  0.00  0.00    +0.000 C 
ATOM      9  N   UNL     1       4.389   4.892  16.924  0.00  0.00    +0.000 N 
ATOM     10  H   UNL     1       4.235   5.795  17.376  0.00  0.00    +0.000 HD
BRANCH   8  11
ATOM     11  C   UNL     1       2.794   4.054  18.552  0.00  0.00    +0.000 A 
ATOM     12  C   UNL     1       2.931   5.239  19.303  0.00  0.00    +0.000 A 
ATOM     13  C   UNL     1       2.037   5.513  20.337  0.00  0.00    +0.000 A 
ATOM     14  C   UNL     1       1.023   4.607  20.640  0.00  0.00    +0.000 A 
ATOM     15  C   UNL     1       0.896   3.418  19.907  0.00  0.00    +0.000 A 
ATOM     16  C   UNL     1       1.784   3.137  18.869  0.00  0.00    +0.000 A 
ENDBRANCH   8  11
ENDBRANCH   1   9
BRANCH   6  17
ATOM     17  C   UNL     1       6.932   6.300  17.356  0.00  0.00    +0.000 C 
ATOM     18  O   UNL     1       6.596   5.864  18.434  0.00  0.00    +0.000 OA
ATOM     19  N   UNL     1       7.598   7.496  17.174  0.00  0.00    +0.000 N 
ATOM     20  H   UNL     1       7.655   7.899  16.249  0.00  0.00    +0.000 HD
BRANCH  19  21
ATOM     21  C   UNL     1       8.159   8.281  18.259  0.00  0.00    +0.000 C 
BRANCH  21  22
ATOM     22  C   UNL     1       8.490   9.712  17.814  0.00  0.00    +0.000 C 
BRANCH  22  23
ATOM     23  C   UNL     1       9.288  10.435  18.847  0.00  0.00    +0.000 A 
ATOM     24  C   UNL     1       9.012  10.442  20.202  0.00  0.00    +0.000 A 
ATOM     25  N   UNL     1      10.042  11.112  20.796  0.00  0.00    +0.000 N 
ATOM     26  C   UNL     1      10.579  11.977  19.877  0.00  0.00    +0.000 A 
ATOM     27  C   UNL     1      11.254  13.190  20.025  0.00  0.00    +0.000 A 
ATOM     28  C   UNL     1      11.806  13.745  18.868  0.00  0.00    +0.000 A 
ATOM     29  C   UNL     1      11.798  13.041  17.664  0.00  0.00    +0.000 A 
ATOM     30  C   UNL     1      11.094  11.835  17.537  0.00  0.00    +0.000 A 
ATOM     31  C   UNL     1      10.365  11.365  18.645  0.00  0.00    +0.000 A 
ATOM     32  H   UNL     1      10.384  10.963  21.734  0.00  0.00    +0.000 HD
ENDBRANCH  22  23
ENDBRANCH  21  22
ENDBRANCH  19  21
ENDBRANCH   6  17
TORSDOF 6
ENDMDL
MODEL 2
REMARK VINA RESULT:      -9.0      0.897      1.219
REMARK  Name = 
REMARK  6 active torsions:
REMARK  status: ('A' for Active; 'I' for Inactive)
REMARK    1  A    between atoms: C_2  and  C_24
REMARK    2  A    between atoms: N_3  and  C_4
REMARK    3  A    between atoms: C_9  and  C_10
REMARK    4  A    between atoms: N_12  and  C_13
REMARK    5  A    between atoms: C_13  and  C_14
REMARK    6  A    between atoms: C_14  and  C_15
REMARK                            x       y       z     vdW  Elec       q    Type
REMARK                         _______ _______ _______ _____ _____    ______ ____
ROOT
ATOM      1  C   UNL     1       5.588   4.565  15.885  0.00  0.00    +0.000 A 
ATOM      2  C   UNL     1       5.319   3.992  14.631  0.00  0.00    +0.000 A 
ATOM      3  C   UNL     1       6.227   4.112  13.572  0.00  0.00    +0.000 A 
ATOM      4  C   UNL     1       7.406   4.806  13.736  0.00  0.00    +0.000 A 
ATOM      5  C   UNL     1       7.681   5.408  14.968  0.00  0.00    +0.000 A 
ATOM      6  C   UNL     1       6.763   5.325  16.033  0.00  0.00    +0.000 A 
ENDROOT
BRANCH   1   9
ATOM      7  O   UNL     1       3.652   6.486  17.073  0.00  0.00    +0.000 OA
ATOM      8  C   UNL     1       3.823   5.347  17.493  0.00  0.00    +0.000 C 
ATOM      9  N   UNL     1       4.693   4.392  16.981  0.00  0.00    +0.000 N 
ATOM     10  H   UNL     1       4.566   3.427  17.292  0.00  0.00    +0.000 HD
BRANCH   8  11
ATOM     11  C   UNL     1       2.994   4.917  18.635  0.00  0.00    +0.000 A 
ATOM     12  C   UNL     1       1.893   4.077  18.371  0.00  0.00    +0.000 A 
ATOM     13  C   UNL     1       1.049   3.691  19.411  0.00  0.00    +0.000 A 
ATOM     14  C   UNL     1       1.282   4.154  20.705  0.00  0.00    +0.000 A 
ATOM     15  C   UNL     1       2.364   5.004  20.967  0.00  0.00    +0.000 A 
ATOM     16  C   UNL     1       3.216   5.392  19.933  0.00  0.00    +0.000 A 
ENDBRANCH   8  11
ENDBRANCH   1   9
BRANCH   6  17
ATOM     17  C   UNL     1       7.121   6.012  17.324  0.00  0.00    +0.000 C 
ATOM     18  O   UNL     1       6.989   5.436  18.380  0.00  0.00    +0.000 OA
ATOM     19  N   UNL     1       7.576   7.310  17.196  0.00  0.00    +0.000 N 
ATOM     20  H   UNL     1       7.457   7.795  16.319  0.00  0.00    +0.000 HD
BRANCH  19  21
ATOM     21  C   UNL     1       8.145   8.076  18.291  0.00  0.00    +0.000 C 
BRANCH  21  22
ATOM     22  C   UNL     1       8.310   9.557  17.922  0.00  0.00    +0.000 C 
BRANCH  22  23
ATOM     23  C   UNL     1       9.143  10.281  18.927  0.00  0.00    +0.000 A 
ATOM     24  C   UNL     1       8.909  10.294  20.289  0.00  0.00    +0.000 A 
ATOM     25  N   UNL     1       9.960  10.962  20.848  0.00  0.00    +0.000 N 
ATOM     26  C   UNL     1      10.471  11.823  19.910  0.00  0.00    +0.000 A 
ATOM     27  C   UNL     1      11.154  13.034  20.032  0.00  0.00    +0.000 A 
ATOM     28  C   UNL     1      11.670  13.583  18.857  0.00  0.00    +0.000 A 
ATOM     29  C   UNL     1      11.622  12.875  17.656  0.00  0.00    +0.000 A 
ATOM     30  C   UNL     1      10.910  11.671  17.555  0.00  0.00    +0.000 A 
ATOM     31  C   UNL     1      10.215  11.206  18.687  0.00  0.00    +0.000 A 
ATOM     32  H   UNL     1      10.331  10.815  21.776  0.00  0.00    +0.000 HD
ENDBRANCH  22  23
ENDBRANCH  21  22
ENDBRANCH  19  21
ENDBRANCH   6  17
TORSDOF 6
ENDMDL
MODEL 3
REMARK VINA RESULT:      -8.9      1.781      2.184
REMARK  Name = 
REMARK  6 active torsions:
REMARK  status: ('A' for Active; 'I' for Inactive)
REMARK    1  A    between atoms: C_2  and  C_24
REMARK    2  A    between atoms: N_3  and  C_4
REMARK    3  A    between atoms: C_9  and  C_10
REMARK    4  A    between atoms: N_12  and  C_13
REMARK    5  A    between atoms: C_13  and  C_14
REMARK    6  A    between atoms: C_14  and  C_15
REMARK                            x       y       z     vdW  Elec       q    Type
REMARK                         _______ _______ _______ _____ _____    ______ ____
ROOT
ATOM      1  C   UNL     1       5.289   5.959  16.193  0.00  0.00    +0.000 A 
ATOM      2  C   UNL     1       4.882   5.261  15.044  0.00  0.00    +0.000 A 
ATOM      3  C   UNL     1       5.776   4.447  14.338  0.00  0.00    +0.000 A 
ATOM      4  C   UNL     1       7.084   4.320  14.753  0.00  0.00    +0.000 A 
ATOM      5  C   UNL     1       7.517   5.028  15.878  0.00  0.00    +0.000 A 
ATOM      6  C   UNL     1       6.640   5.877  16.580  0.00  0.00    +0.000 A 
ENDROOT
BRANCH   1   9
ATOM      7  O   UNL     1       3.235   5.089  18.162  0.00  0.00    +0.000 OA
ATOM      8  C   UNL     1       3.417   6.259  17.842  0.00  0.00    +0.000 C 
ATOM      9  N   UNL     1       4.365   6.739  16.946  0.00  0.00    +0.000 N 
ATOM     10  H   UNL     1       4.544   7.745  16.949  0.00  0.00    +0.000 HD
BRANCH   8  11
ATOM     11  C   UNL     1       2.578   7.277  18.501  0.00  0.00    +0.000 A 
ATOM     12  C   UNL     1       2.234   8.428  17.761  0.00  0.00    +0.000 A 
ATOM     13  C   UNL     1       1.491   9.442  18.361  0.00  0.00    +0.000 A 
ATOM     14  C   UNL     1       1.106   9.328  19.696  0.00  0.00    +0.000 A 
ATOM     15  C   UNL     1       1.463   8.195  20.439  0.00  0.00    +0.000 A 
ATOM     16  C   UNL     1       2.204   7.173  19.846  0.00  0.00    +0.000 A 
ENDBRANCH   8  11
ENDBRANCH   1   9
BRANCH   6  17
ATOM     17  C   UNL     1       7.183   6.619  17.771  0.00  0.00    +0.000 C 
ATOM     18  O   UNL     1       7.192   6.098  18.864  0.00  0.00    +0.000 OA
ATOM     19  N   UNL     1       7.631   7.900  17.516  0.00  0.00    +0.000 N 
ATOM     20  H   UNL     1       7.397   8.344  16.640  0.00  0.00    +0.000 HD
BRANCH  19  21
ATOM     21  C   UNL     1       8.357   8.708  18.481  0.00  0.00    +0.000 C 
BRANCH  21  22
ATOM     22  C   UNL     1       8.797  10.050  17.881  0.00  0.00    +0.000 C 
BRANCH  22  23
ATOM     23  C   UNL     1       9.523  10.885  18.883  0.00  0.00    +0.000 A 
ATOM     24  C   UNL     1       9.445  10.725  20.254  0.00  0.00    +0.000 A 
ATOM     25  N   UNL     1      10.345  11.600  20.790  0.00  0.00    +0.000 N 
ATOM     26  C   UNL     1      10.513  12.638  19.909  0.00  0.00    +0.000 A 
ATOM     27  C   UNL     1      10.874  13.973  20.101  0.00  0.00    +0.000 A 
ATOM     28  C   UNL     1      11.101  14.732  18.952  0.00  0.00    +0.000 A 
ATOM     29  C   UNL     1      11.103  14.136  17.691  0.00  0.00    +0.000 A 
ATOM     30  C   UNL     1      10.716  12.799  17.523  0.00  0.00    +0.000 A 
ATOM     31  C   UNL     1      10.291  12.077  18.653  0.00  0.00    +0.000 A 
ATOM     32  H   UNL     1      10.841  11.481  21.661  0.00  0.00    +0.000 HD
ENDBRANCH  22  23
ENDBRANCH  21  22
ENDBRANCH  19  21
ENDBRANCH   6  17
TORSDOF 6
ENDMDL
MODEL 4
REMARK VINA RESULT:      -8.8      5.061      8.510
REMARK  Name = 
REMARK  6 active torsions:
REMARK  status: ('A' for Active; 'I' for Inactive)
REMARK    1  A    between atoms: C_2  and  C_24
REMARK    2  A    between atoms: N_3  and  C_4
REMARK    3  A    between atoms: C_9  and  C_10
REMARK    4  A    between atoms: N_12  and  C_13
REMARK    5  A    between atoms: C_13  and  C_14
REMARK    6  A    between atoms: C_14  and  C_15
REMARK                            x       y       z     vdW  Elec       q    Type
REMARK                         _______ _______ _______ _____ _____    ______ ____
ROOT
ATOM      1  C   UNL     1       3.446   3.751  19.480  0.00  0.00    +0.000 A 
ATOM      2  C   UNL     1       3.626   2.546  20.178  0.00  0.00    +0.000 A 
ATOM      3  C   UNL     1       2.915   2.277  21.354  0.00  0.00    +0.000 A 
ATOM      4  C   UNL     1       2.024   3.200  21.858  0.00  0.00    +0.000 A 
ATOM      5  C   UNL     1       1.851   4.419  21.194  0.00  0.00    +0.000 A 
ATOM      6  C   UNL     1       2.583   4.718  20.030  0.00  0.00    +0.000 A 
ENDROOT
BRANCH   1   9
ATOM      7  O   UNL     1       6.314   4.375  18.991  0.00  0.00    +0.000 OA
ATOM      8  C   UNL     1       5.473   4.302  18.101  0.00  0.00    +0.000 C 
ATOM      9  N   UNL     1       4.125   3.999  18.252  0.00  0.00    +0.000 N 
ATOM     10  H   UNL     1       3.602   3.759  17.408  0.00  0.00    +0.000 HD
BRANCH   8  11
ATOM     11  C   UNL     1       5.935   4.513  16.716  0.00  0.00    +0.000 A 
ATOM     12  C   UNL     1       5.085   4.106  15.668  0.00  0.00    +0.000 A 
ATOM     13  C   UNL     1       5.504   4.233  14.345  0.00  0.00    +0.000 A 
ATOM     14  C   UNL     1       6.770   4.743  14.061  0.00  0.00    +0.000 A 
ATOM     15  C   UNL     1       7.625   5.131  15.101  0.00  0.00    +0.000 A 
ATOM     16  C   UNL     1       7.213   5.010  16.428  0.00  0.00    +0.000 A 
ENDBRANCH   8  11
ENDBRANCH   1   9
BRANCH   6  17
ATOM     17  C   UNL     1       2.354   6.056  19.379  0.00  0.00    +0.000 C 
ATOM     18  O   UNL     1       2.298   6.149  18.174  0.00  0.00    +0.000 OA
ATOM     19  N   UNL     1       2.239   7.123  20.248  0.00  0.00    +0.000 N 
ATOM     20  H   UNL     1       2.509   7.010  21.215  0.00  0.00    +0.000 HD
BRANCH  19  21
ATOM     21  C   UNL     1       1.832   8.456  19.839  0.00  0.00    +0.000 C 
BRANCH  21  22
ATOM     22  C   UNL     1       0.646   8.968  20.669  0.00  0.00    +0.000 C 
BRANCH  22  23
ATOM     23  C   UNL     1       0.097  10.238  20.111  0.00  0.00    +0.000 A 
ATOM     24  C   UNL     1       0.052  11.445  20.783  0.00  0.00    +0.000 A 
ATOM     25  N   UNL     1      -0.406  12.364  19.883  0.00  0.00    +0.000 N 
ATOM     26  C   UNL     1      -1.165  11.708  18.947  0.00  0.00    +0.000 A 
ATOM     27  C   UNL     1      -2.227  12.132  18.147  0.00  0.00    +0.000 A 
ATOM     28  C   UNL     1      -2.680  11.233  17.179  0.00  0.00    +0.000 A 
ATOM     29  C   UNL     1      -2.002  10.037  16.942  0.00  0.00    +0.000 A 
ATOM     30  C   UNL     1      -0.951   9.625  17.774  0.00  0.00    +0.000 A 
ATOM     31  C   UNL     1      -0.616  10.430  18.878  0.00  0.00    +0.000 A 
ATOM     32  H   UNL     1      -0.186  13.349  19.877  0.00  0.00    +0.000 HD
ENDBRANCH  22  23
ENDBRANCH  21  22
ENDBRANCH  19  21
ENDBRANCH   6  17
TORSDOF 6
ENDMDL
MODEL 5
REMARK VINA RESULT:      -8.6      5.110      8.526
REMARK  Name = 
REMARK  6 active torsions:
REMARK  status: ('A' for Active; 'I' for Inactive)
REMARK    1  A    between atoms: C_2  and  C_24
REMARK    2  A    between atoms: N_3  and  C_4
REMARK    3  A    between atoms: C_9  and  C_10
REMARK    4  A    between atoms: N_12  and  C_13
REMARK    5  A    between atoms: C_13  and  C_14
REMARK    6  A    between atoms: C_14  and  C_15
REMARK                            x       y       z     vdW  Elec       q    Type
REMARK                         _______ _______ _______ _____ _____    ______ ____
ROOT
ATOM      1  C   UNL     1       3.437   3.559  19.569  0.00  0.00    +0.000 A 
ATOM      2  C   UNL     1       3.634   2.372  20.293  0.00  0.00    +0.000 A 
ATOM      3  C   UNL     1       2.932   2.122  21.478  0.00  0.00    +0.000 A 
ATOM      4  C   UNL     1       2.034   3.047  21.966  0.00  0.00    +0.000 A 
ATOM      5  C   UNL     1       1.843   4.248  21.277  0.00  0.00    +0.000 A 
ATOM      6  C   UNL     1       2.566   4.528  20.101  0.00  0.00    +0.000 A 
ENDROOT
BRANCH   1   9
ATOM      7  O   UNL     1       6.223   4.469  19.059  0.00  0.00    +0.000 OA
ATOM      8  C   UNL     1       5.413   4.230  18.170  0.00  0.00    +0.000 C 
ATOM      9  N   UNL     1       4.106   3.787  18.331  0.00  0.00    +0.000 N 
ATOM     10  H   UNL     1       3.630   3.421  17.504  0.00  0.00    +0.000 HD
BRANCH   8  11
ATOM     11  C   UNL     1       5.874   4.383  16.777  0.00  0.00    +0.000 A 
ATOM     12  C   UNL     1       7.183   4.863  16.565  0.00  0.00    +0.000 A 
ATOM     13  C   UNL     1       7.642   5.078  15.267  0.00  0.00    +0.000 A 
ATOM     14  C   UNL     1       6.801   4.838  14.182  0.00  0.00    +0.000 A 
ATOM     15  C   UNL     1       5.493   4.380  14.390  0.00  0.00    +0.000 A 
ATOM     16  C   UNL     1       5.026   4.159  15.686  0.00  0.00    +0.000 A 
ENDBRANCH   8  11
ENDBRANCH   1   9
BRANCH   6  17
ATOM     17  C   UNL     1       2.319   5.848  19.422  0.00  0.00    +0.000 C 
ATOM     18  O   UNL     1       2.229   5.909  18.216  0.00  0.00    +0.000 OA
ATOM     19  N   UNL     1       2.227   6.939  20.265  0.00  0.00    +0.000 N 
ATOM     20  H   UNL     1       2.524   6.851  21.227  0.00  0.00    +0.000 HD
BRANCH  19  21
ATOM     21  C   UNL     1       1.809   8.260  19.832  0.00  0.00    +0.000 C 
BRANCH  21  22
ATOM     22  C   UNL     1       1.137   9.044  20.968  0.00  0.00    +0.000 C 
BRANCH  22  23
ATOM     23  C   UNL     1       0.093   9.974  20.447  0.00  0.00    +0.000 A 
ATOM     24  C   UNL     1      -0.153  10.222  19.109  0.00  0.00    +0.000 A 
ATOM     25  N   UNL     1      -1.254  11.027  19.068  0.00  0.00    +0.000 N 
ATOM     26  C   UNL     1      -1.320  11.727  20.246  0.00  0.00    +0.000 A 
ATOM     27  C   UNL     1      -1.872  12.970  20.561  0.00  0.00    +0.000 A 
ATOM     28  C   UNL     1      -1.895  13.320  21.912  0.00  0.00    +0.000 A 
ATOM     29  C   UNL     1      -1.515  12.406  22.895  0.00  0.00    +0.000 A 
ATOM     30  C   UNL     1      -0.943  11.173  22.551  0.00  0.00    +0.000 A 
ATOM     31  C   UNL     1      -0.729  10.889  21.190  0.00  0.00    +0.000 A 
ATOM     32  H   UNL     1      -1.932  11.067  18.322  0.00  0.00    +0.000 HD
ENDBRANCH  22  23
ENDBRANCH  21  22
ENDBRANCH  19  21
ENDBRANCH   6  17
TORSDOF 6
ENDMDL
MODEL 6
REMARK VINA RESULT:      -8.5      5.067      8.678
REMARK  Name = 
REMARK  6 active torsions:
REMARK  status: ('A' for Active; 'I' for Inactive)
REMARK    1  A    between atoms: C_2  and  C_24
REMARK    2  A    between atoms: N_3  and  C_4
REMARK    3  A    between atoms: C_9  and  C_10
REMARK    4  A    between atoms: N_12  and  C_13
REMARK    5  A    between atoms: C_13  and  C_14
REMARK    6  A    between atoms: C_14  and  C_15
REMARK                            x       y       z     vdW  Elec       q    Type
REMARK                         _______ _______ _______ _____ _____    ______ ____
ROOT
ATOM      1  C   UNL     1       2.767   3.777  18.724  0.00  0.00    +0.000 A 
ATOM      2  C   UNL     1       2.311   2.473  18.976  0.00  0.00    +0.000 A 
ATOM      3  C   UNL     1       1.388   2.214  19.997  0.00  0.00    +0.000 A 
ATOM      4  C   UNL     1       0.913   3.239  20.786  0.00  0.00    +0.000 A 
ATOM      5  C   UNL     1       1.376   4.540  20.571  0.00  0.00    +0.000 A 
ATOM      6  C   UNL     1       2.328   4.812  19.570  0.00  0.00    +0.000 A 
ENDROOT
BRANCH   1   9
ATOM      7  O   UNL     1       5.742   3.791  18.682  0.00  0.00    +0.000 OA
ATOM      8  C   UNL     1       5.047   4.053  17.706  0.00  0.00    +0.000 C 
ATOM      9  N   UNL     1       3.659   4.050  17.646  0.00  0.00    +0.000 N 
ATOM     10  H   UNL     1       3.230   4.071  16.719  0.00  0.00    +0.000 HD
BRANCH   8  11
ATOM     11  C   UNL     1       5.746   4.365  16.445  0.00  0.00    +0.000 A 
ATOM     12  C   UNL     1       5.165   3.915  15.241  0.00  0.00    +0.000 A 
ATOM     13  C   UNL     1       5.818   4.138  14.029  0.00  0.00    +0.000 A 
ATOM     14  C   UNL     1       7.053   4.784  14.012  0.00  0.00    +0.000 A 
ATOM     15  C   UNL     1       7.642   5.214  15.209  0.00  0.00    +0.000 A 
ATOM     16  C   UNL     1       6.994   4.999  16.425  0.00  0.00    +0.000 A 
ENDBRANCH   8  11
ENDBRANCH   1   9
BRANCH   6  17
ATOM     17  C   UNL     1       2.790   6.236  19.408  0.00  0.00    +0.000 C 
ATOM     18  O   UNL     1       3.971   6.494  19.357  0.00  0.00    +0.000 OA
ATOM     19  N   UNL     1       1.784   7.180  19.346  0.00  0.00    +0.000 N 
ATOM     20  H   UNL     1       0.843   6.923  19.610  0.00  0.00    +0.000 HD
BRANCH  19  21
ATOM     21  C   UNL     1       2.006   8.574  19.007  0.00  0.00    +0.000 C 
BRANCH  21  22
ATOM     22  C   UNL     1       1.116   9.024  17.840  0.00  0.00    +0.000 C 
BRANCH  22  23
ATOM     23  C   UNL     1       0.234  10.161  18.232  0.00  0.00    +0.000 A 
ATOM     24  C   UNL     1       0.533  11.099  19.203  0.00  0.00    +0.000 A 
ATOM     25  N   UNL     1      -0.471  12.023  19.161  0.00  0.00    +0.000 N 
ATOM     26  C   UNL     1      -1.597  11.412  18.670  0.00  0.00    +0.000 A 
ATOM     27  C   UNL     1      -2.956  11.671  18.861  0.00  0.00    +0.000 A 
ATOM     28  C   UNL     1      -3.849  10.938  18.079  0.00  0.00    +0.000 A 
ATOM     29  C   UNL     1      -3.389  10.098  17.064  0.00  0.00    +0.000 A 
ATOM     30  C   UNL     1      -2.020   9.838  16.907  0.00  0.00    +0.000 A 
ATOM     31  C   UNL     1      -1.119  10.417  17.820  0.00  0.00    +0.000 A 
ATOM     32  H   UNL     1      -0.390  12.999  19.403  0.00  0.00    +0.000 HD
ENDBRANCH  22  23
ENDBRANCH  21  22
ENDBRANCH  19  21
ENDBRANCH   6  17
TORSDOF 6
ENDMDL
MODEL 7
REMARK VINA RESULT:      -8.4      5.095      7.882
REMARK  Name = 
REMARK  6 active torsions:
REMARK  status: ('A' for Active; 'I' for Inactive)
REMARK    1  A    between atoms: C_2  and  C_24
REMARK    2  A    between atoms: N_3  and  C_4
REMARK    3  A    between atoms: C_9  and  C_10
REMARK    4  A    between atoms: N_12  and  C_13
REMARK    5  A    between atoms: C_13  and  C_14
REMARK    6  A    between atoms: C_14  and  C_15
REMARK                            x       y       z     vdW  Elec       q    Type
REMARK                         _______ _______ _______ _____ _____    ______ ____
ROOT
ATOM      1  C   UNL     1       3.352   3.759  19.435  0.00  0.00    +0.000 A 
ATOM      2  C   UNL     1       3.489   2.582  20.187  0.00  0.00    +0.000 A 
ATOM      3  C   UNL     1       2.761   2.387  21.367  0.00  0.00    +0.000 A 
ATOM      4  C   UNL     1       1.896   3.359  21.823  0.00  0.00    +0.000 A 
ATOM      5  C   UNL     1       1.765   4.551  21.105  0.00  0.00    +0.000 A 
ATOM      6  C   UNL     1       2.515   4.776  19.934  0.00  0.00    +0.000 A 
ENDROOT
BRANCH   1   9
ATOM      7  O   UNL     1       6.211   4.420  18.947  0.00  0.00    +0.000 OA
ATOM      8  C   UNL     1       5.389   4.257  18.051  0.00  0.00    +0.000 C 
ATOM      9  N   UNL     1       4.046   3.932  18.203  0.00  0.00    +0.000 N 
ATOM     10  H   UNL     1       3.545   3.614  17.371  0.00  0.00    +0.000 HD
BRANCH   8  11
ATOM     11  C   UNL     1       5.871   4.375  16.662  0.00  0.00    +0.000 A 
ATOM     12  C   UNL     1       7.160   4.907  16.455  0.00  0.00    +0.000 A 
ATOM     13  C   UNL     1       7.635   5.089  15.157  0.00  0.00    +0.000 A 
ATOM     14  C   UNL     1       6.828   4.766  14.068  0.00  0.00    +0.000 A 
ATOM     15  C   UNL     1       5.539   4.256  14.271  0.00  0.00    +0.000 A 
ATOM     16  C   UNL     1       5.056   4.067  15.566  0.00  0.00    +0.000 A 
ENDBRANCH   8  11
ENDBRANCH   1   9
BRANCH   6  17
ATOM     17  C   UNL     1       2.332   6.090  19.223  0.00  0.00    +0.000 C 
ATOM     18  O   UNL     1       2.330   6.136  18.014  0.00  0.00    +0.000 OA
ATOM     19  N   UNL     1       2.194   7.192  20.045  0.00  0.00    +0.000 N 
ATOM     20  H   UNL     1       2.420   7.113  21.026  0.00  0.00    +0.000 HD
BRANCH  19  21
ATOM     21  C   UNL     1       1.823   8.512  19.567  0.00  0.00    +0.000 C 
BRANCH  21  22
ATOM     22  C   UNL     1       0.891   9.231  20.552  0.00  0.00    +0.000 C 
BRANCH  22  23
ATOM     23  C   UNL     1       0.123  10.321  19.881  0.00  0.00    +0.000 A 
ATOM     24  C   UNL     1      -0.872  10.126  18.941  0.00  0.00    +0.000 A 
ATOM     25  N   UNL     1      -1.392  11.361  18.678  0.00  0.00    +0.000 N 
ATOM     26  C   UNL     1      -0.424  12.299  18.935  0.00  0.00    +0.000 A 
ATOM     27  C   UNL     1      -0.201  13.574  18.413  0.00  0.00    +0.000 A 
ATOM     28  C   UNL     1       0.806  14.330  19.015  0.00  0.00    +0.000 A 
ATOM     29  C   UNL     1       1.447  13.878  20.169  0.00  0.00    +0.000 A 
ATOM     30  C   UNL     1       1.220  12.584  20.661  0.00  0.00    +0.000 A 
ATOM     31  C   UNL     1       0.355  11.737  19.945  0.00  0.00    +0.000 A 
ATOM     32  H   UNL     1      -2.339  11.557  18.390  0.00  0.00    +0.000 HD
ENDBRANCH  22  23
ENDBRANCH  21  22
ENDBRANCH  19  21
ENDBRANCH   6  17
TORSDOF 6
ENDMDL
MODEL 8
REMARK VINA RESULT:      -8.4      5.063      8.293
REMARK  Name = 
REMARK  6 active torsions:
REMARK  status: ('A' for Active; 'I' for Inactive)
REMARK    1  A    between atoms: C_2  and  C_24
REMARK    2  A    between atoms: N_3  and  C_4
REMARK    3  A    between atoms: C_9  and  C_10
REMARK    4  A    between atoms: N_12  and  C_13
REMARK    5  A    between atoms: C_13  and  C_14
REMARK    6  A    between atoms: C_14  and  C_15
REMARK                            x       y       z     vdW  Elec       q    Type
REMARK                         _______ _______ _______ _____ _____    ______ ____
ROOT
ATOM      1  C   UNL     1       3.422   3.703  19.506  0.00  0.00    +0.000 A 
ATOM      2  C   UNL     1       3.614   2.497  20.200  0.00  0.00    +0.000 A 
ATOM      3  C   UNL     1       2.898   2.214  21.370  0.00  0.00    +0.000 A 
ATOM      4  C   UNL     1       1.991   3.123  21.871  0.00  0.00    +0.000 A 
ATOM      5  C   UNL     1       1.805   4.341  21.211  0.00  0.00    +0.000 A 
ATOM      6  C   UNL     1       2.542   4.655  20.053  0.00  0.00    +0.000 A 
ENDROOT
BRANCH   1   9
ATOM      7  O   UNL     1       6.288   4.347  19.036  0.00  0.00    +0.000 OA
ATOM      8  C   UNL     1       5.452   4.276  18.141  0.00  0.00    +0.000 C 
ATOM      9  N   UNL     1       4.105   3.965  18.283  0.00  0.00    +0.000 N 
ATOM     10  H   UNL     1       3.588   3.728  17.434  0.00  0.00    +0.000 HD
BRANCH   8  11
ATOM     11  C   UNL     1       5.920   4.501  16.761  0.00  0.00    +0.000 A 
ATOM     12  C   UNL     1       5.078   4.097  15.705  0.00  0.00    +0.000 A 
ATOM     13  C   UNL     1       5.503   4.238  14.385  0.00  0.00    +0.000 A 
ATOM     14  C   UNL     1       6.767   4.759  14.112  0.00  0.00    +0.000 A 
ATOM     15  C   UNL     1       7.614   5.143  15.160  0.00  0.00    +0.000 A 
ATOM     16  C   UNL     1       7.196   5.009  16.484  0.00  0.00    +0.000 A 
ENDBRANCH   8  11
ENDBRANCH   1   9
BRANCH   6  17
ATOM     17  C   UNL     1       2.298   5.992  19.406  0.00  0.00    +0.000 C 
ATOM     18  O   UNL     1       2.286   6.095  18.200  0.00  0.00    +0.000 OA
ATOM     19  N   UNL     1       2.117   7.047  20.279  0.00  0.00    +0.000 N 
ATOM     20  H   UNL     1       2.352   6.932  21.254  0.00  0.00    +0.000 HD
BRANCH  19  21
ATOM     21  C   UNL     1       1.687   8.371  19.866  0.00  0.00    +0.000 C 
BRANCH  21  22
ATOM     22  C   UNL     1       1.059   9.153  21.029  0.00  0.00    +0.000 C 
BRANCH  22  23
ATOM     23  C   UNL     1       0.512  10.464  20.573  0.00  0.00    +0.000 A 
ATOM     24  C   UNL     1       0.849  11.096  19.390  0.00  0.00    +0.000 A 
ATOM     25  N   UNL     1       0.042  12.194  19.303  0.00  0.00    +0.000 N 
ATOM     26  C   UNL     1      -0.314  12.567  20.574  0.00  0.00    +0.000 A 
ATOM     27  C   UNL     1      -0.667  13.805  21.116  0.00  0.00    +0.000 A 
ATOM     28  C   UNL     1      -1.125  13.803  22.435  0.00  0.00    +0.000 A 
ATOM     29  C   UNL     1      -1.347  12.604  23.113  0.00  0.00    +0.000 A 
ATOM     30  C   UNL     1      -0.963  11.376  22.554  0.00  0.00    +0.000 A 
ATOM     31  C   UNL     1      -0.316  11.382  21.305  0.00  0.00    +0.000 A 
ATOM     32  H   UNL     1      -0.279  12.628  18.451  0.00  0.00    +0.000 HD
ENDBRANCH  22  23
ENDBRANCH  21  22
ENDBRANCH  19  21
ENDBRANCH   6  17
TORSDOF 6
ENDMDL
MODEL 9
REMARK VINA RESULT:      -8.4      5.217      8.209
REMARK  Name = 
REMARK  6 active torsions:
REMARK  status: ('A' for Active; 'I' for Inactive)
REMARK    1  A    between atoms: C_2  and  C_24
REMARK    2  A    between atoms: N_3  and  C_4
REMARK    3  A    between atoms: C_9  and  C_10
REMARK    4  A    between atoms: N_12  and  C_13
REMARK    5  A    between atoms: C_13  and  C_14
REMARK    6  A    between atoms: C_14  and  C_15
REMARK                            x       y       z     vdW  Elec       q    Type
REMARK                         _______ _______ _______ _____ _____    ______ ____
ROOT
ATOM      1  C   UNL     1       3.133   4.009  18.155  0.00  0.00    +0.000 A 
ATOM      2  C   UNL     1       2.811   2.741  18.665  0.00  0.00    +0.000 A 
ATOM      3  C   UNL     1       1.996   2.602  19.795  0.00  0.00    +0.000 A 
ATOM      4  C   UNL     1       1.497   3.714  20.438  0.00  0.00    +0.000 A 
ATOM      5  C   UNL     1       1.828   4.987  19.964  0.00  0.00    +0.000 A 
ATOM      6  C   UNL     1       2.674   5.144  18.849  0.00  0.00    +0.000 A 
ENDROOT
BRANCH   1   9
ATOM      7  O   UNL     1       6.088   4.129  17.833  0.00  0.00    +0.000 OA
ATOM      8  C   UNL     1       5.299   4.214  16.898  0.00  0.00    +0.000 C 
ATOM      9  N   UNL     1       3.913   4.150  16.970  0.00  0.00    +0.000 N 
ATOM     10  H   UNL     1       3.404   4.014  16.094  0.00  0.00    +0.000 HD
BRANCH   8  11
ATOM     11  C   UNL     1       5.868   4.358  15.545  0.00  0.00    +0.000 A 
ATOM     12  C   UNL     1       5.261   3.640  14.494  0.00  0.00    +0.000 A 
ATOM     13  C   UNL     1       5.799   3.700  13.210  0.00  0.00    +0.000 A 
ATOM     14  C   UNL     1       6.947   4.452  12.970  0.00  0.00    +0.000 A 
ATOM     15  C   UNL     1       7.565   5.152  14.016  0.00  0.00    +0.000 A 
ATOM     16  C   UNL     1       7.031   5.099  15.304  0.00  0.00    +0.000 A 
ENDBRANCH   8  11
ENDBRANCH   1   9
BRANCH   6  17
ATOM     17  C   UNL     1       2.998   6.545  18.405  0.00  0.00    +0.000 C 
ATOM     18  O   UNL     1       3.936   6.753  17.668  0.00  0.00    +0.000 OA
ATOM     19  N   UNL     1       2.175   7.531  18.913  0.00  0.00    +0.000 N 
ATOM     20  H   UNL     1       1.557   7.317  19.682  0.00  0.00    +0.000 HD
BRANCH  19  21
ATOM     21  C   UNL     1       2.200   8.913  18.465  0.00  0.00    +0.000 C 
BRANCH  21  22
ATOM     22  C   UNL     1       0.824   9.373  17.963  0.00  0.00    +0.000 C 
BRANCH  22  23
ATOM     23  C   UNL     1       0.148  10.257  18.956  0.00  0.00    +0.000 A 
ATOM     24  C   UNL     1      -0.066  11.614  18.795  0.00  0.00    +0.000 A 
ATOM     25  N   UNL     1      -0.814  12.011  19.865  0.00  0.00    +0.000 N 
ATOM     26  C   UNL     1      -0.566  11.151  20.906  0.00  0.00    +0.000 A 
ATOM     27  C   UNL     1      -0.628  11.323  22.290  0.00  0.00    +0.000 A 
ATOM     28  C   UNL     1      -0.454  10.179  23.071  0.00  0.00    +0.000 A 
ATOM     29  C   UNL     1      -0.368   8.917  22.482  0.00  0.00    +0.000 A 
ATOM     30  C   UNL     1      -0.287   8.774  21.089  0.00  0.00    +0.000 A 
ATOM     31  C   UNL     1      -0.259   9.936  20.297  0.00  0.00    +0.000 A 
ATOM     32  H   UNL     1      -1.474  12.774  19.878  0.00  0.00    +0.000 HD
ENDBRANCH  22  23
ENDBRANCH  21  22
ENDBRANCH  19  21
ENDBRANCH   6  17
TORSDOF 6
ENDMDL
