MODEL 1
REMARK VINA RESULT:      -8.9      0.000      0.000
REMARK  Name = 
REMARK  6 active torsions:
REMARK  status: ('A' for Active; 'I' for Inactive)
REMARK    1  A    between atoms: C_1  and  C_2
REMARK    2  A    between atoms: C_4  and  C_5
REMARK    3  A    between atoms: C_9  and  N_10
REMARK    4  A    between atoms: C_11  and  C_13
REMARK    5  A    between atoms: C_15  and  C_16
REMARK    6  A    between atoms: C_25  and  C_26
REMARK                            x       y       z     vdW  Elec       q    Type
REMARK                         _______ _______ _______ _____ _____    ______ ____
ROOT
ATOM      1  N   UNL     1       6.911   7.667  17.225  0.00  0.00    +0.000 N 
ATOM      2  C   UNL     1       7.919   7.759  18.176  0.00  0.00    +0.000 C 
ATOM      3  O   UNL     1       8.335   6.826  18.855  0.00  0.00    +0.000 OA
ATOM      4  H   UNL     1       6.748   8.473  16.638  0.00  0.00    +0.000 HD
ENDROOT
BRANCH   1   9
ATOM      5  C   UNL     1       4.486   4.844  17.552  0.00  0.00    +0.000 A 
ATOM      6  C   UNL     1       4.633   4.240  16.292  0.00  0.00    +0.000 A 
ATOM      7  C   UNL     1       5.548   4.720  15.369  0.00  0.00    +0.000 A 
ATOM      8  C   UNL     1       6.321   5.832  15.683  0.00  0.00    +0.000 A 
ATOM      9  C   UNL     1       6.179   6.491  16.911  0.00  0.00    +0.000 A 
ATOM     10  C   UNL     1       5.277   5.969  17.859  0.00  0.00    +0.000 A 
BRANCH   5  14
ATOM     11  C   UNL     1       2.087   3.340  21.566  0.00  0.00    +0.000 C 
ATOM     12  C   UNL     1       2.406   3.548  20.139  0.00  0.00    +0.000 A 
ATOM     13  N   UNL     1       3.483   4.306  19.768  0.00  0.00    +0.000 NA
ATOM     14  C   UNL     1       3.492   4.256  18.448  0.00  0.00    +0.000 A 
ATOM     15  O   UNL     1       2.466   3.520  17.910  0.00  0.00    +0.000 OA
ATOM     16  C   UNL     1       1.781   3.064  19.009  0.00  0.00    +0.000 A 
ATOM     17  C   UNL     1       0.609   2.195  18.789  0.00  0.00    +0.000 C 
ENDBRANCH   5  14
ENDBRANCH   1   9
BRANCH   2  18
ATOM     18  C   UNL     1       8.529   9.054  18.339  0.00  0.00    +0.000 A 
ATOM     19  C   UNL     1       8.720  10.164  17.539  0.00  0.00    +0.000 A 
ATOM     20  C   UNL     1       9.400  11.099  18.360  0.00  0.00    +0.000 A 
ATOM     21  N   UNL     1       9.627  10.615  19.585  0.00  0.00    +0.000 NA
ATOM     22  N   UNL     1       9.092   9.389  19.545  0.00  0.00    +0.000 N 
ATOM     23  H   UNL     1       9.133   8.802  20.375  0.00  0.00    +0.000 HD
BRANCH  20  24
ATOM     24  C   UNL     1       9.819  12.434  17.956  0.00  0.00    +0.000 A 
ATOM     25  C   UNL     1      10.999  12.731  17.226  0.00  0.00    +0.000 A 
ATOM     26  C   UNL     1      11.015  14.097  17.065  0.00  0.00    +0.000 A 
ATOM     27  O   UNL     1       9.922  14.657  17.647  0.00  0.00    +0.000 OA
ATOM     28  C   UNL     1       9.199  13.639  18.186  0.00  0.00    +0.000 A 
ENDBRANCH  20  24
ENDBRANCH   2  18
TORSDOF 4
ENDMDL
MODEL 2
REMARK VINA RESULT:      -8.8      0.739      1.243
REMARK  Name = 
REMARK  6 active torsions:
REMARK  status: ('A' for Active; 'I' for Inactive)
REMARK    1  A    between atoms: C_1  and  C_2
REMARK    2  A    between atoms: C_4  and  C_5
REMARK    3  A    between atoms: C_9  and  N_10
REMARK    4  A    between atoms: C_11  and  C_13
REMARK    5  A    between atoms: C_15  and  C_16
REMARK    6  A    between atoms: C_25  and  C_26
REMARK                            x       y       z     vdW  Elec       q    Type
REMARK                         _______ _______ _______ _____ _____    ______ ____
ROOT
ATOM      1  N   UNL     1       6.983   7.420  17.091  0.00  0.00    +0.000 N 
ATOM      2  C   UNL     1       7.888   7.563  18.134  0.00  0.00    +0.000 C 
ATOM      3  O   UNL     1       8.269   6.657  18.868  0.00  0.00    +0.000 OA
ATOM      4  H   UNL     1       6.850   8.211  16.476  0.00  0.00    +0.000 HD
ENDROOT
BRANCH   1   9
ATOM      5  C   UNL     1       4.674   4.489  17.259  0.00  0.00    +0.000 A 
ATOM      6  C   UNL     1       4.928   3.896  16.010  0.00  0.00    +0.000 A 
ATOM      7  C   UNL     1       5.878   4.421  15.148  0.00  0.00    +0.000 A 
ATOM      8  C   UNL     1       6.577   5.567  15.513  0.00  0.00    +0.000 A 
ATOM      9  C   UNL     1       6.327   6.213  16.730  0.00  0.00    +0.000 A 
ATOM     10  C   UNL     1       5.390   5.647  17.618  0.00  0.00    +0.000 A 
BRANCH   5  14
ATOM     11  C   UNL     1       0.576   2.233  18.757  0.00  0.00    +0.000 C 
ATOM     12  C   UNL     1       1.891   2.902  18.820  0.00  0.00    +0.000 A 
ATOM     13  N   UNL     1       2.545   3.263  17.674  0.00  0.00    +0.000 NA
ATOM     14  C   UNL     1       3.652   3.852  18.089  0.00  0.00    +0.000 A 
ATOM     15  O   UNL     1       3.785   3.891  19.454  0.00  0.00    +0.000 OA
ATOM     16  C   UNL     1       2.642   3.284  19.911  0.00  0.00    +0.000 A 
ATOM     17  C   UNL     1       2.442   3.180  21.369  0.00  0.00    +0.000 C 
ENDBRANCH   5  14
ENDBRANCH   1   9
BRANCH   2  18
ATOM     18  C   UNL     1       8.434   8.883  18.331  0.00  0.00    +0.000 A 
ATOM     19  C   UNL     1       8.501  10.045  17.589  0.00  0.00    +0.000 A 
ATOM     20  C   UNL     1       9.186  10.973  18.414  0.00  0.00    +0.000 A 
ATOM     21  N   UNL     1       9.531  10.436  19.587  0.00  0.00    +0.000 NA
ATOM     22  N   UNL     1       9.067   9.183  19.512  0.00  0.00    +0.000 N 
ATOM     23  H   UNL     1       9.203   8.554  20.299  0.00  0.00    +0.000 HD
BRANCH  20  24
ATOM     24  C   UNL     1       9.496  12.352  18.063  0.00  0.00    +0.000 A 
ATOM     25  C   UNL     1      10.740  12.802  17.551  0.00  0.00    +0.000 A 
ATOM     26  C   UNL     1      10.609  14.159  17.366  0.00  0.00    +0.000 A 
ATOM     27  O   UNL     1       9.365  14.570  17.729  0.00  0.00    +0.000 OA
ATOM     28  C   UNL     1       8.694  13.466  18.150  0.00  0.00    +0.000 A 
ENDBRANCH  20  24
ENDBRANCH   2  18
TORSDOF 4
ENDMDL
MODEL 3
REMARK VINA RESULT:      -8.3      1.406      1.798
REMARK  Name = 
REMARK  6 active torsions:
REMARK  status: ('A' for Active; 'I' for Inactive)
REMARK    1  A    between atoms: C_1  and  C_2
REMARK    2  A    between atoms: C_4  and  C_5
REMARK    3  A    between atoms: C_9  and  N_10
REMARK    4  A    between atoms: C_11  and  C_13
REMARK    5  A    between atoms: C_15  and  C_16
REMARK    6  A    between atoms: C_25  and  C_26
REMARK                            x       y       z     vdW  Elec       q    Type
REMARK                         _______ _______ _______ _____ _____    ______ ____
ROOT
ATOM      1  N   UNL     1       7.035   7.564  17.124  0.00  0.00    +0.000 N 
ATOM      2  C   UNL     1       7.949   7.825  18.137  0.00  0.00    +0.000 C 
ATOM      3  O   UNL     1       8.400   6.990  18.913  0.00  0.00    +0.000 OA
ATOM      4  H   UNL     1       6.840   8.307  16.468  0.00  0.00    +0.000 HD
ENDROOT
BRANCH   1   9
ATOM      5  C   UNL     1       4.796   4.588  17.418  0.00  0.00    +0.000 A 
ATOM      6  C   UNL     1       5.191   3.863  16.281  0.00  0.00    +0.000 A 
ATOM      7  C   UNL     1       6.210   4.318  15.459  0.00  0.00    +0.000 A 
ATOM      8  C   UNL     1       6.839   5.524  15.749  0.00  0.00    +0.000 A 
ATOM      9  C   UNL     1       6.450   6.299  16.849  0.00  0.00    +0.000 A 
ATOM     10  C   UNL     1       5.443   5.807  17.703  0.00  0.00    +0.000 A 
BRANCH   5  14
ATOM     11  C   UNL     1       0.660   2.309  18.771  0.00  0.00    +0.000 C 
ATOM     12  C   UNL     1       1.923   3.069  18.878  0.00  0.00    +0.000 A 
ATOM     13  N   UNL     1       2.696   3.296  17.773  0.00  0.00    +0.000 NA
ATOM     14  C   UNL     1       3.711   4.016  18.214  0.00  0.00    +0.000 A 
ATOM     15  O   UNL     1       3.671   4.270  19.562  0.00  0.00    +0.000 OA
ATOM     16  C   UNL     1       2.511   3.662  19.974  0.00  0.00    +0.000 A 
ATOM     17  C   UNL     1       2.136   3.767  21.397  0.00  0.00    +0.000 C 
ENDBRANCH   5  14
ENDBRANCH   1   9
BRANCH   2  18
ATOM     18  C   UNL     1       8.413   9.185  18.244  0.00  0.00    +0.000 A 
ATOM     19  C   UNL     1       9.361   9.850  18.996  0.00  0.00    +0.000 A 
ATOM     20  C   UNL     1       9.289  11.202  18.574  0.00  0.00    +0.000 A 
ATOM     21  N   UNL     1       8.361  11.380  17.629  0.00  0.00    +0.000 NA
ATOM     22  N   UNL     1       7.853  10.155  17.449  0.00  0.00    +0.000 N 
ATOM     23  H   UNL     1       7.114  10.019  16.764  0.00  0.00    +0.000 HD
BRANCH  20  24
ATOM     24  C   UNL     1      10.108  12.294  19.082  0.00  0.00    +0.000 A 
ATOM     25  C   UNL     1      10.066  13.631  18.610  0.00  0.00    +0.000 A 
ATOM     26  C   UNL     1      10.995  14.326  19.348  0.00  0.00    +0.000 A 
ATOM     27  O   UNL     1      11.603  13.503  20.244  0.00  0.00    +0.000 OA
ATOM     28  C   UNL     1      11.058  12.269  20.076  0.00  0.00    +0.000 A 
ENDBRANCH  20  24
ENDBRANCH   2  18
TORSDOF 4
ENDMDL
MODEL 4
REMARK VINA RESULT:      -8.2      1.175      1.219
REMARK  Name = 
REMARK  6 active torsions:
REMARK  status: ('A' for Active; 'I' for Inactive)
REMARK    1  A    between atoms: C_1  and  C_2
REMARK    2  A    between atoms: C_4  and  C_5
REMARK    3  A    between atoms: C_9  and  N_10
REMARK    4  A    between atoms: C_11  and  C_13
REMARK    5  A    between atoms: C_15  and  C_16
REMARK    6  A    between atoms: C_25  and  C_26
REMARK                            x       y       z     vdW  Elec       q    Type
REMARK                         _______ _______ _______ _____ _____    ______ ____
ROOT
ATOM      1  N   UNL     1       6.948   7.674  17.172  0.00  0.00    +0.000 N 
ATOM      2  C   UNL     1       7.925   7.943  18.121  0.00  0.00    +0.000 C 
ATOM      3  O   UNL     1       8.416   7.117  18.883  0.00  0.00    +0.000 OA
ATOM      4  H   UNL     1       6.719   8.407  16.516  0.00  0.00    +0.000 HD
ENDROOT
BRANCH   1   9
ATOM      5  C   UNL     1       4.696   4.732  17.648  0.00  0.00    +0.000 A 
ATOM      6  C   UNL     1       5.024   3.977  16.509  0.00  0.00    +0.000 A 
ATOM      7  C   UNL     1       6.004   4.402  15.626  0.00  0.00    +0.000 A 
ATOM      8  C   UNL     1       6.659   5.606  15.856  0.00  0.00    +0.000 A 
ATOM      9  C   UNL     1       6.336   6.410  16.956  0.00  0.00    +0.000 A 
ATOM     10  C   UNL     1       5.369   5.949  17.871  0.00  0.00    +0.000 A 
BRANCH   5  14
ATOM     11  C   UNL     1       2.101   3.349  21.583  0.00  0.00    +0.000 C 
ATOM     12  C   UNL     1       2.477   3.536  20.167  0.00  0.00    +0.000 A 
ATOM     13  N   UNL     1       3.597   4.246  19.831  0.00  0.00    +0.000 NA
ATOM     14  C   UNL     1       3.648   4.190  18.512  0.00  0.00    +0.000 A 
ATOM     15  O   UNL     1       2.611   3.493  17.942  0.00  0.00    +0.000 OA
ATOM     16  C   UNL     1       1.871   3.072  19.019  0.00  0.00    +0.000 A 
ATOM     17  C   UNL     1       0.672   2.251  18.763  0.00  0.00    +0.000 C 
ENDBRANCH   5  14
ENDBRANCH   1   9
BRANCH   2  18
ATOM     18  C   UNL     1       8.406   9.301  18.175  0.00  0.00    +0.000 A 
ATOM     19  C   UNL     1       9.441   9.958  18.811  0.00  0.00    +0.000 A 
ATOM     20  C   UNL     1       9.326  11.311  18.403  0.00  0.00    +0.000 A 
ATOM     21  N   UNL     1       8.294  11.497  17.576  0.00  0.00    +0.000 NA
ATOM     22  N   UNL     1       7.761  10.275  17.455  0.00  0.00    +0.000 N 
ATOM     23  H   UNL     1       6.945  10.146  16.862  0.00  0.00    +0.000 HD
BRANCH  20  24
ATOM     24  C   UNL     1      10.206  12.397  18.813  0.00  0.00    +0.000 A 
ATOM     25  C   UNL     1      11.184  12.311  19.838  0.00  0.00    +0.000 A 
ATOM     26  C   UNL     1      11.778  13.549  19.905  0.00  0.00    +0.000 A 
ATOM     27  O   UNL     1      11.231  14.389  18.987  0.00  0.00    +0.000 OA
ATOM     28  C   UNL     1      10.276  13.681  18.326  0.00  0.00    +0.000 A 
ENDBRANCH  20  24
ENDBRANCH   2  18
TORSDOF 4
ENDMDL
MODEL 5
REMARK VINA RESULT:      -8.1      5.370      7.734
REMARK  Name = 
REMARK  6 active torsions:
REMARK  status: ('A' for Active; 'I' for Inactive)
REMARK    1  A    between atoms: C_1  and  C_2
REMARK    2  A    between atoms: C_4  and  C_5
REMARK    3  A    between atoms: C_9  and  N_10
REMARK    4  A    between atoms: C_11  and  C_13
REMARK    5  A    between atoms: C_15  and  C_16
REMARK    6  A    between atoms: C_25  and  C_26
REMARK                            x       y       z     vdW  Elec       q    Type
REMARK                         _______ _______ _______ _____ _____    ______ ____
ROOT
ATOM      1  N   UNL     1       4.399   6.794  17.908  0.00  0.00    +0.000 N 
ATOM      2  C   UNL     1       3.109   6.468  18.305  0.00  0.00    +0.000 C 
ATOM      3  O   UNL     1       2.598   5.357  18.202  0.00  0.00    +0.000 OA
ATOM      4  H   UNL     1       4.751   7.705  18.166  0.00  0.00    +0.000 HD
ENDROOT
BRANCH   1   9
ATOM      5  C   UNL     1       5.970   4.601  15.323  0.00  0.00    +0.000 A 
ATOM      6  C   UNL     1       7.158   4.246  15.984  0.00  0.00    +0.000 A 
ATOM      7  C   UNL     1       7.417   4.677  17.275  0.00  0.00    +0.000 A 
ATOM      8  C   UNL     1       6.498   5.494  17.923  0.00  0.00    +0.000 A 
ATOM      9  C   UNL     1       5.319   5.906  17.288  0.00  0.00    +0.000 A 
ATOM     10  C   UNL     1       5.045   5.428  15.991  0.00  0.00    +0.000 A 
BRANCH   5  14
ATOM     11  C   UNL     1       3.999   3.152  11.064  0.00  0.00    +0.000 C 
ATOM     12  C   UNL     1       5.017   3.417  12.100  0.00  0.00    +0.000 A 
ATOM     13  N   UNL     1       4.678   4.045  13.267  0.00  0.00    +0.000 NA
ATOM     14  C   UNL     1       5.799   4.091  13.964  0.00  0.00    +0.000 A 
ATOM     15  O   UNL     1       6.879   3.542  13.319  0.00  0.00    +0.000 OA
ATOM     16  C   UNL     1       6.360   3.105  12.126  0.00  0.00    +0.000 A 
ATOM     17  C   UNL     1       7.264   2.423  11.181  0.00  0.00    +0.000 C 
ENDBRANCH   5  14
ENDBRANCH   1   9
BRANCH   2  18
ATOM     18  C   UNL     1       2.341   7.525  18.912  0.00  0.00    +0.000 A 
ATOM     19  C   UNL     1       1.856   7.795  20.177  0.00  0.00    +0.000 A 
ATOM     20  C   UNL     1       1.180   9.035  20.058  0.00  0.00    +0.000 A 
ATOM     21  N   UNL     1       1.227   9.511  18.811  0.00  0.00    +0.000 NA
ATOM     22  N   UNL     1       1.930   8.587  18.145  0.00  0.00    +0.000 N 
ATOM     23  H   UNL     1       2.113   8.721  17.154  0.00  0.00    +0.000 HD
BRANCH  20  24
ATOM     24  C   UNL     1       0.502   9.737  21.139  0.00  0.00    +0.000 A 
ATOM     25  C   UNL     1      -0.181   9.112  22.214  0.00  0.00    +0.000 A 
ATOM     26  C   UNL     1      -0.677  10.130  22.995  0.00  0.00    +0.000 A 
ATOM     27  O   UNL     1      -0.342  11.338  22.470  0.00  0.00    +0.000 OA
ATOM     28  C   UNL     1       0.375  11.091  21.342  0.00  0.00    +0.000 A 
ENDBRANCH  20  24
ENDBRANCH   2  18
TORSDOF 4
ENDMDL
MODEL 6
REMARK VINA RESULT:      -8.0      2.275      4.294
REMARK  Name = 
REMARK  6 active torsions:
REMARK  status: ('A' for Active; 'I' for Inactive)
REMARK    1  A    between atoms: C_1  and  C_2
REMARK    2  A    between atoms: C_4  and  C_5
REMARK    3  A    between atoms: C_9  and  N_10
REMARK    4  A    between atoms: C_11  and  C_13
REMARK    5  A    between atoms: C_15  and  C_16
REMARK    6  A    between atoms: C_25  and  C_26
REMARK                            x       y       z     vdW  Elec       q    Type
REMARK                         _______ _______ _______ _____ _____    ______ ____
ROOT
ATOM      1  N   UNL     1       6.773   7.728  17.270  0.00  0.00    +0.000 N 
ATOM      2  C   UNL     1       7.861   7.768  18.133  0.00  0.00    +0.000 C 
ATOM      3  O   UNL     1       8.348   6.796  18.700  0.00  0.00    +0.000 OA
ATOM      4  H   UNL     1       6.548   8.572  16.762  0.00  0.00    +0.000 HD
ENDROOT
BRANCH   1   9
ATOM      5  C   UNL     1       5.506   4.807  15.316  0.00  0.00    +0.000 A 
ATOM      6  C   UNL     1       4.670   4.208  16.274  0.00  0.00    +0.000 A 
ATOM      7  C   UNL     1       4.485   4.780  17.522  0.00  0.00    +0.000 A 
ATOM      8  C   UNL     1       5.155   5.955  17.845  0.00  0.00    +0.000 A 
ATOM      9  C   UNL     1       6.029   6.565  16.936  0.00  0.00    +0.000 A 
ATOM     10  C   UNL     1       6.177   5.999  15.654  0.00  0.00    +0.000 A 
BRANCH   5  14
ATOM     11  C   UNL     1       7.331   2.606  11.322  0.00  0.00    +0.000 C 
ATOM     12  C   UNL     1       6.343   3.179  12.259  0.00  0.00    +0.000 A 
ATOM     13  N   UNL     1       6.736   3.663  13.476  0.00  0.00    +0.000 NA
ATOM     14  C   UNL     1       5.628   4.119  14.032  0.00  0.00    +0.000 A 
ATOM     15  O   UNL     1       4.506   3.951  13.259  0.00  0.00    +0.000 OA
ATOM     16  C   UNL     1       4.983   3.353  12.119  0.00  0.00    +0.000 A 
ATOM     17  C   UNL     1       4.025   3.050  11.038  0.00  0.00    +0.000 C 
ENDBRANCH   5  14
ENDBRANCH   1   9
BRANCH   2  18
ATOM     18  C   UNL     1       8.468   9.059  18.336  0.00  0.00    +0.000 A 
ATOM     19  C   UNL     1       8.602  10.216  17.595  0.00  0.00    +0.000 A 
ATOM     20  C   UNL     1       9.322  11.109  18.428  0.00  0.00    +0.000 A 
ATOM     21  N   UNL     1       9.625  10.557  19.606  0.00  0.00    +0.000 NA
ATOM     22  N   UNL     1       9.100   9.329  19.525  0.00  0.00    +0.000 N 
ATOM     23  H   UNL     1       9.194   8.695  20.314  0.00  0.00    +0.000 HD
BRANCH  20  24
ATOM     24  C   UNL     1       9.704  12.471  18.081  0.00  0.00    +0.000 A 
ATOM     25  C   UNL     1       9.070  13.644  18.567  0.00  0.00    +0.000 A 
ATOM     26  C   UNL     1       9.731  14.703  17.989  0.00  0.00    +0.000 A 
ATOM     27  O   UNL     1      10.730  14.257  17.182  0.00  0.00    +0.000 OA
ATOM     28  C   UNL     1      10.708  12.899  17.244  0.00  0.00    +0.000 A 
ENDBRANCH  20  24
ENDBRANCH   2  18
TORSDOF 4
ENDMDL
MODEL 7
REMARK VINA RESULT:      -7.9      6.587      8.742
REMARK  Name = 
REMARK  6 active torsions:
REMARK  status: ('A' for Active; 'I' for Inactive)
REMARK    1  A    between atoms: C_1  and  C_2
REMARK    2  A    between atoms: C_4  and  C_5
REMARK    3  A    between atoms: C_9  and  N_10
REMARK    4  A    between atoms: C_11  and  C_13
REMARK    5  A    between atoms: C_15  and  C_16
REMARK    6  A    between atoms: C_25  and  C_26
REMARK                            x       y       z     vdW  Elec       q    Type
REMARK                         _______ _______ _______ _____ _____    ______ ____
ROOT
ATOM      1  N   UNL     1       1.895   8.522  18.751  0.00  0.00    +0.000 N 
ATOM      2  C   UNL     1       2.148   7.399  19.528  0.00  0.00    +0.000 C 
ATOM      3  O   UNL     1       1.500   7.060  20.512  0.00  0.00    +0.000 OA
ATOM      4  H   UNL     1       2.415   8.622  17.891  0.00  0.00    +0.000 HD
ENDROOT
BRANCH   1   9
ATOM      5  C   UNL     1      -1.237  10.506  18.295  0.00  0.00    +0.000 A 
ATOM      6  C   UNL     1      -1.231  11.261  19.480  0.00  0.00    +0.000 A 
ATOM      7  C   UNL     1      -0.191  11.159  20.390  0.00  0.00    +0.000 A 
ATOM      8  C   UNL     1       0.855  10.277  20.140  0.00  0.00    +0.000 A 
ATOM      9  C   UNL     1       0.870   9.475  18.992  0.00  0.00    +0.000 A 
ATOM     10  C   UNL     1      -0.171   9.618  18.052  0.00  0.00    +0.000 A 
BRANCH   5  14
ATOM     11  C   UNL     1      -4.196  10.465  14.374  0.00  0.00    +0.000 C 
ATOM     12  C   UNL     1      -3.713  10.739  15.743  0.00  0.00    +0.000 A 
ATOM     13  N   UNL     1      -2.516  10.237  16.174  0.00  0.00    +0.000 NA
ATOM     14  C   UNL     1      -2.383  10.693  17.407  0.00  0.00    +0.000 A 
ATOM     15  O   UNL     1      -3.438  11.460  17.834  0.00  0.00    +0.000 OA
ATOM     16  C   UNL     1      -4.281  11.488  16.751  0.00  0.00    +0.000 A 
ATOM     17  C   UNL     1      -5.528  12.268  16.859  0.00  0.00    +0.000 C 
ENDBRANCH   5  14
ENDBRANCH   1   9
BRANCH   2  18
ATOM     18  C   UNL     1       3.245   6.564  19.106  0.00  0.00    +0.000 A 
ATOM     19  C   UNL     1       4.082   6.512  18.009  0.00  0.00    +0.000 A 
ATOM     20  C   UNL     1       4.952   5.420  18.259  0.00  0.00    +0.000 A 
ATOM     21  N   UNL     1       4.681   4.823  19.423  0.00  0.00    +0.000 NA
ATOM     22  N   UNL     1       3.655   5.530  19.911  0.00  0.00    +0.000 N 
ATOM     23  H   UNL     1       3.257   5.272  20.810  0.00  0.00    +0.000 HD
BRANCH  20  24
ATOM     24  C   UNL     1       6.022   4.971  17.379  0.00  0.00    +0.000 A 
ATOM     25  C   UNL     1       5.855   4.583  16.024  0.00  0.00    +0.000 A 
ATOM     26  C   UNL     1       7.103   4.226  15.571  0.00  0.00    +0.000 A 
ATOM     27  O   UNL     1       8.026   4.371  16.559  0.00  0.00    +0.000 OA
ATOM     28  C   UNL     1       7.361   4.825  17.655  0.00  0.00    +0.000 A 
ENDBRANCH  20  24
ENDBRANCH   2  18
TORSDOF 4
ENDMDL
MODEL 8
REMARK VINA RESULT:      -7.9      5.312      7.577
REMARK  Name = 
REMARK  6 active torsions:
REMARK  status: ('A' for Active; 'I' for Inactive)
REMARK    1  A    between atoms: C_1  and  C_2
REMARK    2  A    between atoms: C_4  and  C_5
REMARK    3  A    between atoms: C_9  and  N_10
REMARK    4  A    between atoms: C_11  and  C_13
REMARK    5  A    between atoms: C_15  and  C_16
REMARK    6  A    between atoms: C_25  and  C_26
REMARK                            x       y       z     vdW  Elec       q    Type
REMARK                         _______ _______ _______ _____ _____    ______ ____
ROOT
ATOM      1  N   UNL     1       4.228   6.605  17.891  0.00  0.00    +0.000 N 
ATOM      2  C   UNL     1       3.401   6.219  18.939  0.00  0.00    +0.000 C 
ATOM      3  O   UNL     1       3.416   5.118  19.480  0.00  0.00    +0.000 OA
ATOM      4  H   UNL     1       4.213   7.578  17.619  0.00  0.00    +0.000 HD
ENDROOT
BRANCH   1   9
ATOM      5  C   UNL     1       5.901   4.525  15.278  0.00  0.00    +0.000 A 
ATOM      6  C   UNL     1       7.118   4.242  15.924  0.00  0.00    +0.000 A 
ATOM      7  C   UNL     1       7.364   4.683  17.214  0.00  0.00    +0.000 A 
ATOM      8  C   UNL     1       6.403   5.439  17.876  0.00  0.00    +0.000 A 
ATOM      9  C   UNL     1       5.194   5.779  17.257  0.00  0.00    +0.000 A 
ATOM     10  C   UNL     1       4.935   5.290  15.961  0.00  0.00    +0.000 A 
BRANCH   5  14
ATOM     11  C   UNL     1       3.997   3.163  10.960  0.00  0.00    +0.000 C 
ATOM     12  C   UNL     1       4.991   3.369  12.033  0.00  0.00    +0.000 A 
ATOM     13  N   UNL     1       4.653   4.035  13.179  0.00  0.00    +0.000 NA
ATOM     14  C   UNL     1       5.747   4.011  13.919  0.00  0.00    +0.000 A 
ATOM     15  O   UNL     1       6.810   3.379  13.323  0.00  0.00    +0.000 OA
ATOM     16  C   UNL     1       6.307   2.964  12.114  0.00  0.00    +0.000 A 
ATOM     17  C   UNL     1       7.195   2.208  11.212  0.00  0.00    +0.000 C 
ENDBRANCH   5  14
ENDBRANCH   1   9
BRANCH   2  18
ATOM     18  C   UNL     1       2.486   7.216  19.432  0.00  0.00    +0.000 A 
ATOM     19  C   UNL     1       1.910   8.365  18.928  0.00  0.00    +0.000 A 
ATOM     20  C   UNL     1       1.090   8.859  19.973  0.00  0.00    +0.000 A 
ATOM     21  N   UNL     1       1.146   8.083  21.060  0.00  0.00    +0.000 NA
ATOM     22  N   UNL     1       1.989   7.105  20.707  0.00  0.00    +0.000 N 
ATOM     23  H   UNL     1       2.203   6.369  21.375  0.00  0.00    +0.000 HD
BRANCH  20  24
ATOM     24  C   UNL     1       0.269  10.061  19.912  0.00  0.00    +0.000 A 
ATOM     25  C   UNL     1      -0.833  10.251  19.039  0.00  0.00    +0.000 A 
ATOM     26  C   UNL     1      -1.314  11.512  19.299  0.00  0.00    +0.000 A 
ATOM     27  O   UNL     1      -0.580  12.109  20.276  0.00  0.00    +0.000 OA
ATOM     28  C   UNL     1       0.380  11.219  20.644  0.00  0.00    +0.000 A 
ENDBRANCH  20  24
ENDBRANCH   2  18
TORSDOF 4
ENDMDL
MODEL 9
REMARK VINA RESULT:      -7.9      1.368      1.483
REMARK  Name = 
REMARK  6 active torsions:
REMARK  status: ('A' for Active; 'I' for Inactive)
REMARK    1  A    between atoms: C_1  and  C_2
REMARK    2  A    between atoms: C_4  and  C_5
REMARK    3  A    between atoms: C_9  and  N_10
REMARK    4  A    between atoms: C_11  and  C_13
REMARK    5  A    between atoms: C_15  and  C_16
REMARK    6  A    between atoms: C_25  and  C_26
REMARK                            x       y       z     vdW  Elec       q    Type
REMARK                         _______ _______ _______ _____ _____    ______ ____
ROOT
ATOM      1  N   UNL     1       7.876   7.191  18.219  0.00  0.00    +0.000 N 
ATOM      2  C   UNL     1       7.726   8.493  17.759  0.00  0.00    +0.000 C 
ATOM      3  O   UNL     1       6.895   8.858  16.934  0.00  0.00    +0.000 OA
ATOM      4  H   UNL     1       8.506   7.039  18.994  0.00  0.00    +0.000 HD
ENDROOT
BRANCH   1   9
ATOM      5  C   UNL     1       5.226   4.559  18.132  0.00  0.00    +0.000 A 
ATOM      6  C   UNL     1       5.529   3.939  16.908  0.00  0.00    +0.000 A 
ATOM      7  C   UNL     1       6.615   4.344  16.148  0.00  0.00    +0.000 A 
ATOM      8  C   UNL     1       7.407   5.397  16.590  0.00  0.00    +0.000 A 
ATOM      9  C   UNL     1       7.119   6.071  17.784  0.00  0.00    +0.000 A 
ATOM     10  C   UNL     1       6.039   5.624  18.571  0.00  0.00    +0.000 A 
BRANCH   5  14
ATOM     11  C   UNL     1       2.198   3.032  21.685  0.00  0.00    +0.000 C 
ATOM     12  C   UNL     1       2.698   3.349  20.332  0.00  0.00    +0.000 A 
ATOM     13  N   UNL     1       3.917   3.945  20.161  0.00  0.00    +0.000 NA
ATOM     14  C   UNL     1       4.059   4.052  18.852  0.00  0.00    +0.000 A 
ATOM     15  O   UNL     1       2.991   3.575  18.134  0.00  0.00    +0.000 OA
ATOM     16  C   UNL     1       2.128   3.119  19.099  0.00  0.00    +0.000 A 
ATOM     17  C   UNL     1       0.861   2.501  18.664  0.00  0.00    +0.000 C 
ENDBRANCH   5  14
ENDBRANCH   1   9
BRANCH   2  18
ATOM     18  C   UNL     1       8.605   9.479  18.334  0.00  0.00    +0.000 A 
ATOM     19  C   UNL     1       9.213  10.638  17.893  0.00  0.00    +0.000 A 
ATOM     20  C   UNL     1       9.949  11.117  19.006  0.00  0.00    +0.000 A 
ATOM     21  N   UNL     1       9.821  10.319  20.069  0.00  0.00    +0.000 NA
ATOM     22  N   UNL     1       9.009   9.346  19.639  0.00  0.00    +0.000 N 
ATOM     23  H   UNL     1       8.749   8.598  20.277  0.00  0.00    +0.000 HD
BRANCH  20  24
ATOM     24  C   UNL     1      10.759  12.328  19.029  0.00  0.00    +0.000 A 
ATOM     25  C   UNL     1      10.684  13.339  20.022  0.00  0.00    +0.000 A 
ATOM     26  C   UNL     1      11.603  14.297  19.662  0.00  0.00    +0.000 A 
ATOM     27  O   UNL     1      12.239  13.938  18.515  0.00  0.00    +0.000 OA
ATOM     28  C   UNL     1      11.720  12.740  18.136  0.00  0.00    +0.000 A 
ENDBRANCH  20  24
ENDBRANCH   2  18
TORSDOF 4
ENDMDL
