MODEL 1
REMARK VINA RESULT:      -8.1      0.000      0.000
REMARK  Name = 
REMARK  7 active torsions:
REMARK  status: ('A' for Active; 'I' for Inactive)
REMARK    1  A    between atoms: C_1  and  N_2
REMARK    2  A    between atoms: C_6  and  C_7
REMARK    3  A    between atoms: C_7  and  C_8
REMARK    4  A    between atoms: C_8  and  C_9
REMARK    5  A    between atoms: N_12  and  C_13
REMARK    6  A    between atoms: C_13  and  N_14
REMARK    7  A    between atoms: C_21  and  C_22
REMARK                            x       y       z     vdW  Elec       q    Type
REMARK                         _______ _______ _______ _____ _____    ______ ____
ROOT
ATOM      1  C   UNL     1       5.874   6.652  16.742  0.00  0.00    +0.000 C 
ENDROOT
BRANCH   1   2
ATOM      2  N   UNL     1       4.898   5.687  17.179  0.00  0.00    +0.000 N 
ATOM      3  C   UNL     1       4.046   5.913  18.331  0.00  0.00    +0.000 C 
ATOM      4  C   UNL     1       3.234   4.655  18.392  0.00  0.00    +0.000 A 
ATOM      5  C   UNL     1       3.633   3.796  17.364  0.00  0.00    +0.000 A 
ATOM      6  C   UNL     1       3.046   2.562  17.146  0.00  0.00    +0.000 A 
ATOM      7  C   UNL     1       2.015   2.180  18.002  0.00  0.00    +0.000 A 
ATOM      8  C   UNL     1       1.611   3.025  19.054  0.00  0.00    +0.000 A 
ATOM      9  C   UNL     1       2.220   4.279  19.270  0.00  0.00    +0.000 A 
ATOM     10  C   UNL     1       4.725   4.438  16.618  0.00  0.00    +0.000 C 
ATOM     11  O   UNL     1       5.338   3.920  15.704  0.00  0.00    +0.000 OA
BRANCH   9  12
ATOM     12  C   UNL     1       1.769   5.141  20.420  0.00  0.00    +0.000 C 
ATOM     13  F   UNL     1       1.930   6.476  20.204  0.00  0.00    +0.000 F 
ATOM     14  F   UNL     1       0.452   4.966  20.717  0.00  0.00    +0.000 F 
ATOM     15  F   UNL     1       2.450   4.867  21.566  0.00  0.00    +0.000 F 
ENDBRANCH   9  12
ENDBRANCH   1   2
BRANCH   1  19
ATOM     16  C   UNL     1       8.593   9.436  18.345  0.00  0.00    +0.000 C 
ATOM     17  C   UNL     1       8.697   8.130  18.713  0.00  0.00    +0.000 C 
ATOM     18  C   UNL     1       7.571   7.741  17.870  0.00  0.00    +0.000 C 
ATOM     19  N   UNL     1       7.019   6.610  17.641  0.00  0.00    +0.000 NA
ATOM     20  C   UNL     1       7.386   9.169  17.427  0.00  0.00    +0.000 C 
BRANCH  16  21
ATOM     21  C   UNL     1       9.398  10.689  18.704  0.00  0.00    +0.000 C 
BRANCH  21  22
ATOM     22  C   UNL     1       8.988  11.937  17.941  0.00  0.00    +0.000 C 
BRANCH  22  28
ATOM     23  C   UNL     1       9.357  14.612  19.572  0.00  0.00    +0.000 C 
ATOM     24  N   UNL     1      10.216  14.100  18.540  0.00  0.00    +0.000 N 
ATOM     25  C   UNL     1      11.333  14.717  18.066  0.00  0.00    +0.000 A 
ATOM     26  N   UNL     1      11.885  13.974  17.139  0.00  0.00    +0.000 NA
ATOM     27  N   UNL     1      11.109  12.850  16.992  0.00  0.00    +0.000 NA
ATOM     28  C   UNL     1      10.096  12.930  17.829  0.00  0.00    +0.000 A 
ENDBRANCH  22  28
ENDBRANCH  21  22
ENDBRANCH  16  21
ENDBRANCH   1  19
TORSDOF 6
ENDMDL
MODEL 2
REMARK VINA RESULT:      -8.1      6.856      9.514
REMARK  Name = 
REMARK  7 active torsions:
REMARK  status: ('A' for Active; 'I' for Inactive)
REMARK    1  A    between atoms: C_1  and  N_2
REMARK    2  A    between atoms: C_6  and  C_7
REMARK    3  A    between atoms: C_7  and  C_8
REMARK    4  A    between atoms: C_8  and  C_9
REMARK    5  A    between atoms: N_12  and  C_13
REMARK    6  A    between atoms: C_13  and  N_14
REMARK    7  A    between atoms: C_21  and  C_22
REMARK                            x       y       z     vdW  Elec       q    Type
REMARK                         _______ _______ _______ _____ _____    ______ ____
ROOT
ATOM      1  C   UNL     1       1.406   7.146  21.095  0.00  0.00    +0.000 C 
ENDROOT
BRANCH   1   2
ATOM      2  N   UNL     1       2.019   6.270  20.129  0.00  0.00    +0.000 N 
ATOM      3  C   UNL     1       2.937   6.757  19.116  0.00  0.00    +0.000 C 
ATOM      4  C   UNL     1       3.284   5.510  18.361  0.00  0.00    +0.000 A 
ATOM      5  C   UNL     1       2.586   4.429  18.906  0.00  0.00    +0.000 A 
ATOM      6  C   UNL     1       2.720   3.134  18.436  0.00  0.00    +0.000 A 
ATOM      7  C   UNL     1       3.594   2.924  17.371  0.00  0.00    +0.000 A 
ATOM      8  C   UNL     1       4.293   4.004  16.797  0.00  0.00    +0.000 A 
ATOM      9  C   UNL     1       4.144   5.321  17.282  0.00  0.00    +0.000 A 
ATOM     10  C   UNL     1       1.746   4.923  20.006  0.00  0.00    +0.000 C 
ATOM     11  O   UNL     1       0.964   4.242  20.642  0.00  0.00    +0.000 OA
BRANCH   9  12
ATOM     12  C   UNL     1       4.896   6.448  16.625  0.00  0.00    +0.000 C 
ATOM     13  F   UNL     1       5.643   6.063  15.553  0.00  0.00    +0.000 F 
ATOM     14  F   UNL     1       4.071   7.431  16.172  0.00  0.00    +0.000 F 
ATOM     15  F   UNL     1       5.765   7.054  17.480  0.00  0.00    +0.000 F 
ENDBRANCH   9  12
ENDBRANCH   1   2
BRANCH   1  19
ATOM     16  C   UNL     1      -0.376  10.796  22.196  0.00  0.00    +0.000 C 
ATOM     17  C   UNL     1       0.351  10.740  21.046  0.00  0.00    +0.000 C 
ATOM     18  C   UNL     1       0.650   9.325  21.234  0.00  0.00    +0.000 C 
ATOM     19  N   UNL     1       1.312   8.485  20.531  0.00  0.00    +0.000 NA
ATOM     20  C   UNL     1      -0.126   9.313  22.525  0.00  0.00    +0.000 C 
BRANCH  16  21
ATOM     21  C   UNL     1      -1.158  11.920  22.882  0.00  0.00    +0.000 C 
BRANCH  21  22
ATOM     22  C   UNL     1      -2.360  12.416  22.096  0.00  0.00    +0.000 C 
BRANCH  22  28
ATOM     23  C   UNL     1      -4.992  14.050  21.504  0.00  0.00    +0.000 C 
ATOM     24  N   UNL     1      -4.722  13.228  22.651  0.00  0.00    +0.000 N 
ATOM     25  C   UNL     1      -5.563  13.044  23.705  0.00  0.00    +0.000 A 
ATOM     26  N   UNL     1      -5.012  12.228  24.569  0.00  0.00    +0.000 NA
ATOM     27  N   UNL     1      -3.778  11.875  24.078  0.00  0.00    +0.000 NA
ATOM     28  C   UNL     1      -3.598  12.486  22.925  0.00  0.00    +0.000 A 
ENDBRANCH  22  28
ENDBRANCH  21  22
ENDBRANCH  16  21
ENDBRANCH   1  19
TORSDOF 6
ENDMDL
MODEL 3
REMARK VINA RESULT:      -8.1      6.779     10.027
REMARK  Name = 
REMARK  7 active torsions:
REMARK  status: ('A' for Active; 'I' for Inactive)
REMARK    1  A    between atoms: C_1  and  N_2
REMARK    2  A    between atoms: C_6  and  C_7
REMARK    3  A    between atoms: C_7  and  C_8
REMARK    4  A    between atoms: C_8  and  C_9
REMARK    5  A    between atoms: N_12  and  C_13
REMARK    6  A    between atoms: C_13  and  N_14
REMARK    7  A    between atoms: C_21  and  C_22
REMARK                            x       y       z     vdW  Elec       q    Type
REMARK                         _______ _______ _______ _____ _____    ______ ____
ROOT
ATOM      1  C   UNL     1       0.709  11.017  19.619  0.00  0.00    +0.000 C 
ENDROOT
BRANCH   1   2
ATOM      2  N   UNL     1      -0.662  11.195  19.213  0.00  0.00    +0.000 N 
ATOM      3  C   UNL     1      -1.154  10.735  17.928  0.00  0.00    +0.000 C 
ATOM      4  C   UNL     1      -2.594  11.151  17.960  0.00  0.00    +0.000 A 
ATOM      5  C   UNL     1      -2.858  11.812  19.163  0.00  0.00    +0.000 A 
ATOM      6  C   UNL     1      -4.112  12.294  19.495  0.00  0.00    +0.000 A 
ATOM      7  C   UNL     1      -5.140  12.100  18.574  0.00  0.00    +0.000 A 
ATOM      8  C   UNL     1      -4.889  11.451  17.350  0.00  0.00    +0.000 A 
ATOM      9  C   UNL     1      -3.605  10.970  17.019  0.00  0.00    +0.000 A 
ATOM     10  C   UNL     1      -1.614  11.878  19.942  0.00  0.00    +0.000 C 
ATOM     11  O   UNL     1      -1.493  12.451  21.008  0.00  0.00    +0.000 OA
BRANCH   9  12
ATOM     12  C   UNL     1      -3.377  10.300  15.689  0.00  0.00    +0.000 C 
ATOM     13  F   UNL     1      -2.436  10.910  14.918  0.00  0.00    +0.000 F 
ATOM     14  F   UNL     1      -2.972   9.007  15.820  0.00  0.00    +0.000 F 
ATOM     15  F   UNL     1      -4.508  10.262  14.932  0.00  0.00    +0.000 F 
ENDBRANCH   9  12
ENDBRANCH   1   2
BRANCH   1  19
ATOM     16  C   UNL     1       2.548   7.383  18.560  0.00  0.00    +0.000 C 
ATOM     17  C   UNL     1       1.924   7.476  19.766  0.00  0.00    +0.000 C 
ATOM     18  C   UNL     1       1.529   8.859  19.522  0.00  0.00    +0.000 C 
ATOM     19  N   UNL     1       0.859   9.698  20.218  0.00  0.00    +0.000 NA
ATOM     20  C   UNL     1       2.211   8.835  18.178  0.00  0.00    +0.000 C 
BRANCH  16  21
ATOM     21  C   UNL     1       3.289   6.243  17.853  0.00  0.00    +0.000 C 
BRANCH  21  22
ATOM     22  C   UNL     1       2.553   4.914  17.868  0.00  0.00    +0.000 C 
BRANCH  22  28
ATOM     23  C   UNL     1       1.233   3.755  20.489  0.00  0.00    +0.000 C 
ATOM     24  N   UNL     1       2.549   3.476  19.984  0.00  0.00    +0.000 N 
ATOM     25  C   UNL     1       3.470   2.675  20.587  0.00  0.00    +0.000 A 
ATOM     26  N   UNL     1       4.557   2.629  19.856  0.00  0.00    +0.000 NA
ATOM     27  N   UNL     1       4.350   3.424  18.755  0.00  0.00    +0.000 NA
ATOM     28  C   UNL     1       3.143   3.944  18.836  0.00  0.00    +0.000 A 
ENDBRANCH  22  28
ENDBRANCH  21  22
ENDBRANCH  16  21
ENDBRANCH   1  19
TORSDOF 6
ENDMDL
MODEL 4
REMARK VINA RESULT:      -8.1      5.870      8.917
REMARK  Name = 
REMARK  7 active torsions:
REMARK  status: ('A' for Active; 'I' for Inactive)
REMARK    1  A    between atoms: C_1  and  N_2
REMARK    2  A    between atoms: C_6  and  C_7
REMARK    3  A    between atoms: C_7  and  C_8
REMARK    4  A    between atoms: C_8  and  C_9
REMARK    5  A    between atoms: N_12  and  C_13
REMARK    6  A    between atoms: C_13  and  N_14
REMARK    7  A    between atoms: C_21  and  C_22
REMARK                            x       y       z     vdW  Elec       q    Type
REMARK                         _______ _______ _______ _____ _____    ______ ____
ROOT
ATOM      1  C   UNL     1       1.390   8.059  21.111  0.00  0.00    +0.000 C 
ENDROOT
BRANCH   1   2
ATOM      2  N   UNL     1       0.492   9.177  21.243  0.00  0.00    +0.000 N 
ATOM      3  C   UNL     1      -0.171   9.776  20.100  0.00  0.00    +0.000 C 
ATOM      4  C   UNL     1      -0.967  10.882  20.724  0.00  0.00    +0.000 A 
ATOM      5  C   UNL     1      -0.734  10.900  22.102  0.00  0.00    +0.000 A 
ATOM      6  C   UNL     1      -1.351  11.796  22.957  0.00  0.00    +0.000 A 
ATOM      7  C   UNL     1      -2.238  12.713  22.396  0.00  0.00    +0.000 A 
ATOM      8  C   UNL     1      -2.472  12.722  21.007  0.00  0.00    +0.000 A 
ATOM      9  C   UNL     1      -1.833  11.806  20.144  0.00  0.00    +0.000 A 
ATOM     10  C   UNL     1       0.230   9.838  22.425  0.00  0.00    +0.000 C 
ATOM     11  O   UNL     1       0.693   9.636  23.532  0.00  0.00    +0.000 OA
BRANCH   9  12
ATOM     12  C   UNL     1      -2.098  11.865  18.663  0.00  0.00    +0.000 C 
ATOM     13  F   UNL     1      -1.930  10.674  18.025  0.00  0.00    +0.000 F 
ATOM     14  F   UNL     1      -3.367  12.267  18.376  0.00  0.00    +0.000 F 
ATOM     15  F   UNL     1      -1.275  12.744  18.027  0.00  0.00    +0.000 F 
ENDBRANCH   9  12
ENDBRANCH   1   2
BRANCH   1  19
ATOM     16  C   UNL     1       2.813   5.336  18.235  0.00  0.00    +0.000 C 
ATOM     17  C   UNL     1       2.939   6.670  17.996  0.00  0.00    +0.000 C 
ATOM     18  C   UNL     1       2.317   7.018  19.268  0.00  0.00    +0.000 C 
ATOM     19  N   UNL     1       2.068   8.142  19.825  0.00  0.00    +0.000 NA
ATOM     20  C   UNL     1       2.131   5.559  19.597  0.00  0.00    +0.000 C 
BRANCH  16  21
ATOM     21  C   UNL     1       3.222   4.090  17.442  0.00  0.00    +0.000 C 
BRANCH  21  22
ATOM     22  C   UNL     1       4.374   3.310  18.052  0.00  0.00    +0.000 C 
BRANCH  22  28
ATOM     23  C   UNL     1       6.556   4.263  15.982  0.00  0.00    +0.000 C 
ATOM     24  N   UNL     1       6.516   4.544  17.391  0.00  0.00    +0.000 N 
ATOM     25  C   UNL     1       7.451   5.254  18.080  0.00  0.00    +0.000 A 
ATOM     26  N   UNL     1       7.102   5.332  19.340  0.00  0.00    +0.000 NA
ATOM     27  N   UNL     1       5.919   4.650  19.486  0.00  0.00    +0.000 NA
ATOM     28  C   UNL     1       5.569   4.165  18.312  0.00  0.00    +0.000 A 
ENDBRANCH  22  28
ENDBRANCH  21  22
ENDBRANCH  16  21
ENDBRANCH   1  19
TORSDOF 6
ENDMDL
MODEL 5
REMARK VINA RESULT:      -8.1      5.600      8.296
REMARK  Name = 
REMARK  7 active torsions:
REMARK  status: ('A' for Active; 'I' for Inactive)
REMARK    1  A    between atoms: C_1  and  N_2
REMARK    2  A    between atoms: C_6  and  C_7
REMARK    3  A    between atoms: C_7  and  C_8
REMARK    4  A    between atoms: C_8  and  C_9
REMARK    5  A    between atoms: N_12  and  C_13
REMARK    6  A    between atoms: C_13  and  N_14
REMARK    7  A    between atoms: C_21  and  C_22
REMARK                            x       y       z     vdW  Elec       q    Type
REMARK                         _______ _______ _______ _____ _____    ______ ____
ROOT
ATOM      1  C   UNL     1       3.330   8.132  17.961  0.00  0.00    +0.000 C 
ENDROOT
BRANCH   1   2
ATOM      2  N   UNL     1       3.276   6.702  18.123  0.00  0.00    +0.000 N 
ATOM      3  C   UNL     1       2.577   6.074  19.228  0.00  0.00    +0.000 C 
ATOM      4  C   UNL     1       2.811   4.614  18.978  0.00  0.00    +0.000 A 
ATOM      5  C   UNL     1       3.601   4.461  17.836  0.00  0.00    +0.000 A 
ATOM      6  C   UNL     1       3.966   3.224  17.335  0.00  0.00    +0.000 A 
ATOM      7  C   UNL     1       3.515   2.096  18.018  0.00  0.00    +0.000 A 
ATOM      8  C   UNL     1       2.731   2.231  19.181  0.00  0.00    +0.000 A 
ATOM      9  C   UNL     1       2.370   3.498  19.685  0.00  0.00    +0.000 A 
ATOM     10  C   UNL     1       3.934   5.796  17.316  0.00  0.00    +0.000 C 
ATOM     11  O   UNL     1       4.666   6.008  16.368  0.00  0.00    +0.000 OA
BRANCH   9  12
ATOM     12  C   UNL     1       1.548   3.595  20.943  0.00  0.00    +0.000 C 
ATOM     13  F   UNL     1       0.916   2.437  21.280  0.00  0.00    +0.000 F 
ATOM     14  F   UNL     1       2.294   3.943  22.027  0.00  0.00    +0.000 F 
ATOM     15  F   UNL     1       0.568   4.536  20.846  0.00  0.00    +0.000 F 
ENDBRANCH   9  12
ENDBRANCH   1   2
BRANCH   1  19
ATOM     16  C   UNL     1      -0.136  10.215  19.125  0.00  0.00    +0.000 C 
ATOM     17  C   UNL     1      -0.002   9.839  17.823  0.00  0.00    +0.000 C 
ATOM     18  C   UNL     1       1.291   9.212  18.076  0.00  0.00    +0.000 C 
ATOM     19  N   UNL     1       2.106   8.584  17.316  0.00  0.00    +0.000 NA
ATOM     20  C   UNL     1       1.219   9.607  19.529  0.00  0.00    +0.000 C 
BRANCH  16  21
ATOM     21  C   UNL     1      -1.240  10.952  19.890  0.00  0.00    +0.000 C 
BRANCH  21  22
ATOM     22  C   UNL     1      -1.778  12.184  19.180  0.00  0.00    +0.000 C 
BRANCH  22  28
ATOM     23  C   UNL     1      -4.682  12.574  20.348  0.00  0.00    +0.000 C 
ATOM     24  N   UNL     1      -4.330  12.086  19.042  0.00  0.00    +0.000 N 
ATOM     25  C   UNL     1      -5.213  11.674  18.091  0.00  0.00    +0.000 A 
ATOM     26  N   UNL     1      -4.559  11.304  17.018  0.00  0.00    +0.000 NA
ATOM     27  N   UNL     1      -3.218  11.466  17.271  0.00  0.00    +0.000 NA
ATOM     28  C   UNL     1      -3.079  11.929  18.497  0.00  0.00    +0.000 A 
ENDBRANCH  22  28
ENDBRANCH  21  22
ENDBRANCH  16  21
ENDBRANCH   1  19
TORSDOF 6
ENDMDL
MODEL 6
REMARK VINA RESULT:      -8.1      1.336      1.894
REMARK  Name = 
REMARK  7 active torsions:
REMARK  status: ('A' for Active; 'I' for Inactive)
REMARK    1  A    between atoms: C_1  and  N_2
REMARK    2  A    between atoms: C_6  and  C_7
REMARK    3  A    between atoms: C_7  and  C_8
REMARK    4  A    between atoms: C_8  and  C_9
REMARK    5  A    between atoms: N_12  and  C_13
REMARK    6  A    between atoms: C_13  and  N_14
REMARK    7  A    between atoms: C_21  and  C_22
REMARK                            x       y       z     vdW  Elec       q    Type
REMARK                         _______ _______ _______ _____ _____    ______ ____
ROOT
ATOM      1  C   UNL     1       7.191   6.084  18.074  0.00  0.00    +0.000 C 
ENDROOT
BRANCH   1   2
ATOM      2  N   UNL     1       5.908   5.431  18.041  0.00  0.00    +0.000 N 
ATOM      3  C   UNL     1       4.892   5.671  19.049  0.00  0.00    +0.000 C 
ATOM      4  C   UNL     1       3.773   4.777  18.606  0.00  0.00    +0.000 A 
ATOM      5  C   UNL     1       4.162   4.082  17.457  0.00  0.00    +0.000 A 
ATOM      6  C   UNL     1       3.329   3.197  16.797  0.00  0.00    +0.000 A 
ATOM      7  C   UNL     1       2.052   3.004  17.320  0.00  0.00    +0.000 A 
ATOM      8  C   UNL     1       1.647   3.683  18.486  0.00  0.00    +0.000 A 
ATOM      9  C   UNL     1       2.507   4.579  19.154  0.00  0.00    +0.000 A 
ATOM     10  C   UNL     1       5.541   4.469  17.124  0.00  0.00    +0.000 C 
ATOM     11  O   UNL     1       6.194   3.990  16.217  0.00  0.00    +0.000 OA
BRANCH   9  12
ATOM     12  C   UNL     1       2.041   5.267  20.410  0.00  0.00    +0.000 C 
ATOM     13  F   UNL     1       2.699   4.871  21.534  0.00  0.00    +0.000 F 
ATOM     14  F   UNL     1       2.187   6.619  20.349  0.00  0.00    +0.000 F 
ATOM     15  F   UNL     1       0.721   5.045  20.658  0.00  0.00    +0.000 F 
ENDBRANCH   9  12
ENDBRANCH   1   2
BRANCH   1  19
ATOM     16  C   UNL     1       8.867   9.929  18.428  0.00  0.00    +0.000 C 
ATOM     17  C   UNL     1       8.029   9.671  17.386  0.00  0.00    +0.000 C 
ATOM     18  C   UNL     1       7.816   8.295  17.821  0.00  0.00    +0.000 C 
ATOM     19  N   UNL     1       7.101   7.344  17.349  0.00  0.00    +0.000 NA
ATOM     20  C   UNL     1       8.744   8.501  18.990  0.00  0.00    +0.000 C 
BRANCH  16  21
ATOM     21  C   UNL     1       9.626  11.183  18.870  0.00  0.00    +0.000 C 
BRANCH  21  22
ATOM     22  C   UNL     1       9.712  12.269  17.811  0.00  0.00    +0.000 C 
BRANCH  22  28
ATOM     23  C   UNL     1       9.635  14.819  19.666  0.00  0.00    +0.000 C 
ATOM     24  N   UNL     1       8.605  14.366  18.771  0.00  0.00    +0.000 N 
ATOM     25  C   UNL     1       7.392  14.960  18.601  0.00  0.00    +0.000 A 
ATOM     26  N   UNL     1       6.702  14.298  17.704  0.00  0.00    +0.000 NA
ATOM     27  N   UNL     1       7.474  13.242  17.283  0.00  0.00    +0.000 NA
ATOM     28  C   UNL     1       8.619  13.276  17.934  0.00  0.00    +0.000 A 
ENDBRANCH  22  28
ENDBRANCH  21  22
ENDBRANCH  16  21
ENDBRANCH   1  19
TORSDOF 6
ENDMDL
MODEL 7
REMARK VINA RESULT:      -8.0      0.868      1.234
REMARK  Name = 
REMARK  7 active torsions:
REMARK  status: ('A' for Active; 'I' for Inactive)
REMARK    1  A    between atoms: C_1  and  N_2
REMARK    2  A    between atoms: C_6  and  C_7
REMARK    3  A    between atoms: C_7  and  C_8
REMARK    4  A    between atoms: C_8  and  C_9
REMARK    5  A    between atoms: N_12  and  C_13
REMARK    6  A    between atoms: C_13  and  N_14
REMARK    7  A    between atoms: C_21  and  C_22
REMARK                            x       y       z     vdW  Elec       q    Type
REMARK                         _______ _______ _______ _____ _____    ______ ____
ROOT
ATOM      1  C   UNL     1       6.842   5.694  17.415  0.00  0.00    +0.000 C 
ENDROOT
BRANCH   1   2
ATOM      2  N   UNL     1       5.536   5.132  17.646  0.00  0.00    +0.000 N 
ATOM      3  C   UNL     1       4.670   5.600  18.712  0.00  0.00    +0.000 C 
ATOM      4  C   UNL     1       3.463   4.724  18.563  0.00  0.00    +0.000 A 
ATOM      5  C   UNL     1       3.669   3.828  17.510  0.00  0.00    +0.000 A 
ATOM      6  C   UNL     1       2.717   2.906  17.113  0.00  0.00    +0.000 A 
ATOM      7  C   UNL     1       1.510   2.887  17.808  0.00  0.00    +0.000 A 
ATOM      8  C   UNL     1       1.291   3.771  18.883  0.00  0.00    +0.000 A 
ATOM      9  C   UNL     1       2.271   4.704  19.283  0.00  0.00    +0.000 A 
ATOM     10  C   UNL     1       5.009   4.061  16.954  0.00  0.00    +0.000 C 
ATOM     11  O   UNL     1       5.518   3.399  16.070  0.00  0.00    +0.000 OA
BRANCH   9  12
ATOM     12  C   UNL     1       2.002   5.616  20.451  0.00  0.00    +0.000 C 
ATOM     13  F   UNL     1       0.689   5.693  20.800  0.00  0.00    +0.000 F 
ATOM     14  F   UNL     1       2.666   5.233  21.575  0.00  0.00    +0.000 F 
ATOM     15  F   UNL     1       2.393   6.897  20.204  0.00  0.00    +0.000 F 
ENDBRANCH   9  12
ENDBRANCH   1   2
BRANCH   1  19
ATOM     16  C   UNL     1       8.610   9.362  18.480  0.00  0.00    +0.000 C 
ATOM     17  C   UNL     1       7.662   9.349  17.503  0.00  0.00    +0.000 C 
ATOM     18  C   UNL     1       7.474   7.907  17.622  0.00  0.00    +0.000 C 
ATOM     19  N   UNL     1       6.697   7.088  17.020  0.00  0.00    +0.000 NA
ATOM     20  C   UNL     1       8.523   7.841  18.701  0.00  0.00    +0.000 C 
BRANCH  16  21
ATOM     21  C   UNL     1       9.433  10.484  19.121  0.00  0.00    +0.000 C 
BRANCH  21  22
ATOM     22  C   UNL     1       9.326  11.823  18.409  0.00  0.00    +0.000 C 
BRANCH  22  28
ATOM     23  C   UNL     1       9.112  14.291  20.362  0.00  0.00    +0.000 C 
ATOM     24  N   UNL     1      10.277  13.852  19.644  0.00  0.00    +0.000 N 
ATOM     25  C   UNL     1      11.493  14.464  19.666  0.00  0.00    +0.000 A 
ATOM     26  N   UNL     1      12.332  13.798  18.911  0.00  0.00    +0.000 NA
ATOM     27  N   UNL     1      11.652  12.732  18.374  0.00  0.00    +0.000 NA
ATOM     28  C   UNL     1      10.408  12.770  18.807  0.00  0.00    +0.000 A 
ENDBRANCH  22  28
ENDBRANCH  21  22
ENDBRANCH  16  21
ENDBRANCH   1  19
TORSDOF 6
ENDMDL
MODEL 8
REMARK VINA RESULT:      -8.0      7.141      9.666
REMARK  Name = 
REMARK  7 active torsions:
REMARK  status: ('A' for Active; 'I' for Inactive)
REMARK    1  A    between atoms: C_1  and  N_2
REMARK    2  A    between atoms: C_6  and  C_7
REMARK    3  A    between atoms: C_7  and  C_8
REMARK    4  A    between atoms: C_8  and  C_9
REMARK    5  A    between atoms: N_12  and  C_13
REMARK    6  A    between atoms: C_13  and  N_14
REMARK    7  A    between atoms: C_21  and  C_22
REMARK                            x       y       z     vdW  Elec       q    Type
REMARK                         _______ _______ _______ _____ _____    ______ ____
ROOT
ATOM      1  C   UNL     1       1.386   8.821  20.057  0.00  0.00    +0.000 C 
ENDROOT
BRANCH   1   2
ATOM      2  N   UNL     1       1.900   7.544  19.632  0.00  0.00    +0.000 N 
ATOM      3  C   UNL     1       1.695   6.332  20.403  0.00  0.00    +0.000 C 
ATOM      4  C   UNL     1       2.409   5.298  19.585  0.00  0.00    +0.000 A 
ATOM      5  C   UNL     1       2.981   5.908  18.465  0.00  0.00    +0.000 A 
ATOM      6  C   UNL     1       3.686   5.204  17.505  0.00  0.00    +0.000 A 
ATOM      7  C   UNL     1       3.818   3.829  17.684  0.00  0.00    +0.000 A 
ATOM      8  C   UNL     1       3.263   3.199  18.815  0.00  0.00    +0.000 A 
ATOM      9  C   UNL     1       2.551   3.928  19.791  0.00  0.00    +0.000 A 
ATOM     10  C   UNL     1       2.692   7.349  18.520  0.00  0.00    +0.000 C 
ATOM     11  O   UNL     1       3.110   8.170  17.727  0.00  0.00    +0.000 OA
BRANCH   9  12
ATOM     12  C   UNL     1       1.991   3.217  20.994  0.00  0.00    +0.000 C 
ATOM     13  F   UNL     1       0.630   3.203  21.043  0.00  0.00    +0.000 F 
ATOM     14  F   UNL     1       2.380   1.914  21.057  0.00  0.00    +0.000 F 
ATOM     15  F   UNL     1       2.396   3.785  22.163  0.00  0.00    +0.000 F 
ENDBRANCH   9  12
ENDBRANCH   1   2
BRANCH   1  19
ATOM     16  C   UNL     1      -0.999  11.047  22.716  0.00  0.00    +0.000 C 
ATOM     17  C   UNL     1      -0.380   9.923  23.172  0.00  0.00    +0.000 C 
ATOM     18  C   UNL     1       0.233   9.663  21.874  0.00  0.00    +0.000 C 
ATOM     19  N   UNL     1       1.021   8.742  21.465  0.00  0.00    +0.000 NA
ATOM     20  C   UNL     1      -0.431  10.885  21.295  0.00  0.00    +0.000 C 
BRANCH  16  21
ATOM     21  C   UNL     1      -1.906  12.084  23.387  0.00  0.00    +0.000 C 
BRANCH  21  22
ATOM     22  C   UNL     1      -2.884  12.763  22.443  0.00  0.00    +0.000 C 
BRANCH  22  28
ATOM     23  C   UNL     1      -4.982  15.056  21.902  0.00  0.00    +0.000 C 
ATOM     24  N   UNL     1      -5.124  13.946  22.803  0.00  0.00    +0.000 N 
ATOM     25  C   UNL     1      -6.197  13.718  23.610  0.00  0.00    +0.000 A 
ATOM     26  N   UNL     1      -6.007  12.615  24.291  0.00  0.00    +0.000 NA
ATOM     27  N   UNL     1      -4.780  12.112  23.933  0.00  0.00    +0.000 NA
ATOM     28  C   UNL     1      -4.241  12.920  23.042  0.00  0.00    +0.000 A 
ENDBRANCH  22  28
ENDBRANCH  21  22
ENDBRANCH  16  21
ENDBRANCH   1  19
TORSDOF 6
ENDMDL
MODEL 9
REMARK VINA RESULT:      -7.9      6.605      9.875
REMARK  Name = 
REMARK  7 active torsions:
REMARK  status: ('A' for Active; 'I' for Inactive)
REMARK    1  A    between atoms: C_1  and  N_2
REMARK    2  A    between atoms: C_6  and  C_7
REMARK    3  A    between atoms: C_7  and  C_8
REMARK    4  A    between atoms: C_8  and  C_9
REMARK    5  A    between atoms: N_12  and  C_13
REMARK    6  A    between atoms: C_13  and  N_14
REMARK    7  A    between atoms: C_21  and  C_22
REMARK                            x       y       z     vdW  Elec       q    Type
REMARK                         _______ _______ _______ _____ _____    ______ ____
ROOT
ATOM      1  C   UNL     1       1.758   9.188  18.179  0.00  0.00    +0.000 C 
ENDROOT
BRANCH   1   2
ATOM      2  N   UNL     1       0.530   9.906  18.407  0.00  0.00    +0.000 N 
ATOM      3  C   UNL     1      -0.569   9.880  17.460  0.00  0.00    +0.000 C 
ATOM      4  C   UNL     1      -1.588  10.764  18.114  0.00  0.00    +0.000 A 
ATOM      5  C   UNL     1      -1.070  11.255  19.316  0.00  0.00    +0.000 A 
ATOM      6  C   UNL     1      -1.790  12.081  20.161  0.00  0.00    +0.000 A 
ATOM      7  C   UNL     1      -3.084  12.425  19.775  0.00  0.00    +0.000 A 
ATOM      8  C   UNL     1      -3.616  11.953  18.559  0.00  0.00    +0.000 A 
ATOM      9  C   UNL     1      -2.871  11.116  17.702  0.00  0.00    +0.000 A 
ATOM     10  C   UNL     1       0.297  10.742  19.479  0.00  0.00    +0.000 C 
ATOM     11  O   UNL     1       1.045  11.040  20.390  0.00  0.00    +0.000 OA
BRANCH   9  12
ATOM     12  C   UNL     1      -3.473  10.651  16.402  0.00  0.00    +0.000 C 
ATOM     13  F   UNL     1      -2.892  11.198  15.299  0.00  0.00    +0.000 F 
ATOM     14  F   UNL     1      -3.385   9.302  16.241  0.00  0.00    +0.000 F 
ATOM     15  F   UNL     1      -4.797  10.953  16.311  0.00  0.00    +0.000 F 
ENDBRANCH   9  12
ENDBRANCH   1   2
BRANCH   1  19
ATOM     16  C   UNL     1       3.739   5.488  18.489  0.00  0.00    +0.000 C 
ATOM     17  C   UNL     1       3.033   5.947  19.559  0.00  0.00    +0.000 C 
ATOM     18  C   UNL     1       2.627   7.155  18.848  0.00  0.00    +0.000 C 
ATOM     19  N   UNL     1       1.895   8.147  19.187  0.00  0.00    +0.000 NA
ATOM     20  C   UNL     1       3.399   6.719  17.629  0.00  0.00    +0.000 C 
BRANCH  16  21
ATOM     21  C   UNL     1       4.549   4.212  18.243  0.00  0.00    +0.000 C 
BRANCH  21  22
ATOM     22  C   UNL     1       3.732   2.932  18.296  0.00  0.00    +0.000 C 
BRANCH  22  28
ATOM     23  C   UNL     1       0.663   2.637  18.965  0.00  0.00    +0.000 C 
ATOM     24  N   UNL     1       1.760   2.607  19.893  0.00  0.00    +0.000 N 
ATOM     25  C   UNL     1       1.646   2.476  21.244  0.00  0.00    +0.000 A 
ATOM     26  N   UNL     1       2.839   2.475  21.786  0.00  0.00    +0.000 NA
ATOM     27  N   UNL     1       3.756   2.618  20.773  0.00  0.00    +0.000 NA
ATOM     28  C   UNL     1       3.106   2.708  19.631  0.00  0.00    +0.000 A 
ENDBRANCH  22  28
ENDBRANCH  21  22
ENDBRANCH  16  21
ENDBRANCH   1  19
TORSDOF 6
ENDMDL
