MODEL 1
REMARK VINA RESULT:      -9.0      0.000      0.000
REMARK  Name = 
REMARK  5 active torsions:
REMARK  status: ('A' for Active; 'I' for Inactive)
REMARK    1  A    between atoms: C_2  and  O_5
REMARK    2  A    between atoms: O_5  and  C_6
REMARK    3  A    between atoms: C_11  and  C_12
REMARK    4  A    between atoms: C_14  and  C_15
REMARK    5  A    between atoms: C_17  and  C_18
REMARK                            x       y       z     vdW  Elec       q    Type
REMARK                         _______ _______ _______ _____ _____    ______ ____
ROOT
ATOM      1  C   UNL     1       3.014   5.711  18.707  0.00  0.00    +0.000 A 
ATOM      2  N   UNL     1       2.263   6.267  19.615  0.00  0.00    +0.000 NA
ATOM      3  C   UNL     1       2.248   7.591  19.236  0.00  0.00    +0.000 A 
ATOM      4  N   UNL     1       2.988   7.856  18.148  0.00  0.00    +0.000 NA
ATOM      5  O   UNL     1       3.496   6.609  17.791  0.00  0.00    +0.000 OA
ENDROOT
BRANCH   3   6
ATOM      6  C   UNL     1       1.383   8.546  19.910  0.00  0.00    +0.000 A 
ATOM      7  C   UNL     1       0.926   9.659  19.181  0.00  0.00    +0.000 A 
ATOM      8  C   UNL     1       0.253  10.718  19.793  0.00  0.00    +0.000 A 
ATOM      9  C   UNL     1      -0.031  10.552  21.141  0.00  0.00    +0.000 A 
ATOM     10  N   UNL     1      -0.582  11.376  22.084  0.00  0.00    +0.000 N 
ATOM     11  C   UNL     1      -0.950  10.592  23.139  0.00  0.00    +0.000 A 
ATOM     12  N   UNL     1      -0.345   9.426  23.092  0.00  0.00    +0.000 NA
ATOM     13  C   UNL     1       0.257   9.389  21.857  0.00  0.00    +0.000 A 
ATOM     14  C   UNL     1       1.044   8.396  21.262  0.00  0.00    +0.000 A 
ATOM     15  H   UNL     1      -0.722  12.372  22.000  0.00  0.00    +0.000 HD
ENDBRANCH   3   6
BRANCH   1  18
ATOM     16  C   UNL     1       4.412   3.612  17.763  0.00  0.00    +0.000 C 
ATOM     17  C   UNL     1       2.952   3.471  17.433  0.00  0.00    +0.000 C 
ATOM     18  C   UNL     1       3.372   4.245  18.659  0.00  0.00    +0.000 C 
BRANCH  16  24
ATOM     19  C   UNL     1       6.690   4.477  16.821  0.00  0.00    +0.000 A 
ATOM     20  C   UNL     1       7.503   4.666  15.685  0.00  0.00    +0.000 A 
ATOM     21  C   UNL     1       6.947   4.696  14.411  0.00  0.00    +0.000 A 
ATOM     22  C   UNL     1       5.584   4.511  14.254  0.00  0.00    +0.000 A 
ATOM     23  C   UNL     1       4.800   4.239  15.370  0.00  0.00    +0.000 A 
ATOM     24  C   UNL     1       5.328   4.170  16.681  0.00  0.00    +0.000 A 
BRANCH  19  25
ATOM     25  O   UNL     1       7.209   4.502  18.096  0.00  0.00    +0.000 OA
BRANCH  25  27
ATOM     26  F   UNL     1       8.331   6.142  19.317  0.00  0.00    +0.000 F 
ATOM     27  C   UNL     1       7.147   5.746  18.793  0.00  0.00    +0.000 C 
ATOM     28  F   UNL     1       6.241   5.658  19.792  0.00  0.00    +0.000 F 
ATOM     29  F   UNL     1       6.734   6.715  17.946  0.00  0.00    +0.000 F 
ENDBRANCH  25  27
ENDBRANCH  19  25
ENDBRANCH  16  24
ENDBRANCH   1  18
TORSDOF 5
ENDMDL
MODEL 2
REMARK VINA RESULT:      -8.6      0.724      1.346
REMARK  Name = 
REMARK  5 active torsions:
REMARK  status: ('A' for Active; 'I' for Inactive)
REMARK    1  A    between atoms: C_2  and  O_5
REMARK    2  A    between atoms: O_5  and  C_6
REMARK    3  A    between atoms: C_11  and  C_12
REMARK    4  A    between atoms: C_14  and  C_15
REMARK    5  A    between atoms: C_17  and  C_18
REMARK                            x       y       z     vdW  Elec       q    Type
REMARK                         _______ _______ _______ _____ _____    ______ ____
ROOT
ATOM      1  C   UNL     1       2.739   5.741  18.857  0.00  0.00    +0.000 A 
ATOM      2  N   UNL     1       2.213   6.350  19.882  0.00  0.00    +0.000 NA
ATOM      3  C   UNL     1       2.088   7.648  19.440  0.00  0.00    +0.000 A 
ATOM      4  N   UNL     1       2.547   7.848  18.195  0.00  0.00    +0.000 NA
ATOM      5  O   UNL     1       2.978   6.583  17.802  0.00  0.00    +0.000 OA
ENDROOT
BRANCH   3   6
ATOM      6  C   UNL     1       1.389   8.641  20.241  0.00  0.00    +0.000 A 
ATOM      7  C   UNL     1       1.317   8.442  21.632  0.00  0.00    +0.000 A 
ATOM      8  C   UNL     1       0.511   9.234  22.451  0.00  0.00    +0.000 A 
ATOM      9  C   UNL     1      -0.126  10.295  21.823  0.00  0.00    +0.000 A 
ATOM     10  N   UNL     1      -1.041  11.218  22.254  0.00  0.00    +0.000 N 
ATOM     11  C   UNL     1      -1.054  12.230  21.338  0.00  0.00    +0.000 A 
ATOM     12  N   UNL     1      -0.511  11.846  20.204  0.00  0.00    +0.000 NA
ATOM     13  C   UNL     1       0.056  10.624  20.479  0.00  0.00    +0.000 A 
ATOM     14  C   UNL     1       0.762   9.746  19.648  0.00  0.00    +0.000 A 
ATOM     15  H   UNL     1      -1.579  11.173  23.107  0.00  0.00    +0.000 HD
ENDBRANCH   3   6
BRANCH   1  18
ATOM     16  C   UNL     1       4.204   3.656  17.985  0.00  0.00    +0.000 C 
ATOM     17  C   UNL     1       2.772   3.521  17.546  0.00  0.00    +0.000 C 
ATOM     18  C   UNL     1       3.100   4.276  18.811  0.00  0.00    +0.000 C 
BRANCH  16  24
ATOM     19  C   UNL     1       6.566   4.448  17.199  0.00  0.00    +0.000 A 
ATOM     20  C   UNL     1       7.439   4.664  16.114  0.00  0.00    +0.000 A 
ATOM     21  C   UNL     1       6.943   4.811  14.823  0.00  0.00    +0.000 A 
ATOM     22  C   UNL     1       5.580   4.716  14.597  0.00  0.00    +0.000 A 
ATOM     23  C   UNL     1       4.733   4.417  15.659  0.00  0.00    +0.000 A 
ATOM     24  C   UNL     1       5.196   4.230  16.983  0.00  0.00    +0.000 A 
BRANCH  19  25
ATOM     25  O   UNL     1       7.028   4.357  18.493  0.00  0.00    +0.000 OA
BRANCH  25  27
ATOM     26  F   UNL     1       7.954   5.536  20.279  0.00  0.00    +0.000 F 
ATOM     27  C   UNL     1       7.083   5.571  19.243  0.00  0.00    +0.000 C 
ATOM     28  F   UNL     1       5.852   5.858  19.724  0.00  0.00    +0.000 F 
ATOM     29  F   UNL     1       7.456   6.584  18.433  0.00  0.00    +0.000 F 
ENDBRANCH  25  27
ENDBRANCH  19  25
ENDBRANCH  16  24
ENDBRANCH   1  18
TORSDOF 5
ENDMDL
MODEL 3
REMARK VINA RESULT:      -8.6      4.809      6.942
REMARK  Name = 
REMARK  5 active torsions:
REMARK  status: ('A' for Active; 'I' for Inactive)
REMARK    1  A    between atoms: C_2  and  O_5
REMARK    2  A    between atoms: O_5  and  C_6
REMARK    3  A    between atoms: C_11  and  C_12
REMARK    4  A    between atoms: C_14  and  C_15
REMARK    5  A    between atoms: C_17  and  C_18
REMARK                            x       y       z     vdW  Elec       q    Type
REMARK                         _______ _______ _______ _____ _____    ______ ____
ROOT
ATOM      1  C   UNL     1       7.876   7.086  18.164  0.00  0.00    +0.000 A 
ATOM      2  N   UNL     1       8.640   7.957  18.760  0.00  0.00    +0.000 NA
ATOM      3  C   UNL     1       8.322   9.135  18.122  0.00  0.00    +0.000 A 
ATOM      4  N   UNL     1       7.414   8.999  17.143  0.00  0.00    +0.000 NA
ATOM      5  O   UNL     1       7.111   7.639  17.170  0.00  0.00    +0.000 OA
ENDROOT
BRANCH   3   6
ATOM      6  C   UNL     1       8.851  10.404  18.599  0.00  0.00    +0.000 A 
ATOM      7  C   UNL     1       9.525  10.422  19.833  0.00  0.00    +0.000 A 
ATOM      8  C   UNL     1       9.896  11.614  20.455  0.00  0.00    +0.000 A 
ATOM      9  C   UNL     1       9.657  12.772  19.729  0.00  0.00    +0.000 A 
ATOM     10  N   UNL     1       9.795  14.101  20.024  0.00  0.00    +0.000 N 
ATOM     11  C   UNL     1       9.756  14.783  18.842  0.00  0.00    +0.000 A 
ATOM     12  N   UNL     1       9.238  14.041  17.888  0.00  0.00    +0.000 NA
ATOM     13  C   UNL     1       9.144  12.781  18.431  0.00  0.00    +0.000 A 
ATOM     14  C   UNL     1       8.660  11.591  17.877  0.00  0.00    +0.000 A 
ATOM     15  H   UNL     1       9.936  14.499  20.941  0.00  0.00    +0.000 HD
ENDBRANCH   3   6
BRANCH   1  18
ATOM     16  C   UNL     1       6.602   4.739  18.514  0.00  0.00    +0.000 C 
ATOM     17  C   UNL     1       7.231   5.199  19.799  0.00  0.00    +0.000 C 
ATOM     18  C   UNL     1       7.837   5.610  18.479  0.00  0.00    +0.000 C 
BRANCH  16  24
ATOM     19  C   UNL     1       4.323   4.587  17.245  0.00  0.00    +0.000 A 
ATOM     20  C   UNL     1       2.917   4.635  17.333  0.00  0.00    +0.000 A 
ATOM     21  C   UNL     1       2.294   5.254  18.411  0.00  0.00    +0.000 A 
ATOM     22  C   UNL     1       3.061   5.806  19.422  0.00  0.00    +0.000 A 
ATOM     23  C   UNL     1       4.446   5.679  19.373  0.00  0.00    +0.000 A 
ATOM     24  C   UNL     1       5.121   5.032  18.311  0.00  0.00    +0.000 A 
BRANCH  19  25
ATOM     25  O   UNL     1       4.962   4.031  16.161  0.00  0.00    +0.000 OA
BRANCH  25  27
ATOM     26  F   UNL     1       4.990   6.197  15.298  0.00  0.00    +0.000 F 
ATOM     27  C   UNL     1       5.463   4.935  15.175  0.00  0.00    +0.000 C 
ATOM     28  F   UNL     1       5.152   4.474  13.943  0.00  0.00    +0.000 F 
ATOM     29  F   UNL     1       6.809   4.996  15.264  0.00  0.00    +0.000 F 
ENDBRANCH  25  27
ENDBRANCH  19  25
ENDBRANCH  16  24
ENDBRANCH   1  18
TORSDOF 5
ENDMDL
MODEL 4
REMARK VINA RESULT:      -8.5      4.716      7.079
REMARK  Name = 
REMARK  5 active torsions:
REMARK  status: ('A' for Active; 'I' for Inactive)
REMARK    1  A    between atoms: C_2  and  O_5
REMARK    2  A    between atoms: O_5  and  C_6
REMARK    3  A    between atoms: C_11  and  C_12
REMARK    4  A    between atoms: C_14  and  C_15
REMARK    5  A    between atoms: C_17  and  C_18
REMARK                            x       y       z     vdW  Elec       q    Type
REMARK                         _______ _______ _______ _____ _____    ______ ____
ROOT
ATOM      1  C   UNL     1       7.204   6.812  17.227  0.00  0.00    +0.000 A 
ATOM      2  N   UNL     1       7.307   8.110  17.182  0.00  0.00    +0.000 NA
ATOM      3  C   UNL     1       8.118   8.394  18.259  0.00  0.00    +0.000 A 
ATOM      4  N   UNL     1       8.484   7.314  18.967  0.00  0.00    +0.000 NA
ATOM      5  O   UNL     1       7.882   6.260  18.283  0.00  0.00    +0.000 OA
ENDROOT
BRANCH   3   6
ATOM      6  C   UNL     1       8.613   9.744  18.479  0.00  0.00    +0.000 A 
ATOM      7  C   UNL     1       8.166  10.765  17.622  0.00  0.00    +0.000 A 
ATOM      8  C   UNL     1       8.728  12.042  17.637  0.00  0.00    +0.000 A 
ATOM      9  C   UNL     1       9.677  12.271  18.624  0.00  0.00    +0.000 A 
ATOM     10  N   UNL     1      10.494  13.333  18.902  0.00  0.00    +0.000 N 
ATOM     11  C   UNL     1      10.959  13.161  20.174  0.00  0.00    +0.000 A 
ATOM     12  N   UNL     1      10.804  11.918  20.568  0.00  0.00    +0.000 NA
ATOM     13  C   UNL     1      10.023  11.333  19.599  0.00  0.00    +0.000 A 
ATOM     14  C   UNL     1       9.547  10.022  19.488  0.00  0.00    +0.000 A 
ATOM     15  H   UNL     1      10.687  14.114  18.292  0.00  0.00    +0.000 HD
ENDBRANCH   3   6
BRANCH   1  18
ATOM     16  C   UNL     1       4.944   5.599  16.407  0.00  0.00    +0.000 C 
ATOM     17  C   UNL     1       6.012   4.586  16.710  0.00  0.00    +0.000 C 
ATOM     18  C   UNL     1       6.401   5.973  16.263  0.00  0.00    +0.000 C 
BRANCH  16  24
ATOM     19  C   UNL     1       3.514   4.989  18.507  0.00  0.00    +0.000 A 
ATOM     20  C   UNL     1       2.806   5.460  19.631  0.00  0.00    +0.000 A 
ATOM     21  C   UNL     1       2.355   6.774  19.687  0.00  0.00    +0.000 A 
ATOM     22  C   UNL     1       2.629   7.638  18.640  0.00  0.00    +0.000 A 
ATOM     23  C   UNL     1       3.402   7.192  17.573  0.00  0.00    +0.000 A 
ATOM     24  C   UNL     1       3.906   5.872  17.488  0.00  0.00    +0.000 A 
BRANCH  19  25
ATOM     25  O   UNL     1       3.919   3.678  18.404  0.00  0.00    +0.000 OA
BRANCH  25  27
ATOM     26  F   UNL     1       2.409   3.121  16.716  0.00  0.00    +0.000 F 
ATOM     27  C   UNL     1       2.964   2.747  17.893  0.00  0.00    +0.000 C 
ATOM     28  F   UNL     1       1.977   2.572  18.800  0.00  0.00    +0.000 F 
ATOM     29  F   UNL     1       3.562   1.552  17.697  0.00  0.00    +0.000 F 
ENDBRANCH  25  27
ENDBRANCH  19  25
ENDBRANCH  16  24
ENDBRANCH   1  18
TORSDOF 5
ENDMDL
MODEL 5
REMARK VINA RESULT:      -8.4      4.859      6.965
REMARK  Name = 
REMARK  5 active torsions:
REMARK  status: ('A' for Active; 'I' for Inactive)
REMARK    1  A    between atoms: C_2  and  O_5
REMARK    2  A    between atoms: O_5  and  C_6
REMARK    3  A    between atoms: C_11  and  C_12
REMARK    4  A    between atoms: C_14  and  C_15
REMARK    5  A    between atoms: C_17  and  C_18
REMARK                            x       y       z     vdW  Elec       q    Type
REMARK                         _______ _______ _______ _____ _____    ______ ____
ROOT
ATOM      1  C   UNL     1       7.772   7.100  18.114  0.00  0.00    +0.000 A 
ATOM      2  N   UNL     1       8.564   8.018  18.594  0.00  0.00    +0.000 NA
ATOM      3  C   UNL     1       8.151   9.156  17.937  0.00  0.00    +0.000 A 
ATOM      4  N   UNL     1       7.159   8.950  17.057  0.00  0.00    +0.000 NA
ATOM      5  O   UNL     1       6.901   7.586  17.174  0.00  0.00    +0.000 OA
ENDROOT
BRANCH   3   6
ATOM      6  C   UNL     1       8.685  10.459  18.304  0.00  0.00    +0.000 A 
ATOM      7  C   UNL     1       8.232  11.587  17.596  0.00  0.00    +0.000 A 
ATOM      8  C   UNL     1       8.824  12.841  17.747  0.00  0.00    +0.000 A 
ATOM      9  C   UNL     1       9.812  12.928  18.718  0.00  0.00    +0.000 A 
ATOM     10  N   UNL     1      10.662  13.932  19.094  0.00  0.00    +0.000 N 
ATOM     11  C   UNL     1      11.167  13.596  20.317  0.00  0.00    +0.000 A 
ATOM     12  N   UNL     1      10.997  12.316  20.560  0.00  0.00    +0.000 NA
ATOM     13  C   UNL     1      10.170  11.871  19.556  0.00  0.00    +0.000 A 
ATOM     14  C   UNL     1       9.659  10.592  19.303  0.00  0.00    +0.000 A 
ATOM     15  H   UNL     1      10.852  14.779  18.578  0.00  0.00    +0.000 HD
ENDBRANCH   3   6
BRANCH   1  18
ATOM     16  C   UNL     1       6.620   4.707  18.558  0.00  0.00    +0.000 C 
ATOM     17  C   UNL     1       7.207   5.259  19.827  0.00  0.00    +0.000 C 
ATOM     18  C   UNL     1       7.808   5.641  18.496  0.00  0.00    +0.000 C 
BRANCH  16  24
ATOM     19  C   UNL     1       4.380   4.419  17.245  0.00  0.00    +0.000 A 
ATOM     20  C   UNL     1       2.972   4.382  17.305  0.00  0.00    +0.000 A 
ATOM     21  C   UNL     1       2.292   4.963  18.369  0.00  0.00    +0.000 A 
ATOM     22  C   UNL     1       3.005   5.560  19.395  0.00  0.00    +0.000 A 
ATOM     23  C   UNL     1       4.395   5.516  19.373  0.00  0.00    +0.000 A 
ATOM     24  C   UNL     1       5.129   4.911  18.326  0.00  0.00    +0.000 A 
BRANCH  19  25
ATOM     25  O   UNL     1       5.073   3.902  16.174  0.00  0.00    +0.000 OA
BRANCH  25  27
ATOM     26  F   UNL     1       6.886   5.028  15.234  0.00  0.00    +0.000 F 
ATOM     27  C   UNL     1       5.546   4.835  15.202  0.00  0.00    +0.000 C 
ATOM     28  F   UNL     1       4.934   6.026  15.387  0.00  0.00    +0.000 F 
ATOM     29  F   UNL     1       5.229   4.395  13.965  0.00  0.00    +0.000 F 
ENDBRANCH  25  27
ENDBRANCH  19  25
ENDBRANCH  16  24
ENDBRANCH   1  18
TORSDOF 5
ENDMDL
MODEL 6
REMARK VINA RESULT:      -8.4      4.572      6.964
REMARK  Name = 
REMARK  5 active torsions:
REMARK  status: ('A' for Active; 'I' for Inactive)
REMARK    1  A    between atoms: C_2  and  O_5
REMARK    2  A    between atoms: O_5  and  C_6
REMARK    3  A    between atoms: C_11  and  C_12
REMARK    4  A    between atoms: C_14  and  C_15
REMARK    5  A    between atoms: C_17  and  C_18
REMARK                            x       y       z     vdW  Elec       q    Type
REMARK                         _______ _______ _______ _____ _____    ______ ____
ROOT
ATOM      1  C   UNL     1       7.181   6.767  17.216  0.00  0.00    +0.000 A 
ATOM      2  N   UNL     1       7.291   8.065  17.166  0.00  0.00    +0.000 NA
ATOM      3  C   UNL     1       8.108   8.347  18.239  0.00  0.00    +0.000 A 
ATOM      4  N   UNL     1       8.470   7.267  18.949  0.00  0.00    +0.000 NA
ATOM      5  O   UNL     1       7.859   6.214  18.270  0.00  0.00    +0.000 OA
ENDROOT
BRANCH   3   6
ATOM      6  C   UNL     1       8.613   9.694  18.453  0.00  0.00    +0.000 A 
ATOM      7  C   UNL     1       9.477   9.916  19.541  0.00  0.00    +0.000 A 
ATOM      8  C   UNL     1       9.855  11.200  19.935  0.00  0.00    +0.000 A 
ATOM      9  C   UNL     1       9.414  12.234  19.121  0.00  0.00    +0.000 A 
ATOM     10  N   UNL     1       9.500  13.596  19.217  0.00  0.00    +0.000 N 
ATOM     11  C   UNL     1       9.218  14.106  17.983  0.00  0.00    +0.000 A 
ATOM     12  N   UNL     1       8.607  13.215  17.234  0.00  0.00    +0.000 NA
ATOM     13  C   UNL     1       8.697  12.038  17.939  0.00  0.00    +0.000 A 
ATOM     14  C   UNL     1       8.218  10.759  17.632  0.00  0.00    +0.000 A 
ATOM     15  H   UNL     1       9.759  14.122  20.039  0.00  0.00    +0.000 HD
ENDBRANCH   3   6
BRANCH   1  18
ATOM     16  C   UNL     1       4.919   5.538  16.425  0.00  0.00    +0.000 C 
ATOM     17  C   UNL     1       6.005   4.533  16.694  0.00  0.00    +0.000 C 
ATOM     18  C   UNL     1       6.369   5.931  16.256  0.00  0.00    +0.000 C 
BRANCH  16  24
ATOM     19  C   UNL     1       3.572   4.904  18.571  0.00  0.00    +0.000 A 
ATOM     20  C   UNL     1       2.874   5.363  19.706  0.00  0.00    +0.000 A 
ATOM     21  C   UNL     1       2.370   6.658  19.754  0.00  0.00    +0.000 A 
ATOM     22  C   UNL     1       2.580   7.515  18.686  0.00  0.00    +0.000 A 
ATOM     23  C   UNL     1       3.343   7.084  17.606  0.00  0.00    +0.000 A 
ATOM     24  C   UNL     1       3.899   5.785  17.529  0.00  0.00    +0.000 A 
BRANCH  19  25
ATOM     25  O   UNL     1       4.029   3.609  18.477  0.00  0.00    +0.000 OA
BRANCH  25  27
ATOM     26  F   UNL     1       2.297   2.216  19.183  0.00  0.00    +0.000 F 
ATOM     27  C   UNL     1       3.067   2.609  18.141  0.00  0.00    +0.000 C 
ATOM     28  F   UNL     1       3.700   1.525  17.639  0.00  0.00    +0.000 F 
ATOM     29  F   UNL     1       2.241   3.084  17.183  0.00  0.00    +0.000 F 
ENDBRANCH  25  27
ENDBRANCH  19  25
ENDBRANCH  16  24
ENDBRANCH   1  18
TORSDOF 5
ENDMDL
MODEL 7
REMARK VINA RESULT:      -8.3      4.273      6.791
REMARK  Name = 
REMARK  5 active torsions:
REMARK  status: ('A' for Active; 'I' for Inactive)
REMARK    1  A    between atoms: C_2  and  O_5
REMARK    2  A    between atoms: O_5  and  C_6
REMARK    3  A    between atoms: C_11  and  C_12
REMARK    4  A    between atoms: C_14  and  C_15
REMARK    5  A    between atoms: C_17  and  C_18
REMARK                            x       y       z     vdW  Elec       q    Type
REMARK                         _______ _______ _______ _____ _____    ______ ____
ROOT
ATOM      1  C   UNL     1       6.804   6.612  17.019  0.00  0.00    +0.000 A 
ATOM      2  N   UNL     1       6.942   7.907  17.032  0.00  0.00    +0.000 NA
ATOM      3  C   UNL     1       7.860   8.111  18.038  0.00  0.00    +0.000 A 
ATOM      4  N   UNL     1       8.258   6.985  18.651  0.00  0.00    +0.000 NA
ATOM      5  O   UNL     1       7.562   5.986  17.975  0.00  0.00    +0.000 OA
ENDROOT
BRANCH   3   6
ATOM      6  C   UNL     1       8.415   9.434  18.279  0.00  0.00    +0.000 A 
ATOM      7  C   UNL     1       9.358   9.581  19.313  0.00  0.00    +0.000 A 
ATOM      8  C   UNL     1       9.798  10.835  19.739  0.00  0.00    +0.000 A 
ATOM      9  C   UNL     1       9.331  11.918  19.006  0.00  0.00    +0.000 A 
ATOM     10  N   UNL     1       9.462  13.271  19.160  0.00  0.00    +0.000 N 
ATOM     11  C   UNL     1       9.109  13.847  17.973  0.00  0.00    +0.000 A 
ATOM     12  N   UNL     1       8.424  13.009  17.228  0.00  0.00    +0.000 NA
ATOM     13  C   UNL     1       8.530  11.797  17.870  0.00  0.00    +0.000 A 
ATOM     14  C   UNL     1       7.996  10.547  17.537  0.00  0.00    +0.000 A 
ATOM     15  H   UNL     1       9.791  13.750  19.985  0.00  0.00    +0.000 HD
ENDBRANCH   3   6
BRANCH   1  18
ATOM     16  C   UNL     1       4.693   5.020  16.509  0.00  0.00    +0.000 C 
ATOM     17  C   UNL     1       5.977   4.341  16.121  0.00  0.00    +0.000 C 
ATOM     18  C   UNL     1       5.888   5.848  16.095  0.00  0.00    +0.000 C 
BRANCH  16  24
ATOM     19  C   UNL     1       2.868   5.126  18.376  0.00  0.00    +0.000 A 
ATOM     20  C   UNL     1       2.267   4.485  19.478  0.00  0.00    +0.000 A 
ATOM     21  C   UNL     1       2.940   3.485  20.171  0.00  0.00    +0.000 A 
ATOM     22  C   UNL     1       4.203   3.096  19.758  0.00  0.00    +0.000 A 
ATOM     23  C   UNL     1       4.755   3.671  18.618  0.00  0.00    +0.000 A 
ATOM     24  C   UNL     1       4.094   4.671  17.866  0.00  0.00    +0.000 A 
BRANCH  19  25
ATOM     25  O   UNL     1       2.245   6.158  17.711  0.00  0.00    +0.000 OA
BRANCH  25  27
ATOM     26  F   UNL     1       2.524   7.577  19.540  0.00  0.00    +0.000 F 
ATOM     27  C   UNL     1       2.498   7.479  18.190  0.00  0.00    +0.000 C 
ATOM     28  F   UNL     1       1.553   8.319  17.713  0.00  0.00    +0.000 F 
ATOM     29  F   UNL     1       3.696   7.902  17.730  0.00  0.00    +0.000 F 
ENDBRANCH  25  27
ENDBRANCH  19  25
ENDBRANCH  16  24
ENDBRANCH   1  18
TORSDOF 5
ENDMDL
MODEL 8
REMARK VINA RESULT:      -8.3      1.956      2.966
REMARK  Name = 
REMARK  5 active torsions:
REMARK  status: ('A' for Active; 'I' for Inactive)
REMARK    1  A    between atoms: C_2  and  O_5
REMARK    2  A    between atoms: O_5  and  C_6
REMARK    3  A    between atoms: C_11  and  C_12
REMARK    4  A    between atoms: C_14  and  C_15
REMARK    5  A    between atoms: C_17  and  C_18
REMARK                            x       y       z     vdW  Elec       q    Type
REMARK                         _______ _______ _______ _____ _____    ______ ____
ROOT
ATOM      1  C   UNL     1       2.474   6.223  18.992  0.00  0.00    +0.000 A 
ATOM      2  N   UNL     1       1.962   6.720  20.082  0.00  0.00    +0.000 NA
ATOM      3  C   UNL     1       1.767   8.045  19.757  0.00  0.00    +0.000 A 
ATOM      4  N   UNL     1       2.171   8.368  18.518  0.00  0.00    +0.000 NA
ATOM      5  O   UNL     1       2.638   7.160  18.005  0.00  0.00    +0.000 OA
ENDROOT
BRANCH   3   6
ATOM      6  C   UNL     1       1.059   8.935  20.663  0.00  0.00    +0.000 A 
ATOM      7  C   UNL     1       1.179   8.710  22.046  0.00  0.00    +0.000 A 
ATOM      8  C   UNL     1       0.391   9.388  22.977  0.00  0.00    +0.000 A 
ATOM      9  C   UNL     1      -0.438  10.374  22.459  0.00  0.00    +0.000 A 
ATOM     10  N   UNL     1      -1.396  11.174  23.021  0.00  0.00    +0.000 N 
ATOM     11  C   UNL     1      -1.638  12.189  22.141  0.00  0.00    +0.000 A 
ATOM     12  N   UNL     1      -1.196  11.889  20.941  0.00  0.00    +0.000 NA
ATOM     13  C   UNL     1      -0.460  10.740  21.113  0.00  0.00    +0.000 A 
ATOM     14  C   UNL     1       0.239   9.965  20.180  0.00  0.00    +0.000 A 
ATOM     15  H   UNL     1      -1.818  11.053  23.930  0.00  0.00    +0.000 HD
ENDBRANCH   3   6
BRANCH   1  18
ATOM     16  C   UNL     1       4.284   4.297  18.481  0.00  0.00    +0.000 C 
ATOM     17  C   UNL     1       3.230   4.334  17.410  0.00  0.00    +0.000 C 
ATOM     18  C   UNL     1       2.892   4.784  18.810  0.00  0.00    +0.000 C 
BRANCH  16  24
ATOM     19  C   UNL     1       5.984   5.599  16.984  0.00  0.00    +0.000 A 
ATOM     20  C   UNL     1       7.054   6.516  16.934  0.00  0.00    +0.000 A 
ATOM     21  C   UNL     1       7.838   6.753  18.058  0.00  0.00    +0.000 A 
ATOM     22  C   UNL     1       7.549   6.102  19.245  0.00  0.00    +0.000 A 
ATOM     23  C   UNL     1       6.439   5.265  19.311  0.00  0.00    +0.000 A 
ATOM     24  C   UNL     1       5.597   5.018  18.201  0.00  0.00    +0.000 A 
BRANCH  19  25
ATOM     25  O   UNL     1       5.230   5.306  15.870  0.00  0.00    +0.000 OA
BRANCH  25  27
ATOM     26  F   UNL     1       6.984   4.900  14.387  0.00  0.00    +0.000 F 
ATOM     27  C   UNL     1       5.821   4.436  14.904  0.00  0.00    +0.000 C 
ATOM     28  F   UNL     1       4.950   4.231  13.890  0.00  0.00    +0.000 F 
ATOM     29  F   UNL     1       6.079   3.240  15.474  0.00  0.00    +0.000 F 
ENDBRANCH  25  27
ENDBRANCH  19  25
ENDBRANCH  16  24
ENDBRANCH   1  18
TORSDOF 5
ENDMDL
MODEL 9
REMARK VINA RESULT:      -8.3      1.722      2.221
REMARK  Name = 
REMARK  5 active torsions:
REMARK  status: ('A' for Active; 'I' for Inactive)
REMARK    1  A    between atoms: C_2  and  O_5
REMARK    2  A    between atoms: O_5  and  C_6
REMARK    3  A    between atoms: C_11  and  C_12
REMARK    4  A    between atoms: C_14  and  C_15
REMARK    5  A    between atoms: C_17  and  C_18
REMARK                            x       y       z     vdW  Elec       q    Type
REMARK                         _______ _______ _______ _____ _____    ______ ____
ROOT
ATOM      1  C   UNL     1       3.052   4.722  20.038  0.00  0.00    +0.000 A 
ATOM      2  N   UNL     1       2.946   5.756  19.251  0.00  0.00    +0.000 NA
ATOM      3  C   UNL     1       2.040   6.555  19.913  0.00  0.00    +0.000 A 
ATOM      4  N   UNL     1       1.576   6.026  21.055  0.00  0.00    +0.000 NA
ATOM      5  O   UNL     1       2.249   4.809  21.144  0.00  0.00    +0.000 OA
ENDROOT
BRANCH   3   6
ATOM      6  C   UNL     1       1.754   7.901  19.439  0.00  0.00    +0.000 A 
ATOM      7  C   UNL     1       2.161   8.249  18.139  0.00  0.00    +0.000 A 
ATOM      8  C   UNL     1       2.100   9.563  17.672  0.00  0.00    +0.000 A 
ATOM      9  C   UNL     1       1.513  10.481  18.532  0.00  0.00    +0.000 A 
ATOM     10  N   UNL     1       1.352  11.838  18.475  0.00  0.00    +0.000 N 
ATOM     11  C   UNL     1       0.405  12.171  19.401  0.00  0.00    +0.000 A 
ATOM     12  N   UNL     1       0.239  11.202  20.273  0.00  0.00    +0.000 NA
ATOM     13  C   UNL     1       0.945  10.139  19.760  0.00  0.00    +0.000 A 
ATOM     14  C   UNL     1       1.131   8.847  20.265  0.00  0.00    +0.000 A 
ATOM     15  H   UNL     1       1.820  12.470  17.841  0.00  0.00    +0.000 HD
ENDBRANCH   3   6
BRANCH   1  18
ATOM     16  C   UNL     1       4.890   3.355  18.620  0.00  0.00    +0.000 C 
ATOM     17  C   UNL     1       3.564   2.648  18.595  0.00  0.00    +0.000 C 
ATOM     18  C   UNL     1       3.925   3.519  19.773  0.00  0.00    +0.000 C 
BRANCH  16  24
ATOM     19  C   UNL     1       6.051   5.382  17.451  0.00  0.00    +0.000 A 
ATOM     20  C   UNL     1       6.571   5.916  16.254  0.00  0.00    +0.000 A 
ATOM     21  C   UNL     1       6.178   5.410  15.021  0.00  0.00    +0.000 A 
ATOM     22  C   UNL     1       5.286   4.352  14.967  0.00  0.00    +0.000 A 
ATOM     23  C   UNL     1       4.843   3.773  16.152  0.00  0.00    +0.000 A 
ATOM     24  C   UNL     1       5.240   4.237  17.428  0.00  0.00    +0.000 A 
BRANCH  19  25
ATOM     25  O   UNL     1       6.381   5.905  18.680  0.00  0.00    +0.000 OA
BRANCH  25  27
ATOM     26  F   UNL     1       8.393   4.740  18.501  0.00  0.00    +0.000 F 
ATOM     27  C   UNL     1       7.740   5.766  19.095  0.00  0.00    +0.000 C 
ATOM     28  F   UNL     1       7.787   5.590  20.435  0.00  0.00    +0.000 F 
ATOM     29  F   UNL     1       8.416   6.899  18.804  0.00  0.00    +0.000 F 
ENDBRANCH  25  27
ENDBRANCH  19  25
ENDBRANCH  16  24
ENDBRANCH   1  18
TORSDOF 5
ENDMDL
