MODEL 1
REMARK VINA RESULT:      -8.5      0.000      0.000
REMARK  Name = 
REMARK  8 active torsions:
REMARK  status: ('A' for Active; 'I' for Inactive)
REMARK    1  A    between atoms: C_1  and  N_2
REMARK    2  A    between atoms: C_6  and  C_7
REMARK    3  A    between atoms: C_7  and  C_8
REMARK    4  A    between atoms: C_8  and  C_9
REMARK    5  A    between atoms: C_13  and  N_14
REMARK    6  A    between atoms: C_17  and  C_18
REMARK    7  A    between atoms: C_18  and  C_19
REMARK    8  A    between atoms: C_23  and  O_24
REMARK                            x       y       z     vdW  Elec       q    Type
REMARK                         _______ _______ _______ _____ _____    ______ ____
ROOT
ATOM      1  N   UNL     1       3.779   4.368  19.488  0.00  0.00    +0.000 N 
ATOM      2  C   UNL     1       5.103   5.036  19.475  0.00  0.00    +0.000 C 
ATOM      3  C   UNL     1       5.469   4.979  18.022  0.00  0.00    +0.000 A 
ATOM      4  C   UNL     1       5.984   5.946  17.156  0.00  0.00    +0.000 A 
ATOM      5  C   UNL     1       5.937   5.648  15.778  0.00  0.00    +0.000 A 
ATOM      6  C   UNL     1       5.378   4.448  15.305  0.00  0.00    +0.000 A 
ATOM      7  C   UNL     1       4.850   3.499  16.171  0.00  0.00    +0.000 A 
ATOM      8  C   UNL     1       4.883   3.807  17.514  0.00  0.00    +0.000 A 
ATOM      9  C   UNL     1       3.887   3.335  18.515  0.00  0.00    +0.000 C 
ATOM     10  O   UNL     1       3.176   2.365  18.367  0.00  0.00    +0.000 OA
ENDROOT
BRANCH   1  15
ATOM     11  C   UNL     1       2.068   7.518  20.117  0.00  0.00    +0.000 A 
ATOM     12  C   UNL     1       2.187   8.044  18.823  0.00  0.00    +0.000 A 
ATOM     13  C   UNL     1       2.352   7.196  17.733  0.00  0.00    +0.000 A 
ATOM     14  C   UNL     1       2.532   5.833  17.938  0.00  0.00    +0.000 A 
ATOM     15  C   UNL     1       2.734   5.359  19.244  0.00  0.00    +0.000 A 
ATOM     16  C   UNL     1       2.343   6.161  20.323  0.00  0.00    +0.000 A 
BRANCH  11  17
ATOM     17  C   UNL     1       1.715   8.418  21.277  0.00  0.00    +0.000 C 
BRANCH  17  18
ATOM     18  C   UNL     1       0.194   8.538  21.421  0.00  0.00    +0.000 C 
BRANCH  18  24
ATOM     19  C   UNL     1      -0.642  10.981  19.648  0.00  0.00    +0.000 C 
ATOM     20  N   UNL     1      -0.549  10.947  21.082  0.00  0.00    +0.000 N 
ATOM     21  C   UNL     1      -0.763  12.002  21.917  0.00  0.00    +0.000 A 
ATOM     22  N   UNL     1      -0.607  11.616  23.160  0.00  0.00    +0.000 NA
ATOM     23  N   UNL     1      -0.264  10.286  23.143  0.00  0.00    +0.000 NA
ATOM     24  C   UNL     1      -0.219   9.887  21.887  0.00  0.00    +0.000 A 
ENDBRANCH  18  24
ENDBRANCH  17  18
ENDBRANCH  11  17
ENDBRANCH   1  15
BRANCH   6  25
ATOM     25  O   UNL     1       5.224   4.229  13.968  0.00  0.00    +0.000 OA
ATOM     26  H   UNL     1       6.063   4.420  13.516  0.00  0.00    +0.000 HD
ENDBRANCH   6  25
BRANCH   4  27
ATOM     27  C   UNL     1       6.352   7.349  17.597  0.00  0.00    +0.000 C 
BRANCH  27  28
ATOM     28  C   UNL     1       7.844   7.655  17.646  0.00  0.00    +0.000 C 
ATOM     29  F   UNL     1       8.047   8.994  17.671  0.00  0.00    +0.000 F 
ATOM     30  F   UNL     1       8.420   7.136  18.756  0.00  0.00    +0.000 F 
ENDBRANCH  27  28
ENDBRANCH   4  27
TORSDOF 7
ENDMDL
MODEL 2
REMARK VINA RESULT:      -8.5      4.399      6.699
REMARK  Name = 
REMARK  8 active torsions:
REMARK  status: ('A' for Active; 'I' for Inactive)
REMARK    1  A    between atoms: C_1  and  N_2
REMARK    2  A    between atoms: C_6  and  C_7
REMARK    3  A    between atoms: C_7  and  C_8
REMARK    4  A    between atoms: C_8  and  C_9
REMARK    5  A    between atoms: C_13  and  N_14
REMARK    6  A    between atoms: C_17  and  C_18
REMARK    7  A    between atoms: C_18  and  C_19
REMARK    8  A    between atoms: C_23  and  O_24
REMARK                            x       y       z     vdW  Elec       q    Type
REMARK                         _______ _______ _______ _____ _____    ______ ____
ROOT
ATOM      1  N   UNL     1       5.892   5.955  15.761  0.00  0.00    +0.000 N 
ATOM      2  C   UNL     1       4.744   6.491  16.534  0.00  0.00    +0.000 C 
ATOM      3  C   UNL     1       4.194   5.253  17.175  0.00  0.00    +0.000 A 
ATOM      4  C   UNL     1       3.786   4.989  18.484  0.00  0.00    +0.000 A 
ATOM      5  C   UNL     1       3.595   3.633  18.825  0.00  0.00    +0.000 A 
ATOM      6  C   UNL     1       3.828   2.603  17.897  0.00  0.00    +0.000 A 
ATOM      7  C   UNL     1       4.252   2.872  16.602  0.00  0.00    +0.000 A 
ATOM      8  C   UNL     1       4.454   4.198  16.284  0.00  0.00    +0.000 A 
ATOM      9  C   UNL     1       5.449   4.688  15.291  0.00  0.00    +0.000 C 
ATOM     10  O   UNL     1       5.919   4.010  14.402  0.00  0.00    +0.000 OA
ENDROOT
BRANCH   1  15
ATOM     11  C   UNL     1       8.051   7.282  18.373  0.00  0.00    +0.000 A 
ATOM     12  C   UNL     1       8.039   6.152  19.202  0.00  0.00    +0.000 A 
ATOM     13  C   UNL     1       7.767   4.895  18.672  0.00  0.00    +0.000 A 
ATOM     14  C   UNL     1       7.377   4.776  17.344  0.00  0.00    +0.000 A 
ATOM     15  C   UNL     1       7.081   5.935  16.610  0.00  0.00    +0.000 A 
ATOM     16  C   UNL     1       7.568   7.166  17.065  0.00  0.00    +0.000 A 
BRANCH  11  17
ATOM     17  C   UNL     1       8.516   8.616  18.908  0.00  0.00    +0.000 C 
BRANCH  17  18
ATOM     18  C   UNL     1       8.317   9.716  17.860  0.00  0.00    +0.000 C 
BRANCH  18  24
ATOM     19  C   UNL     1       7.603  12.674  17.118  0.00  0.00    +0.000 C 
ATOM     20  N   UNL     1       8.781  12.216  17.803  0.00  0.00    +0.000 N 
ATOM     21  C   UNL     1       9.820  12.999  18.204  0.00  0.00    +0.000 A 
ATOM     22  N   UNL     1      10.718  12.259  18.810  0.00  0.00    +0.000 NA
ATOM     23  N   UNL     1      10.270  10.961  18.789  0.00  0.00    +0.000 NA
ATOM     24  C   UNL     1       9.106  10.936  18.172  0.00  0.00    +0.000 A 
ENDBRANCH  18  24
ENDBRANCH  17  18
ENDBRANCH  11  17
ENDBRANCH   1  15
BRANCH   6  25
ATOM     25  O   UNL     1       3.762   1.295  18.275  0.00  0.00    +0.000 OA
ATOM     26  H   UNL     1       4.494   1.103  18.884  0.00  0.00    +0.000 HD
ENDBRANCH   6  25
BRANCH   4  27
ATOM     27  C   UNL     1       3.776   6.036  19.582  0.00  0.00    +0.000 C 
BRANCH  27  28
ATOM     28  C   UNL     1       2.486   6.834  19.720  0.00  0.00    +0.000 C 
ATOM     29  F   UNL     1       1.982   7.126  18.498  0.00  0.00    +0.000 F 
ATOM     30  F   UNL     1       1.541   6.135  20.393  0.00  0.00    +0.000 F 
ENDBRANCH  27  28
ENDBRANCH   4  27
TORSDOF 7
ENDMDL
MODEL 3
REMARK VINA RESULT:      -8.4      4.382      6.782
REMARK  Name = 
REMARK  8 active torsions:
REMARK  status: ('A' for Active; 'I' for Inactive)
REMARK    1  A    between atoms: C_1  and  N_2
REMARK    2  A    between atoms: C_6  and  C_7
REMARK    3  A    between atoms: C_7  and  C_8
REMARK    4  A    between atoms: C_8  and  C_9
REMARK    5  A    between atoms: C_13  and  N_14
REMARK    6  A    between atoms: C_17  and  C_18
REMARK    7  A    between atoms: C_18  and  C_19
REMARK    8  A    between atoms: C_23  and  O_24
REMARK                            x       y       z     vdW  Elec       q    Type
REMARK                         _______ _______ _______ _____ _____    ______ ____
ROOT
ATOM      1  N   UNL     1       6.003   5.303  15.602  0.00  0.00    +0.000 N 
ATOM      2  C   UNL     1       4.832   6.176  15.860  0.00  0.00    +0.000 C 
ATOM      3  C   UNL     1       4.146   5.456  16.982  0.00  0.00    +0.000 A 
ATOM      4  C   UNL     1       3.609   5.914  18.187  0.00  0.00    +0.000 A 
ATOM      5  C   UNL     1       3.299   4.933  19.153  0.00  0.00    +0.000 A 
ATOM      6  C   UNL     1       3.541   3.568  18.917  0.00  0.00    +0.000 A 
ATOM      7  C   UNL     1       4.092   3.122  17.723  0.00  0.00    +0.000 A 
ATOM      8  C   UNL     1       4.410   4.089  16.793  0.00  0.00    +0.000 A 
ATOM      9  C   UNL     1       5.518   3.981  15.804  0.00  0.00    +0.000 C 
ATOM     10  O   UNL     1       6.015   2.935  15.447  0.00  0.00    +0.000 OA
ENDROOT
BRANCH   1  15
ATOM     11  C   UNL     1       7.759   7.650  17.759  0.00  0.00    +0.000 A 
ATOM     12  C   UNL     1       7.814   6.834  18.898  0.00  0.00    +0.000 A 
ATOM     13  C   UNL     1       7.743   5.450  18.775  0.00  0.00    +0.000 A 
ATOM     14  C   UNL     1       7.483   4.880  17.534  0.00  0.00    +0.000 A 
ATOM     15  C   UNL     1       7.110   5.709  16.464  0.00  0.00    +0.000 A 
ATOM     16  C   UNL     1       7.404   7.076  16.533  0.00  0.00    +0.000 A 
BRANCH  11  17
ATOM     17  C   UNL     1       8.011   9.135  17.871  0.00  0.00    +0.000 C 
BRANCH  17  18
ATOM     18  C   UNL     1       8.982   9.430  19.019  0.00  0.00    +0.000 C 
BRANCH  18  24
ATOM     19  C   UNL     1       9.139  11.615  21.258  0.00  0.00    +0.000 C 
ATOM     20  N   UNL     1       9.603  11.733  19.903  0.00  0.00    +0.000 N 
ATOM     21  C   UNL     1      10.150  12.849  19.346  0.00  0.00    +0.000 A 
ATOM     22  N   UNL     1      10.473  12.604  18.099  0.00  0.00    +0.000 NA
ATOM     23  N   UNL     1      10.114  11.307  17.825  0.00  0.00    +0.000 NA
ATOM     24  C   UNL     1       9.580  10.787  18.911  0.00  0.00    +0.000 A 
ENDBRANCH  18  24
ENDBRANCH  17  18
ENDBRANCH  11  17
ENDBRANCH   1  15
BRANCH   6  25
ATOM     25  O   UNL     1       3.354   2.646  19.904  0.00  0.00    +0.000 OA
ATOM     26  H   UNL     1       3.006   1.827  19.512  0.00  0.00    +0.000 HD
ENDBRANCH   6  25
BRANCH   4  27
ATOM     27  C   UNL     1       3.576   7.377  18.583  0.00  0.00    +0.000 C 
BRANCH  27  28
ATOM     28  C   UNL     1       2.263   8.103  18.316  0.00  0.00    +0.000 C 
ATOM     29  F   UNL     1       1.781   8.636  19.464  0.00  0.00    +0.000 F 
ATOM     30  F   UNL     1       2.428   9.118  17.435  0.00  0.00    +0.000 F 
ENDBRANCH  27  28
ENDBRANCH   4  27
TORSDOF 7
ENDMDL
MODEL 4
REMARK VINA RESULT:      -8.3      0.740      1.132
REMARK  Name = 
REMARK  8 active torsions:
REMARK  status: ('A' for Active; 'I' for Inactive)
REMARK    1  A    between atoms: C_1  and  N_2
REMARK    2  A    between atoms: C_6  and  C_7
REMARK    3  A    between atoms: C_7  and  C_8
REMARK    4  A    between atoms: C_8  and  C_9
REMARK    5  A    between atoms: C_13  and  N_14
REMARK    6  A    between atoms: C_17  and  C_18
REMARK    7  A    between atoms: C_18  and  C_19
REMARK    8  A    between atoms: C_23  and  O_24
REMARK                            x       y       z     vdW  Elec       q    Type
REMARK                         _______ _______ _______ _____ _____    ______ ____
ROOT
ATOM      1  N   UNL     1       3.717   4.546  19.505  0.00  0.00    +0.000 N 
ATOM      2  C   UNL     1       5.041   5.214  19.510  0.00  0.00    +0.000 C 
ATOM      3  C   UNL     1       5.444   5.121  18.068  0.00  0.00    +0.000 A 
ATOM      4  C   UNL     1       5.980   6.067  17.192  0.00  0.00    +0.000 A 
ATOM      5  C   UNL     1       5.969   5.734  15.821  0.00  0.00    +0.000 A 
ATOM      6  C   UNL     1       5.422   4.522  15.364  0.00  0.00    +0.000 A 
ATOM      7  C   UNL     1       4.873   3.595  16.239  0.00  0.00    +0.000 A 
ATOM      8  C   UNL     1       4.871   3.937  17.575  0.00  0.00    +0.000 A 
ATOM      9  C   UNL     1       3.850   3.489  18.562  0.00  0.00    +0.000 C 
ATOM     10  O   UNL     1       3.143   2.515  18.420  0.00  0.00    +0.000 OA
ENDROOT
BRANCH   1  15
ATOM     11  C   UNL     1       1.857   7.608  20.144  0.00  0.00    +0.000 A 
ATOM     12  C   UNL     1       2.106   8.226  18.911  0.00  0.00    +0.000 A 
ATOM     13  C   UNL     1       2.418   7.460  17.792  0.00  0.00    +0.000 A 
ATOM     14  C   UNL     1       2.613   6.090  17.925  0.00  0.00    +0.000 A 
ATOM     15  C   UNL     1       2.678   5.530  19.210  0.00  0.00    +0.000 A 
ATOM     16  C   UNL     1       2.146   6.246  20.289  0.00  0.00    +0.000 A 
BRANCH  11  17
ATOM     17  C   UNL     1       1.349   8.417  21.314  0.00  0.00    +0.000 C 
BRANCH  17  18
ATOM     18  C   UNL     1       0.079   9.183  20.928  0.00  0.00    +0.000 C 
BRANCH  18  24
ATOM     19  C   UNL     1      -1.277  11.012  23.078  0.00  0.00    +0.000 C 
ATOM     20  N   UNL     1      -0.395  11.429  22.023  0.00  0.00    +0.000 N 
ATOM     21  C   UNL     1      -0.038  12.714  21.749  0.00  0.00    +0.000 A 
ATOM     22  N   UNL     1       0.789  12.732  20.730  0.00  0.00    +0.000 NA
ATOM     23  N   UNL     1       0.964  11.435  20.315  0.00  0.00    +0.000 NA
ATOM     24  C   UNL     1       0.240  10.652  21.089  0.00  0.00    +0.000 A 
ENDBRANCH  18  24
ENDBRANCH  17  18
ENDBRANCH  11  17
ENDBRANCH   1  15
BRANCH   6  25
ATOM     25  O   UNL     1       5.302   4.270  14.029  0.00  0.00    +0.000 OA
ATOM     26  H   UNL     1       6.069   4.646  13.565  0.00  0.00    +0.000 HD
ENDBRANCH   6  25
BRANCH   4  27
ATOM     27  C   UNL     1       6.337   7.481  17.607  0.00  0.00    +0.000 C 
BRANCH  27  28
ATOM     28  C   UNL     1       7.825   7.807  17.627  0.00  0.00    +0.000 C 
ATOM     29  F   UNL     1       8.011   9.148  17.672  0.00  0.00    +0.000 F 
ATOM     30  F   UNL     1       8.434   7.277  18.714  0.00  0.00    +0.000 F 
ENDBRANCH  27  28
ENDBRANCH   4  27
TORSDOF 7
ENDMDL
MODEL 5
REMARK VINA RESULT:      -8.2      0.993      1.236
REMARK  Name = 
REMARK  8 active torsions:
REMARK  status: ('A' for Active; 'I' for Inactive)
REMARK    1  A    between atoms: C_1  and  N_2
REMARK    2  A    between atoms: C_6  and  C_7
REMARK    3  A    between atoms: C_7  and  C_8
REMARK    4  A    between atoms: C_8  and  C_9
REMARK    5  A    between atoms: C_13  and  N_14
REMARK    6  A    between atoms: C_17  and  C_18
REMARK    7  A    between atoms: C_18  and  C_19
REMARK    8  A    between atoms: C_23  and  O_24
REMARK                            x       y       z     vdW  Elec       q    Type
REMARK                         _______ _______ _______ _____ _____    ______ ____
ROOT
ATOM      1  N   UNL     1       2.672   3.736  19.333  0.00  0.00    +0.000 N 
ATOM      2  C   UNL     1       4.068   3.952  19.786  0.00  0.00    +0.000 C 
ATOM      3  C   UNL     1       4.808   4.047  18.485  0.00  0.00    +0.000 A 
ATOM      4  C   UNL     1       5.775   4.946  18.031  0.00  0.00    +0.000 A 
ATOM      5  C   UNL     1       6.052   4.930  16.648  0.00  0.00    +0.000 A 
ATOM      6  C   UNL     1       5.368   4.068  15.772  0.00  0.00    +0.000 A 
ATOM      7  C   UNL     1       4.394   3.190  16.228  0.00  0.00    +0.000 A 
ATOM      8  C   UNL     1       4.117   3.225  17.578  0.00  0.00    +0.000 A 
ATOM      9  C   UNL     1       2.791   2.914  18.179  0.00  0.00    +0.000 C 
ATOM     10  O   UNL     1       1.932   2.255  17.633  0.00  0.00    +0.000 OA
ENDROOT
BRANCH   1  15
ATOM     11  C   UNL     1       1.921   7.183  20.226  0.00  0.00    +0.000 A 
ATOM     12  C   UNL     1       2.386   7.777  19.044  0.00  0.00    +0.000 A 
ATOM     13  C   UNL     1       2.449   7.040  17.866  0.00  0.00    +0.000 A 
ATOM     14  C   UNL     1       2.175   5.677  17.888  0.00  0.00    +0.000 A 
ATOM     15  C   UNL     1       2.025   5.029  19.124  0.00  0.00    +0.000 A 
ATOM     16  C   UNL     1       1.738   5.796  20.260  0.00  0.00    +0.000 A 
BRANCH  11  17
ATOM     17  C   UNL     1       1.686   8.022  21.459  0.00  0.00    +0.000 C 
BRANCH  17  18
ATOM     18  C   UNL     1       0.186   8.179  21.727  0.00  0.00    +0.000 C 
BRANCH  18  24
ATOM     19  C   UNL     1      -0.577  10.390  19.643  0.00  0.00    +0.000 C 
ATOM     20  N   UNL     1      -0.486  10.543  21.070  0.00  0.00    +0.000 N 
ATOM     21  C   UNL     1      -0.670  11.704  21.756  0.00  0.00    +0.000 A 
ATOM     22  N   UNL     1      -0.527  11.481  23.041  0.00  0.00    +0.000 NA
ATOM     23  N   UNL     1      -0.223  10.151  23.201  0.00  0.00    +0.000 NA
ATOM     24  C   UNL     1      -0.189   9.589  22.009  0.00  0.00    +0.000 A 
ENDBRANCH  18  24
ENDBRANCH  17  18
ENDBRANCH  11  17
ENDBRANCH   1  15
BRANCH   6  25
ATOM     25  O   UNL     1       5.554   4.152  14.424  0.00  0.00    +0.000 OA
ATOM     26  H   UNL     1       5.425   3.274  14.030  0.00  0.00    +0.000 HD
ENDBRANCH   6  25
BRANCH   4  27
ATOM     27  C   UNL     1       6.342   6.063  18.886  0.00  0.00    +0.000 C 
BRANCH  27  28
ATOM     28  C   UNL     1       7.816   5.931  19.250  0.00  0.00    +0.000 C 
ATOM     29  F   UNL     1       8.347   4.831  18.667  0.00  0.00    +0.000 F 
ATOM     30  F   UNL     1       8.529   7.001  18.823  0.00  0.00    +0.000 F 
ENDBRANCH  27  28
ENDBRANCH   4  27
TORSDOF 7
ENDMDL
MODEL 6
REMARK VINA RESULT:      -8.0      4.217      6.711
REMARK  Name = 
REMARK  8 active torsions:
REMARK  status: ('A' for Active; 'I' for Inactive)
REMARK    1  A    between atoms: C_1  and  N_2
REMARK    2  A    between atoms: C_6  and  C_7
REMARK    3  A    between atoms: C_7  and  C_8
REMARK    4  A    between atoms: C_8  and  C_9
REMARK    5  A    between atoms: C_13  and  N_14
REMARK    6  A    between atoms: C_17  and  C_18
REMARK    7  A    between atoms: C_18  and  C_19
REMARK    8  A    between atoms: C_23  and  O_24
REMARK                            x       y       z     vdW  Elec       q    Type
REMARK                         _______ _______ _______ _____ _____    ______ ____
ROOT
ATOM      1  N   UNL     1       5.810   5.688  15.679  0.00  0.00    +0.000 N 
ATOM      2  C   UNL     1       4.610   6.259  16.339  0.00  0.00    +0.000 C 
ATOM      3  C   UNL     1       4.187   5.138  17.241  0.00  0.00    +0.000 A 
ATOM      4  C   UNL     1       3.802   5.123  18.583  0.00  0.00    +0.000 A 
ATOM      5  C   UNL     1       3.749   3.860  19.209  0.00  0.00    +0.000 A 
ATOM      6  C   UNL     1       4.091   2.683  18.519  0.00  0.00    +0.000 A 
ATOM      7  C   UNL     1       4.491   2.708  17.190  0.00  0.00    +0.000 A 
ATOM      8  C   UNL     1       4.558   3.949  16.592  0.00  0.00    +0.000 A 
ATOM      9  C   UNL     1       5.502   4.311  15.499  0.00  0.00    +0.000 C 
ATOM     10  O   UNL     1       6.042   3.509  14.768  0.00  0.00    +0.000 OA
ENDROOT
BRANCH   1  15
ATOM     11  C   UNL     1       7.819   7.765  17.892  0.00  0.00    +0.000 A 
ATOM     12  C   UNL     1       7.911   6.854  18.953  0.00  0.00    +0.000 A 
ATOM     13  C   UNL     1       7.763   5.490  18.722  0.00  0.00    +0.000 A 
ATOM     14  C   UNL     1       7.393   5.039  17.461  0.00  0.00    +0.000 A 
ATOM     15  C   UNL     1       6.991   5.971  16.491  0.00  0.00    +0.000 A 
ATOM     16  C   UNL     1       7.356   7.313  16.650  0.00  0.00    +0.000 A 
BRANCH  11  17
ATOM     17  C   UNL     1       8.152   9.222  18.107  0.00  0.00    +0.000 C 
BRANCH  17  18
ATOM     18  C   UNL     1       9.291   9.371  19.120  0.00  0.00    +0.000 C 
BRANCH  18  24
ATOM     19  C   UNL     1      10.719  11.752  17.670  0.00  0.00    +0.000 C 
ATOM     20  N   UNL     1      10.089  11.781  18.962  0.00  0.00    +0.000 N 
ATOM     21  C   UNL     1      10.053  12.851  19.803  0.00  0.00    +0.000 A 
ATOM     22  N   UNL     1       9.387  12.534  20.888  0.00  0.00    +0.000 NA
ATOM     23  N   UNL     1       8.994  11.224  20.766  0.00  0.00    +0.000 NA
ATOM     24  C   UNL     1       9.428  10.768  19.608  0.00  0.00    +0.000 A 
ENDBRANCH  18  24
ENDBRANCH  17  18
ENDBRANCH  11  17
ENDBRANCH   1  15
BRANCH   6  25
ATOM     25  O   UNL     1       4.157   1.487  19.171  0.00  0.00    +0.000 OA
ATOM     26  H   UNL     1       5.079   1.181  19.181  0.00  0.00    +0.000 HD
ENDBRANCH   6  25
BRANCH   4  27
ATOM     27  C   UNL     1       3.680   6.374  19.430  0.00  0.00    +0.000 C 
BRANCH  27  28
ATOM     28  C   UNL     1       2.259   6.797  19.782  0.00  0.00    +0.000 C 
ATOM     29  F   UNL     1       1.731   5.949  20.696  0.00  0.00    +0.000 F 
ATOM     30  F   UNL     1       2.231   8.041  20.318  0.00  0.00    +0.000 F 
ENDBRANCH  27  28
ENDBRANCH   4  27
TORSDOF 7
ENDMDL
MODEL 7
REMARK VINA RESULT:      -7.8      1.331      1.990
REMARK  Name = 
REMARK  8 active torsions:
REMARK  status: ('A' for Active; 'I' for Inactive)
REMARK    1  A    between atoms: C_1  and  N_2
REMARK    2  A    between atoms: C_6  and  C_7
REMARK    3  A    between atoms: C_7  and  C_8
REMARK    4  A    between atoms: C_8  and  C_9
REMARK    5  A    between atoms: C_13  and  N_14
REMARK    6  A    between atoms: C_17  and  C_18
REMARK    7  A    between atoms: C_18  and  C_19
REMARK    8  A    between atoms: C_23  and  O_24
REMARK                            x       y       z     vdW  Elec       q    Type
REMARK                         _______ _______ _______ _____ _____    ______ ____
ROOT
ATOM      1  N   UNL     1       4.442   4.137  19.460  0.00  0.00    +0.000 N 
ATOM      2  C   UNL     1       5.623   5.022  19.316  0.00  0.00    +0.000 C 
ATOM      3  C   UNL     1       5.856   4.994  17.835  0.00  0.00    +0.000 A 
ATOM      4  C   UNL     1       6.113   6.014  16.917  0.00  0.00    +0.000 A 
ATOM      5  C   UNL     1       5.991   5.680  15.552  0.00  0.00    +0.000 A 
ATOM      6  C   UNL     1       5.608   4.390  15.143  0.00  0.00    +0.000 A 
ATOM      7  C   UNL     1       5.335   3.386  16.063  0.00  0.00    +0.000 A 
ATOM      8  C   UNL     1       5.439   3.727  17.395  0.00  0.00    +0.000 A 
ATOM      9  C   UNL     1       4.637   3.115  18.490  0.00  0.00    +0.000 C 
ATOM     10  O   UNL     1       4.094   2.034  18.417  0.00  0.00    +0.000 OA
ENDROOT
BRANCH   1  15
ATOM     11  C   UNL     1       2.546   7.004  18.262  0.00  0.00    +0.000 A 
ATOM     12  C   UNL     1       1.588   6.288  17.531  0.00  0.00    +0.000 A 
ATOM     13  C   UNL     1       1.304   4.965  17.853  0.00  0.00    +0.000 A 
ATOM     14  C   UNL     1       2.064   4.309  18.814  0.00  0.00    +0.000 A 
ATOM     15  C   UNL     1       3.222   4.927  19.310  0.00  0.00    +0.000 A 
ATOM     16  C   UNL     1       3.367   6.312  19.161  0.00  0.00    +0.000 A 
BRANCH  11  17
ATOM     17  C   UNL     1       2.731   8.485  18.032  0.00  0.00    +0.000 C 
BRANCH  17  18
ATOM     18  C   UNL     1       1.374   9.191  17.956  0.00  0.00    +0.000 C 
BRANCH  18  24
ATOM     19  C   UNL     1       0.610   8.904  20.980  0.00  0.00    +0.000 C 
ATOM     20  N   UNL     1       0.883  10.124  20.271  0.00  0.00    +0.000 N 
ATOM     21  C   UNL     1       0.805  11.379  20.793  0.00  0.00    +0.000 A 
ATOM     22  N   UNL     1       1.133  12.257  19.875  0.00  0.00    +0.000 NA
ATOM     23  N   UNL     1       1.414  11.567  18.722  0.00  0.00    +0.000 NA
ATOM     24  C   UNL     1       1.252  10.280  18.960  0.00  0.00    +0.000 A 
ENDBRANCH  18  24
ENDBRANCH  17  18
ENDBRANCH  11  17
ENDBRANCH   1  15
BRANCH   6  25
ATOM     25  O   UNL     1       5.371   4.117  13.829  0.00  0.00    +0.000 OA
ATOM     26  H   UNL     1       4.511   3.672  13.746  0.00  0.00    +0.000 HD
ENDBRANCH   6  25
BRANCH   4  27
ATOM     27  C   UNL     1       6.272   7.470  17.311  0.00  0.00    +0.000 C 
BRANCH  27  28
ATOM     28  C   UNL     1       7.703   7.940  17.540  0.00  0.00    +0.000 C 
ATOM     29  F   UNL     1       7.719   9.256  17.857  0.00  0.00    +0.000 F 
ATOM     30  F   UNL     1       8.286   7.268  18.562  0.00  0.00    +0.000 F 
ENDBRANCH  27  28
ENDBRANCH   4  27
TORSDOF 7
ENDMDL
MODEL 8
REMARK VINA RESULT:      -7.8      3.748      7.672
REMARK  Name = 
REMARK  8 active torsions:
REMARK  status: ('A' for Active; 'I' for Inactive)
REMARK    1  A    between atoms: C_1  and  N_2
REMARK    2  A    between atoms: C_6  and  C_7
REMARK    3  A    between atoms: C_7  and  C_8
REMARK    4  A    between atoms: C_8  and  C_9
REMARK    5  A    between atoms: C_13  and  N_14
REMARK    6  A    between atoms: C_17  and  C_18
REMARK    7  A    between atoms: C_18  and  C_19
REMARK    8  A    between atoms: C_23  and  O_24
REMARK                            x       y       z     vdW  Elec       q    Type
REMARK                         _______ _______ _______ _____ _____    ______ ____
ROOT
ATOM      1  N   UNL     1       2.619   7.318  19.441  0.00  0.00    +0.000 N 
ATOM      2  C   UNL     1       2.209   8.099  20.633  0.00  0.00    +0.000 C 
ATOM      3  C   UNL     1       1.139   8.987  20.073  0.00  0.00    +0.000 A 
ATOM      4  C   UNL     1      -0.134   9.315  20.543  0.00  0.00    +0.000 A 
ATOM      5  C   UNL     1      -1.001   9.947  19.627  0.00  0.00    +0.000 A 
ATOM      6  C   UNL     1      -0.607  10.208  18.303  0.00  0.00    +0.000 A 
ATOM      7  C   UNL     1       0.655   9.862  17.837  0.00  0.00    +0.000 A 
ATOM      8  C   UNL     1       1.488   9.228  18.734  0.00  0.00    +0.000 A 
ATOM      9  C   UNL     1       2.538   8.240  18.361  0.00  0.00    +0.000 C 
ATOM     10  O   UNL     1       3.031   8.150  17.257  0.00  0.00    +0.000 OA
ENDROOT
BRANCH   1  15
ATOM     11  C   UNL     1       1.974   3.859  18.510  0.00  0.00    +0.000 A 
ATOM     12  C   UNL     1       1.597   3.403  19.781  0.00  0.00    +0.000 A 
ATOM     13  C   UNL     1       1.101   4.292  20.728  0.00  0.00    +0.000 A 
ATOM     14  C   UNL     1       1.103   5.656  20.462  0.00  0.00    +0.000 A 
ATOM     15  C   UNL     1       1.775   6.131  19.325  0.00  0.00    +0.000 A 
ATOM     16  C   UNL     1       2.060   5.238  18.285  0.00  0.00    +0.000 A 
BRANCH  11  17
ATOM     17  C   UNL     1       2.345   2.876  17.425  0.00  0.00    +0.000 C 
BRANCH  17  18
ATOM     18  C   UNL     1       3.724   2.268  17.699  0.00  0.00    +0.000 C 
BRANCH  18  24
ATOM     19  C   UNL     1       5.195   4.254  15.774  0.00  0.00    +0.000 C 
ATOM     20  N   UNL     1       5.379   4.132  17.194  0.00  0.00    +0.000 N 
ATOM     21  C   UNL     1       6.273   4.837  17.942  0.00  0.00    +0.000 A 
ATOM     22  N   UNL     1       6.165   4.487  19.201  0.00  0.00    +0.000 NA
ATOM     23  N   UNL     1       5.194   3.519  19.281  0.00  0.00    +0.000 NA
ATOM     24  C   UNL     1       4.728   3.299  18.068  0.00  0.00    +0.000 A 
ENDBRANCH  18  24
ENDBRANCH  17  18
ENDBRANCH  11  17
ENDBRANCH   1  15
BRANCH   6  25
ATOM     25  O   UNL     1      -1.496  10.703  17.395  0.00  0.00    +0.000 OA
ATOM     26  H   UNL     1      -2.199  11.180  17.865  0.00  0.00    +0.000 HD
ENDBRANCH   6  25
BRANCH   4  27
ATOM     27  C   UNL     1      -0.688   8.822  21.866  0.00  0.00    +0.000 C 
BRANCH  27  28
ATOM     28  C   UNL     1      -0.608   9.810  23.023  0.00  0.00    +0.000 C 
ATOM     29  F   UNL     1       0.273   9.372  23.953  0.00  0.00    +0.000 F 
ATOM     30  F   UNL     1      -0.187  11.028  22.607  0.00  0.00    +0.000 F 
ENDBRANCH  27  28
ENDBRANCH   4  27
TORSDOF 7
ENDMDL
MODEL 9
REMARK VINA RESULT:      -7.7      6.882     10.273
REMARK  Name = 
REMARK  8 active torsions:
REMARK  status: ('A' for Active; 'I' for Inactive)
REMARK    1  A    between atoms: C_1  and  N_2
REMARK    2  A    between atoms: C_6  and  C_7
REMARK    3  A    between atoms: C_7  and  C_8
REMARK    4  A    between atoms: C_8  and  C_9
REMARK    5  A    between atoms: C_13  and  N_14
REMARK    6  A    between atoms: C_17  and  C_18
REMARK    7  A    between atoms: C_18  and  C_19
REMARK    8  A    between atoms: C_23  and  O_24
REMARK                            x       y       z     vdW  Elec       q    Type
REMARK                         _______ _______ _______ _____ _____    ______ ____
ROOT
ATOM      1  N   UNL     1      11.655  12.757  18.978  0.00  0.00    +0.000 N 
ATOM      2  C   UNL     1      11.377  12.414  20.394  0.00  0.00    +0.000 C 
ATOM      3  C   UNL     1      10.404  13.485  20.789  0.00  0.00    +0.000 A 
ATOM      4  C   UNL     1       9.194  13.428  21.483  0.00  0.00    +0.000 A 
ATOM      5  C   UNL     1       8.382  14.581  21.431  0.00  0.00    +0.000 A 
ATOM      6  C   UNL     1       8.766  15.717  20.696  0.00  0.00    +0.000 A 
ATOM      7  C   UNL     1       9.963  15.759  19.993  0.00  0.00    +0.000 A 
ATOM      8  C   UNL     1      10.741  14.621  20.035  0.00  0.00    +0.000 A 
ATOM      9  C   UNL     1      11.653  14.179  18.944  0.00  0.00    +0.000 C 
ATOM     10  O   UNL     1      12.099  14.911  18.087  0.00  0.00    +0.000 OA
ENDROOT
BRANCH   1  15
ATOM     11  C   UNL     1       9.009  10.351  18.303  0.00  0.00    +0.000 A 
ATOM     12  C   UNL     1       8.037  11.272  17.885  0.00  0.00    +0.000 A 
ATOM     13  C   UNL     1       8.415  12.511  17.378  0.00  0.00    +0.000 A 
ATOM     14  C   UNL     1       9.752  12.891  17.409  0.00  0.00    +0.000 A 
ATOM     15  C   UNL     1      10.672  12.103  18.118  0.00  0.00    +0.000 A 
ATOM     16  C   UNL     1      10.338  10.776  18.417  0.00  0.00    +0.000 A 
BRANCH  11  17
ATOM     17  C   UNL     1       8.613   8.946  18.687  0.00  0.00    +0.000 C 
BRANCH  17  18
ATOM     18  C   UNL     1       7.778   8.299  17.577  0.00  0.00    +0.000 C 
BRANCH  18  24
ATOM     19  C   UNL     1       5.430   6.637  16.337  0.00  0.00    +0.000 C 
ATOM     20  N   UNL     1       6.336   6.214  17.369  0.00  0.00    +0.000 N 
ATOM     21  C   UNL     1       6.292   5.020  18.023  0.00  0.00    +0.000 A 
ATOM     22  N   UNL     1       7.274   4.958  18.891  0.00  0.00    +0.000 NA
ATOM     23  N   UNL     1       7.966   6.142  18.819  0.00  0.00    +0.000 NA
ATOM     24  C   UNL     1       7.392   6.902  17.908  0.00  0.00    +0.000 A 
ENDBRANCH  18  24
ENDBRANCH  17  18
ENDBRANCH  11  17
ENDBRANCH   1  15
BRANCH   6  25
ATOM     25  O   UNL     1       7.916  16.773  20.550  0.00  0.00    +0.000 OA
ATOM     26  H   UNL     1       7.003  16.467  20.680  0.00  0.00    +0.000 HD
ENDBRANCH   6  25
BRANCH   4  27
ATOM     27  C   UNL     1       8.625  12.149  22.064  0.00  0.00    +0.000 C 
BRANCH  27  28
ATOM     28  C   UNL     1       8.087  12.251  23.486  0.00  0.00    +0.000 C 
ATOM     29  F   UNL     1       8.091  11.034  24.078  0.00  0.00    +0.000 F 
ATOM     30  F   UNL     1       8.849  13.074  24.245  0.00  0.00    +0.000 F 
ENDBRANCH  27  28
ENDBRANCH   4  27
TORSDOF 7
ENDMDL
