MODEL 1
REMARK VINA RESULT:      -9.5      0.000      0.000
REMARK  Name = 
REMARK  5 active torsions:
REMARK  status: ('A' for Active; 'I' for Inactive)
REMARK    1  A    between atoms: C_2  and  C_23
REMARK    2  A    between atoms: N_3  and  C_4
REMARK    3  A    between atoms: C_7  and  S_8
REMARK    4  A    between atoms: S_8  and  N_11
REMARK    5  A    between atoms: C_19  and  O_20
REMARK                            x       y       z     vdW  Elec       q    Type
REMARK                         _______ _______ _______ _____ _____    ______ ____
ROOT
ATOM      1  C   UNL     1       8.040   7.301  18.355  0.00  0.00    +0.000 A 
ATOM      2  C   UNL     1       7.360   7.404  17.137  0.00  0.00    +0.000 A 
ATOM      3  C   UNL     1       6.289   6.564  16.848  0.00  0.00    +0.000 A 
ATOM      4  C   UNL     1       5.914   5.580  17.762  0.00  0.00    +0.000 A 
ATOM      5  C   UNL     1       6.700   5.347  18.897  0.00  0.00    +0.000 A 
ATOM      6  C   UNL     1       7.778   6.201  19.180  0.00  0.00    +0.000 A 
ENDROOT
BRANCH   1   9
ATOM      7  O   UNL     1       7.970  10.136  17.646  0.00  0.00    +0.000 OA
ATOM      8  C   UNL     1       8.725   9.680  18.499  0.00  0.00    +0.000 C 
ATOM      9  N   UNL     1       8.880   8.337  18.828  0.00  0.00    +0.000 N 
ATOM     10  H   UNL     1       9.459   8.165  19.646  0.00  0.00    +0.000 HD
BRANCH   8  11
ATOM     11  C   UNL     1       9.522  10.645  19.306  0.00  0.00    +0.000 A 
ATOM     12  C   UNL     1      10.687  11.183  18.758  0.00  0.00    +0.000 A 
ATOM     13  C   UNL     1      11.442  12.063  19.525  0.00  0.00    +0.000 A 
ATOM     14  C   UNL     1      11.008  12.375  20.807  0.00  0.00    +0.000 A 
ATOM     15  C   UNL     1       9.827  11.800  21.266  0.00  0.00    +0.000 A 
ATOM     16  N   UNL     1       9.059  10.947  20.548  0.00  0.00    +0.000 NA
ENDBRANCH   8  11
ENDBRANCH   1   9
BRANCH   4  17
ATOM     17  S   UNL     1       4.220   4.986  17.698  0.00  0.00    +0.000 S 
ATOM     18  O   UNL     1       3.385   6.143  17.458  0.00  0.00    +0.000 OA
ATOM     19  O   UNL     1       4.262   3.869  16.778  0.00  0.00    +0.000 OA
BRANCH  17  20
ATOM     20  N   UNL     1       3.893   4.417  19.252  0.00  0.00    +0.000 NA
ATOM     21  C   UNL     1       4.412   3.091  19.642  0.00  0.00    +0.000 C 
ATOM     22  C   UNL     1       3.235   2.381  20.285  0.00  0.00    +0.000 C 
ATOM     23  C   UNL     1       2.244   1.792  19.255  0.00  0.00    +0.000 C 
ATOM     24  C   UNL     1       1.012   2.713  19.384  0.00  0.00    +0.000 C 
ATOM     25  C   UNL     1       0.991   2.949  20.891  0.00  0.00    +0.000 C 
ATOM     26  C   UNL     1       2.415   3.507  20.926  0.00  0.00    +0.000 C 
ATOM     27  C   UNL     1       2.503   4.579  19.800  0.00  0.00    +0.000 C 
ATOM     28  C   UNL     1       1.294   4.153  18.922  0.00  0.00    +0.000 C 
BRANCH  28  29
ATOM     29  O   UNL     1       1.393   4.288  17.532  0.00  0.00    +0.000 OA
ATOM     30  H   UNL     1       0.769   4.973  17.240  0.00  0.00    +0.000 HD
ENDBRANCH  28  29
ENDBRANCH  17  20
ENDBRANCH   4  17
TORSDOF 5
ENDMDL
MODEL 2
REMARK VINA RESULT:      -8.6      5.470      8.160
REMARK  Name = 
REMARK  5 active torsions:
REMARK  status: ('A' for Active; 'I' for Inactive)
REMARK    1  A    between atoms: C_2  and  C_23
REMARK    2  A    between atoms: N_3  and  C_4
REMARK    3  A    between atoms: C_7  and  S_8
REMARK    4  A    between atoms: S_8  and  N_11
REMARK    5  A    between atoms: C_19  and  O_20
REMARK                            x       y       z     vdW  Elec       q    Type
REMARK                         _______ _______ _______ _____ _____    ______ ____
ROOT
ATOM      1  C   UNL     1       0.594   9.736  19.013  0.00  0.00    +0.000 A 
ATOM      2  C   UNL     1       1.396   9.584  17.878  0.00  0.00    +0.000 A 
ATOM      3  C   UNL     1       2.353   8.574  17.814  0.00  0.00    +0.000 A 
ATOM      4  C   UNL     1       2.544   7.730  18.908  0.00  0.00    +0.000 A 
ATOM      5  C   UNL     1       1.879   7.989  20.112  0.00  0.00    +0.000 A 
ATOM      6  C   UNL     1       0.915   9.009  20.166  0.00  0.00    +0.000 A 
ENDROOT
BRANCH   1   9
ATOM      7  O   UNL     1      -1.551   9.642  17.030  0.00  0.00    +0.000 OA
ATOM      8  C   UNL     1      -1.609  10.331  18.043  0.00  0.00    +0.000 C 
ATOM      9  N   UNL     1      -0.598  10.497  18.985  0.00  0.00    +0.000 N 
ATOM     10  H   UNL     1      -0.877  11.005  19.820  0.00  0.00    +0.000 HD
BRANCH   8  11
ATOM     11  C   UNL     1      -2.895  11.022  18.338  0.00  0.00    +0.000 A 
ATOM     12  C   UNL     1      -4.010  10.740  17.548  0.00  0.00    +0.000 A 
ATOM     13  C   UNL     1      -5.201  11.406  17.810  0.00  0.00    +0.000 A 
ATOM     14  C   UNL     1      -5.238  12.326  18.849  0.00  0.00    +0.000 A 
ATOM     15  C   UNL     1      -4.080  12.535  19.592  0.00  0.00    +0.000 A 
ATOM     16  N   UNL     1      -2.905  11.902  19.375  0.00  0.00    +0.000 NA
ENDBRANCH   8  11
ENDBRANCH   1   9
BRANCH   4  17
ATOM     17  S   UNL     1       3.250   6.109  18.595  0.00  0.00    +0.000 S 
ATOM     18  O   UNL     1       3.680   6.105  17.214  0.00  0.00    +0.000 OA
ATOM     19  O   UNL     1       4.180   5.903  19.686  0.00  0.00    +0.000 OA
BRANCH  17  20
ATOM     20  N   UNL     1       1.962   5.030  18.748  0.00  0.00    +0.000 NA
ATOM     21  C   UNL     1       1.430   4.754  20.098  0.00  0.00    +0.000 C 
ATOM     22  C   UNL     1       1.316   3.242  20.173  0.00  0.00    +0.000 C 
ATOM     23  C   UNL     1       2.666   2.544  20.463  0.00  0.00    +0.000 C 
ATOM     24  C   UNL     1       3.010   1.870  19.118  0.00  0.00    +0.000 C 
ATOM     25  C   UNL     1       1.628   1.405  18.672  0.00  0.00    +0.000 C 
ATOM     26  C   UNL     1       1.023   2.809  18.732  0.00  0.00    +0.000 C 
ATOM     27  C   UNL     1       2.000   3.749  17.965  0.00  0.00    +0.000 C 
ATOM     28  C   UNL     1       3.292   2.885  17.996  0.00  0.00    +0.000 C 
BRANCH  28  29
ATOM     29  O   UNL     1       4.528   3.530  18.121  0.00  0.00    +0.000 OA
ATOM     30  H   UNL     1       4.916   3.634  17.236  0.00  0.00    +0.000 HD
ENDBRANCH  28  29
ENDBRANCH  17  20
ENDBRANCH   4  17
TORSDOF 5
ENDMDL
MODEL 3
REMARK VINA RESULT:      -8.5      1.735      2.183
REMARK  Name = 
REMARK  5 active torsions:
REMARK  status: ('A' for Active; 'I' for Inactive)
REMARK    1  A    between atoms: C_2  and  C_23
REMARK    2  A    between atoms: N_3  and  C_4
REMARK    3  A    between atoms: C_7  and  S_8
REMARK    4  A    between atoms: S_8  and  N_11
REMARK    5  A    between atoms: C_19  and  O_20
REMARK                            x       y       z     vdW  Elec       q    Type
REMARK                         _______ _______ _______ _____ _____    ______ ____
ROOT
ATOM      1  C   UNL     1       7.285   7.584  17.389  0.00  0.00    +0.000 A 
ATOM      2  C   UNL     1       6.374   7.110  16.441  0.00  0.00    +0.000 A 
ATOM      3  C   UNL     1       5.785   5.856  16.586  0.00  0.00    +0.000 A 
ATOM      4  C   UNL     1       6.137   5.046  17.665  0.00  0.00    +0.000 A 
ATOM      5  C   UNL     1       7.180   5.432  18.515  0.00  0.00    +0.000 A 
ATOM      6  C   UNL     1       7.767   6.699  18.361  0.00  0.00    +0.000 A 
ENDROOT
BRANCH   1   9
ATOM      7  O   UNL     1       9.105   8.871  19.279  0.00  0.00    +0.000 OA
ATOM      8  C   UNL     1       8.570   9.473  18.354  0.00  0.00    +0.000 C 
ATOM      9  N   UNL     1       7.628   8.955  17.470  0.00  0.00    +0.000 N 
ATOM     10  H   UNL     1       7.395   9.567  16.693  0.00  0.00    +0.000 HD
BRANCH   8  11
ATOM     11  C   UNL     1       8.995  10.878  18.103  0.00  0.00    +0.000 A 
ATOM     12  C   UNL     1      10.325  11.232  18.336  0.00  0.00    +0.000 A 
ATOM     13  C   UNL     1      10.712  12.550  18.125  0.00  0.00    +0.000 A 
ATOM     14  C   UNL     1       9.762  13.465  17.691  0.00  0.00    +0.000 A 
ATOM     15  C   UNL     1       8.461  13.019  17.474  0.00  0.00    +0.000 A 
ATOM     16  N   UNL     1       8.047  11.745  17.658  0.00  0.00    +0.000 NA
ENDBRANCH   8  11
ENDBRANCH   1   9
BRANCH   4  17
ATOM     17  S   UNL     1       4.954   3.802  18.193  0.00  0.00    +0.000 S 
ATOM     18  O   UNL     1       4.657   2.994  17.030  0.00  0.00    +0.000 OA
ATOM     19  O   UNL     1       5.537   3.234  19.390  0.00  0.00    +0.000 OA
BRANCH  17  20
ATOM     20  N   UNL     1       3.563   4.663  18.603  0.00  0.00    +0.000 NA
ATOM     21  C   UNL     1       3.585   5.501  19.818  0.00  0.00    +0.000 C 
ATOM     22  C   UNL     1       2.304   5.157  20.557  0.00  0.00    +0.000 C 
ATOM     23  C   UNL     1       2.399   3.837  21.356  0.00  0.00    +0.000 C 
ATOM     24  C   UNL     1       1.507   2.870  20.549  0.00  0.00    +0.000 C 
ATOM     25  C   UNL     1       0.374   3.805  20.140  0.00  0.00    +0.000 C 
ATOM     26  C   UNL     1       1.308   4.800  19.448  0.00  0.00    +0.000 C 
ATOM     27  C   UNL     1       2.234   3.968  18.513  0.00  0.00    +0.000 C 
ATOM     28  C   UNL     1       2.075   2.560  19.153  0.00  0.00    +0.000 C 
BRANCH  28  29
ATOM     29  O   UNL     1       3.182   1.704  19.174  0.00  0.00    +0.000 OA
ATOM     30  H   UNL     1       3.913   2.152  19.631  0.00  0.00    +0.000 HD
ENDBRANCH  28  29
ENDBRANCH  17  20
ENDBRANCH   4  17
TORSDOF 5
ENDMDL
MODEL 4
REMARK VINA RESULT:      -8.3      5.726      8.783
REMARK  Name = 
REMARK  5 active torsions:
REMARK  status: ('A' for Active; 'I' for Inactive)
REMARK    1  A    between atoms: C_2  and  C_23
REMARK    2  A    between atoms: N_3  and  C_4
REMARK    3  A    between atoms: C_7  and  S_8
REMARK    4  A    between atoms: S_8  and  N_11
REMARK    5  A    between atoms: C_19  and  O_20
REMARK                            x       y       z     vdW  Elec       q    Type
REMARK                         _______ _______ _______ _____ _____    ______ ____
ROOT
ATOM      1  C   UNL     1       0.297   9.920  19.006  0.00  0.00    +0.000 A 
ATOM      2  C   UNL     1       1.155   9.751  17.915  0.00  0.00    +0.000 A 
ATOM      3  C   UNL     1       2.112   8.740  17.914  0.00  0.00    +0.000 A 
ATOM      4  C   UNL     1       2.247   7.913  19.029  0.00  0.00    +0.000 A 
ATOM      5  C   UNL     1       1.523   8.190  20.194  0.00  0.00    +0.000 A 
ATOM      6  C   UNL     1       0.559   9.211  20.185  0.00  0.00    +0.000 A 
ENDROOT
BRANCH   1   9
ATOM      7  O   UNL     1      -1.819   9.696  17.002  0.00  0.00    +0.000 OA
ATOM      8  C   UNL     1      -1.889  10.454  17.964  0.00  0.00    +0.000 C 
ATOM      9  N   UNL     1      -0.891  10.682  18.907  0.00  0.00    +0.000 N 
ATOM     10  H   UNL     1      -1.180  11.248  19.700  0.00  0.00    +0.000 HD
BRANCH   8  11
ATOM     11  C   UNL     1      -3.176  11.168  18.191  0.00  0.00    +0.000 A 
ATOM     12  C   UNL     1      -4.166  11.102  17.210  0.00  0.00    +0.000 A 
ATOM     13  C   UNL     1      -5.356  11.791  17.413  0.00  0.00    +0.000 A 
ATOM     14  C   UNL     1      -5.515  12.518  18.586  0.00  0.00    +0.000 A 
ATOM     15  C   UNL     1      -4.478  12.517  19.514  0.00  0.00    +0.000 A 
ATOM     16  N   UNL     1      -3.310  11.853  19.357  0.00  0.00    +0.000 NA
ENDBRANCH   8  11
ENDBRANCH   1   9
BRANCH   4  17
ATOM     17  S   UNL     1       2.966   6.286  18.776  0.00  0.00    +0.000 S 
ATOM     18  O   UNL     1       3.124   5.696  20.088  0.00  0.00    +0.000 OA
ATOM     19  O   UNL     1       2.135   5.677  17.759  0.00  0.00    +0.000 OA
BRANCH  17  20
ATOM     20  N   UNL     1       4.502   6.576  18.143  0.00  0.00    +0.000 NA
ATOM     21  C   UNL     1       4.612   7.056  16.751  0.00  0.00    +0.000 C 
ATOM     22  C   UNL     1       5.680   6.183  16.118  0.00  0.00    +0.000 C 
ATOM     23  C   UNL     1       5.155   4.791  15.693  0.00  0.00    +0.000 C 
ATOM     24  C   UNL     1       5.808   3.840  16.718  0.00  0.00    +0.000 C 
ATOM     25  C   UNL     1       7.187   4.478  16.858  0.00  0.00    +0.000 C 
ATOM     26  C   UNL     1       6.628   5.840  17.273  0.00  0.00    +0.000 C 
ATOM     27  C   UNL     1       5.589   5.571  18.402  0.00  0.00    +0.000 C 
ATOM     28  C   UNL     1       5.296   4.065  18.152  0.00  0.00    +0.000 C 
BRANCH  28  29
ATOM     29  O   UNL     1       3.997   3.589  18.365  0.00  0.00    +0.000 OA
ATOM     30  H   UNL     1       3.369   4.206  17.954  0.00  0.00    +0.000 HD
ENDBRANCH  28  29
ENDBRANCH  17  20
ENDBRANCH   4  17
TORSDOF 5
ENDMDL
MODEL 5
REMARK VINA RESULT:      -8.2      5.803      8.206
REMARK  Name = 
REMARK  5 active torsions:
REMARK  status: ('A' for Active; 'I' for Inactive)
REMARK    1  A    between atoms: C_2  and  C_23
REMARK    2  A    between atoms: N_3  and  C_4
REMARK    3  A    between atoms: C_7  and  S_8
REMARK    4  A    between atoms: S_8  and  N_11
REMARK    5  A    between atoms: C_19  and  O_20
REMARK                            x       y       z     vdW  Elec       q    Type
REMARK                         _______ _______ _______ _____ _____    ______ ____
ROOT
ATOM      1  C   UNL     1       0.241   9.692  19.546  0.00  0.00    +0.000 A 
ATOM      2  C   UNL     1       0.828   9.550  18.285  0.00  0.00    +0.000 A 
ATOM      3  C   UNL     1       1.828   8.606  18.068  0.00  0.00    +0.000 A 
ATOM      4  C   UNL     1       2.280   7.820  19.128  0.00  0.00    +0.000 A 
ATOM      5  C   UNL     1       1.832   8.080  20.428  0.00  0.00    +0.000 A 
ATOM      6  C   UNL     1       0.822   9.034  20.636  0.00  0.00    +0.000 A 
ENDROOT
BRANCH   1   9
ATOM      7  O   UNL     1      -0.561  12.275  18.440  0.00  0.00    +0.000 OA
ATOM      8  C   UNL     1      -1.319  11.564  19.091  0.00  0.00    +0.000 C 
ATOM      9  N   UNL     1      -0.988  10.369  19.722  0.00  0.00    +0.000 N 
ATOM     10  H   UNL     1      -1.780   9.860  20.106  0.00  0.00    +0.000 HD
BRANCH   8  11
ATOM     11  C   UNL     1      -2.749  11.976  19.180  0.00  0.00    +0.000 A 
ATOM     12  C   UNL     1      -3.166  12.728  20.278  0.00  0.00    +0.000 A 
ATOM     13  C   UNL     1      -4.505  13.088  20.371  0.00  0.00    +0.000 A 
ATOM     14  C   UNL     1      -5.378  12.685  19.368  0.00  0.00    +0.000 A 
ATOM     15  C   UNL     1      -4.869  11.946  18.304  0.00  0.00    +0.000 A 
ATOM     16  N   UNL     1      -3.572  11.584  18.172  0.00  0.00    +0.000 NA
ENDBRANCH   8  11
ENDBRANCH   1   9
BRANCH   4  17
ATOM     17  S   UNL     1       3.033   6.239  18.730  0.00  0.00    +0.000 S 
ATOM     18  O   UNL     1       3.399   6.296  17.331  0.00  0.00    +0.000 OA
ATOM     19  O   UNL     1       4.019   6.036  19.771  0.00  0.00    +0.000 OA
BRANCH  17  20
ATOM     20  N   UNL     1       1.796   5.106  18.903  0.00  0.00    +0.000 NA
ATOM     21  C   UNL     1       1.354   4.746  20.265  0.00  0.00    +0.000 C 
ATOM     22  C   UNL     1       1.299   3.229  20.272  0.00  0.00    +0.000 C 
ATOM     23  C   UNL     1       2.688   2.571  20.450  0.00  0.00    +0.000 C 
ATOM     24  C   UNL     1       2.977   1.974  19.057  0.00  0.00    +0.000 C 
ATOM     25  C   UNL     1       1.588   1.477  18.668  0.00  0.00    +0.000 C 
ATOM     26  C   UNL     1       0.938   2.853  18.831  0.00  0.00    +0.000 C 
ATOM     27  C   UNL     1       1.834   3.864  18.057  0.00  0.00    +0.000 C 
ATOM     28  C   UNL     1       3.156   3.051  17.972  0.00  0.00    +0.000 C 
BRANCH  28  29
ATOM     29  O   UNL     1       4.373   3.737  18.058  0.00  0.00    +0.000 OA
ATOM     30  H   UNL     1       5.090   3.129  17.815  0.00  0.00    +0.000 HD
ENDBRANCH  28  29
ENDBRANCH  17  20
ENDBRANCH   4  17
TORSDOF 5
ENDMDL
MODEL 6
REMARK VINA RESULT:      -8.1      5.768      8.242
REMARK  Name = 
REMARK  5 active torsions:
REMARK  status: ('A' for Active; 'I' for Inactive)
REMARK    1  A    between atoms: C_2  and  C_23
REMARK    2  A    between atoms: N_3  and  C_4
REMARK    3  A    between atoms: C_7  and  S_8
REMARK    4  A    between atoms: S_8  and  N_11
REMARK    5  A    between atoms: C_19  and  O_20
REMARK                            x       y       z     vdW  Elec       q    Type
REMARK                         _______ _______ _______ _____ _____    ______ ____
ROOT
ATOM      1  C   UNL     1       0.550   9.266  20.441  0.00  0.00    +0.000 A 
ATOM      2  C   UNL     1       1.097   9.342  19.157  0.00  0.00    +0.000 A 
ATOM      3  C   UNL     1       1.985   8.370  18.703  0.00  0.00    +0.000 A 
ATOM      4  C   UNL     1       2.366   7.331  19.551  0.00  0.00    +0.000 A 
ATOM      5  C   UNL     1       1.972   7.347  20.894  0.00  0.00    +0.000 A 
ATOM      6  C   UNL     1       1.075   8.332  21.342  0.00  0.00    +0.000 A 
ENDROOT
BRANCH   1   9
ATOM      7  O   UNL     1       0.444  11.787  21.916  0.00  0.00    +0.000 OA
ATOM      8  C   UNL     1      -0.551  11.249  21.442  0.00  0.00    +0.000 C 
ATOM      9  N   UNL     1      -0.595  10.012  20.807  0.00  0.00    +0.000 N 
ATOM     10  H   UNL     1      -1.486   9.792  20.370  0.00  0.00    +0.000 HD
BRANCH   8  11
ATOM     11  C   UNL     1      -1.836  12.002  21.494  0.00  0.00    +0.000 A 
ATOM     12  C   UNL     1      -2.409  12.273  22.737  0.00  0.00    +0.000 A 
ATOM     13  C   UNL     1      -3.621  12.952  22.780  0.00  0.00    +0.000 A 
ATOM     14  C   UNL     1      -4.215  13.336  21.585  0.00  0.00    +0.000 A 
ATOM     15  C   UNL     1      -3.564  13.033  20.393  0.00  0.00    +0.000 A 
ATOM     16  N   UNL     1      -2.381  12.382  20.308  0.00  0.00    +0.000 NA
ENDBRANCH   8  11
ENDBRANCH   1   9
BRANCH   4  17
ATOM     17  S   UNL     1       2.936   5.805  18.794  0.00  0.00    +0.000 S 
ATOM     18  O   UNL     1       2.942   4.803  19.838  0.00  0.00    +0.000 OA
ATOM     19  O   UNL     1       2.121   5.665  17.605  0.00  0.00    +0.000 OA
BRANCH  17  20
ATOM     20  N   UNL     1       4.534   6.105  18.345  0.00  0.00    +0.000 NA
ATOM     21  C   UNL     1       4.791   7.065  17.253  0.00  0.00    +0.000 C 
ATOM     22  C   UNL     1       5.785   6.368  16.343  0.00  0.00    +0.000 C 
ATOM     23  C   UNL     1       5.126   5.333  15.401  0.00  0.00    +0.000 C 
ATOM     24  C   UNL     1       5.592   3.981  15.980  0.00  0.00    +0.000 C 
ATOM     25  C   UNL     1       7.025   4.321  16.377  0.00  0.00    +0.000 C 
ATOM     26  C   UNL     1       6.607   5.480  17.284  0.00  0.00    +0.000 C 
ATOM     27  C   UNL     1       5.473   4.941  18.204  0.00  0.00    +0.000 C 
ATOM     28  C   UNL     1       5.018   3.703  17.381  0.00  0.00    +0.000 C 
BRANCH  28  29
ATOM     29  O   UNL     1       3.661   3.363  17.374  0.00  0.00    +0.000 OA
ATOM     30  H   UNL     1       3.535   2.594  16.794  0.00  0.00    +0.000 HD
ENDBRANCH  28  29
ENDBRANCH  17  20
ENDBRANCH   4  17
TORSDOF 5
ENDMDL
MODEL 7
REMARK VINA RESULT:      -8.1      5.816      8.568
REMARK  Name = 
REMARK  5 active torsions:
REMARK  status: ('A' for Active; 'I' for Inactive)
REMARK    1  A    between atoms: C_2  and  C_23
REMARK    2  A    between atoms: N_3  and  C_4
REMARK    3  A    between atoms: C_7  and  S_8
REMARK    4  A    between atoms: S_8  and  N_11
REMARK    5  A    between atoms: C_19  and  O_20
REMARK                            x       y       z     vdW  Elec       q    Type
REMARK                         _______ _______ _______ _____ _____    ______ ____
ROOT
ATOM      1  C   UNL     1       0.253   9.566  19.624  0.00  0.00    +0.000 A 
ATOM      2  C   UNL     1       0.842   9.438  18.363  0.00  0.00    +0.000 A 
ATOM      3  C   UNL     1       1.836   8.490  18.136  0.00  0.00    +0.000 A 
ATOM      4  C   UNL     1       2.279   7.685  19.186  0.00  0.00    +0.000 A 
ATOM      5  C   UNL     1       1.830   7.930  20.488  0.00  0.00    +0.000 A 
ATOM      6  C   UNL     1       0.826   8.889  20.707  0.00  0.00    +0.000 A 
ENDROOT
BRANCH   1   9
ATOM      7  O   UNL     1      -0.373  12.340  18.952  0.00  0.00    +0.000 OA
ATOM      8  C   UNL     1      -1.210  11.553  19.383  0.00  0.00    +0.000 C 
ATOM      9  N   UNL     1      -0.972  10.250  19.807  0.00  0.00    +0.000 N 
ATOM     10  H   UNL     1      -1.810   9.712  20.011  0.00  0.00    +0.000 HD
BRANCH   8  11
ATOM     11  C   UNL     1      -2.631  12.000  19.411  0.00  0.00    +0.000 A 
ATOM     12  C   UNL     1      -3.502  11.543  18.422  0.00  0.00    +0.000 A 
ATOM     13  C   UNL     1      -4.820  11.983  18.437  0.00  0.00    +0.000 A 
ATOM     14  C   UNL     1      -5.221  12.860  19.437  0.00  0.00    +0.000 A 
ATOM     15  C   UNL     1      -4.286  13.253  20.389  0.00  0.00    +0.000 A 
ATOM     16  N   UNL     1      -2.997  12.842  20.414  0.00  0.00    +0.000 NA
ENDBRANCH   8  11
ENDBRANCH   1   9
BRANCH   4  17
ATOM     17  S   UNL     1       3.022   6.104  18.767  0.00  0.00    +0.000 S 
ATOM     18  O   UNL     1       3.237   5.406  20.016  0.00  0.00    +0.000 OA
ATOM     19  O   UNL     1       2.168   5.568  17.728  0.00  0.00    +0.000 OA
BRANCH  17  20
ATOM     20  N   UNL     1       4.529   6.485  18.112  0.00  0.00    +0.000 NA
ATOM     21  C   UNL     1       4.583   7.040  16.745  0.00  0.00    +0.000 C 
ATOM     22  C   UNL     1       5.665   6.243  16.040  0.00  0.00    +0.000 C 
ATOM     23  C   UNL     1       5.180   4.856  15.555  0.00  0.00    +0.000 C 
ATOM     24  C   UNL     1       5.894   3.878  16.510  0.00  0.00    +0.000 C 
ATOM     25  C   UNL     1       7.252   4.559  16.650  0.00  0.00    +0.000 C 
ATOM     26  C   UNL     1       6.655   5.875  17.151  0.00  0.00    +0.000 C 
ATOM     27  C   UNL     1       5.657   5.509  18.289  0.00  0.00    +0.000 C 
ATOM     28  C   UNL     1       5.413   4.008  17.967  0.00  0.00    +0.000 C 
BRANCH  28  29
ATOM     29  O   UNL     1       4.138   3.473  18.186  0.00  0.00    +0.000 OA
ATOM     30  H   UNL     1       3.560   4.177  18.526  0.00  0.00    +0.000 HD
ENDBRANCH  28  29
ENDBRANCH  17  20
ENDBRANCH   4  17
TORSDOF 5
ENDMDL
MODEL 8
REMARK VINA RESULT:      -8.0      1.905      2.507
REMARK  Name = 
REMARK  5 active torsions:
REMARK  status: ('A' for Active; 'I' for Inactive)
REMARK    1  A    between atoms: C_2  and  C_23
REMARK    2  A    between atoms: N_3  and  C_4
REMARK    3  A    between atoms: C_7  and  S_8
REMARK    4  A    between atoms: S_8  and  N_11
REMARK    5  A    between atoms: C_19  and  O_20
REMARK                            x       y       z     vdW  Elec       q    Type
REMARK                         _______ _______ _______ _____ _____    ______ ____
ROOT
ATOM      1  C   UNL     1       7.450   8.040  17.534  0.00  0.00    +0.000 A 
ATOM      2  C   UNL     1       6.187   7.742  17.015  0.00  0.00    +0.000 A 
ATOM      3  C   UNL     1       5.517   6.582  17.394  0.00  0.00    +0.000 A 
ATOM      4  C   UNL     1       6.128   5.684  18.270  0.00  0.00    +0.000 A 
ATOM      5  C   UNL     1       7.462   5.879  18.649  0.00  0.00    +0.000 A 
ATOM      6  C   UNL     1       8.128   7.054  18.261  0.00  0.00    +0.000 A 
ENDROOT
BRANCH   1   9
ATOM      7  O   UNL     1       8.994   9.464  19.566  0.00  0.00    +0.000 OA
ATOM      8  C   UNL     1       8.793   9.915  18.443  0.00  0.00    +0.000 C 
ATOM      9  N   UNL     1       7.999   9.341  17.455  0.00  0.00    +0.000 N 
ATOM     10  H   UNL     1       8.057   9.797  16.548  0.00  0.00    +0.000 HD
BRANCH   8  11
ATOM     11  C   UNL     1       9.502  11.169  18.063  0.00  0.00    +0.000 A 
ATOM     12  C   UNL     1      10.897  11.169  18.021  0.00  0.00    +0.000 A 
ATOM     13  C   UNL     1      11.555  12.348  17.692  0.00  0.00    +0.000 A 
ATOM     14  C   UNL     1      10.801  13.481  17.417  0.00  0.00    +0.000 A 
ATOM     15  C   UNL     1       9.414  13.384  17.472  0.00  0.00    +0.000 A 
ATOM     16  N   UNL     1       8.735  12.254  17.779  0.00  0.00    +0.000 NA
ENDBRANCH   8  11
ENDBRANCH   1   9
BRANCH   4  17
ATOM     17  S   UNL     1       5.064   4.603  19.231  0.00  0.00    +0.000 S 
ATOM     18  O   UNL     1       5.857   3.442  19.574  0.00  0.00    +0.000 OA
ATOM     19  O   UNL     1       4.493   5.465  20.244  0.00  0.00    +0.000 OA
BRANCH  17  20
ATOM     20  N   UNL     1       3.853   4.115  18.164  0.00  0.00    +0.000 NA
ATOM     21  C   UNL     1       2.779   5.072  17.830  0.00  0.00    +0.000 C 
ATOM     22  C   UNL     1       1.490   4.284  17.978  0.00  0.00    +0.000 C 
ATOM     23  C   UNL     1       1.030   4.140  19.448  0.00  0.00    +0.000 C 
ATOM     24  C   UNL     1       1.294   2.651  19.756  0.00  0.00    +0.000 C 
ATOM     25  C   UNL     1       0.891   2.012  18.431  0.00  0.00    +0.000 C 
ATOM     26  C   UNL     1       1.877   2.846  17.611  0.00  0.00    +0.000 C 
ATOM     27  C   UNL     1       3.254   2.747  18.332  0.00  0.00    +0.000 C 
ATOM     28  C   UNL     1       2.791   2.296  19.746  0.00  0.00    +0.000 C 
BRANCH  28  29
ATOM     29  O   UNL     1       3.488   2.770  20.863  0.00  0.00    +0.000 OA
ATOM     30  H   UNL     1       4.350   2.323  20.905  0.00  0.00    +0.000 HD
ENDBRANCH  28  29
ENDBRANCH  17  20
ENDBRANCH   4  17
TORSDOF 5
ENDMDL
MODEL 9
REMARK VINA RESULT:      -8.0      5.993      8.036
REMARK  Name = 
REMARK  5 active torsions:
REMARK  status: ('A' for Active; 'I' for Inactive)
REMARK    1  A    between atoms: C_2  and  C_23
REMARK    2  A    between atoms: N_3  and  C_4
REMARK    3  A    between atoms: C_7  and  S_8
REMARK    4  A    between atoms: S_8  and  N_11
REMARK    5  A    between atoms: C_19  and  O_20
REMARK                            x       y       z     vdW  Elec       q    Type
REMARK                         _______ _______ _______ _____ _____    ______ ____
ROOT
ATOM      1  C   UNL     1       0.338   9.605  20.705  0.00  0.00    +0.000 A 
ATOM      2  C   UNL     1       0.807   9.705  19.392  0.00  0.00    +0.000 A 
ATOM      3  C   UNL     1       1.714   8.776  18.888  0.00  0.00    +0.000 A 
ATOM      4  C   UNL     1       2.193   7.759  19.712  0.00  0.00    +0.000 A 
ATOM      5  C   UNL     1       1.875   7.758  21.075  0.00  0.00    +0.000 A 
ATOM      6  C   UNL     1       0.958   8.699  21.574  0.00  0.00    +0.000 A 
ENDROOT
BRANCH   1   9
ATOM      7  O   UNL     1       0.185  12.212  22.018  0.00  0.00    +0.000 OA
ATOM      8  C   UNL     1      -0.808  11.575  21.682  0.00  0.00    +0.000 C 
ATOM      9  N   UNL     1      -0.819  10.295  21.136  0.00  0.00    +0.000 N 
ATOM     10  H   UNL     1      -1.729   9.984  20.805  0.00  0.00    +0.000 HD
BRANCH   8  11
ATOM     11  C   UNL     1      -2.135  12.239  21.815  0.00  0.00    +0.000 A 
ATOM     12  C   UNL     1      -2.780  12.215  23.051  0.00  0.00    +0.000 A 
ATOM     13  C   UNL     1      -4.030  12.814  23.164  0.00  0.00    +0.000 A 
ATOM     14  C   UNL     1      -4.588  13.413  22.043  0.00  0.00    +0.000 A 
ATOM     15  C   UNL     1      -3.866  13.398  20.854  0.00  0.00    +0.000 A 
ATOM     16  N   UNL     1      -2.645  12.835  20.705  0.00  0.00    +0.000 NA
ENDBRANCH   8  11
ENDBRANCH   1   9
BRANCH   4  17
ATOM     17  S   UNL     1       2.793   6.261  18.923  0.00  0.00    +0.000 S 
ATOM     18  O   UNL     1       2.782   6.512  17.498  0.00  0.00    +0.000 OA
ATOM     19  O   UNL     1       4.013   5.941  19.634  0.00  0.00    +0.000 OA
BRANCH  17  20
ATOM     20  N   UNL     1       1.628   5.089  19.259  0.00  0.00    +0.000 NA
ATOM     21  C   UNL     1       1.512   4.585  20.642  0.00  0.00    +0.000 C 
ATOM     22  C   UNL     1       1.458   3.074  20.506  0.00  0.00    +0.000 C 
ATOM     23  C   UNL     1       2.849   2.432  20.291  0.00  0.00    +0.000 C 
ATOM     24  C   UNL     1       2.807   1.984  18.815  0.00  0.00    +0.000 C 
ATOM     25  C   UNL     1       1.365   1.498  18.708  0.00  0.00    +0.000 C 
ATOM     26  C   UNL     1       0.772   2.836  19.156  0.00  0.00    +0.000 C 
ATOM     27  C   UNL     1       1.467   3.940  18.304  0.00  0.00    +0.000 C 
ATOM     28  C   UNL     1       2.732   3.168  17.835  0.00  0.00    +0.000 C 
BRANCH  28  29
ATOM     29  O   UNL     1       3.937   3.869  17.708  0.00  0.00    +0.000 OA
ATOM     30  H   UNL     1       4.643   3.353  18.132  0.00  0.00    +0.000 HD
ENDBRANCH  28  29
ENDBRANCH  17  20
ENDBRANCH   4  17
TORSDOF 5
ENDMDL
