MODEL 1
REMARK VINA RESULT:      -9.4      0.000      0.000
REMARK  Name = 
REMARK  7 active torsions:
REMARK  status: ('A' for Active; 'I' for Inactive)
REMARK    1  A    between atoms: C_2  and  C_20
REMARK    2  A    between atoms: N_3  and  C_4
REMARK    3  A    between atoms: C_4  and  C_5
REMARK    4  A    between atoms: N_10  and  C_11
REMARK    5  A    between atoms: C_11  and  C_12
REMARK    6  A    between atoms: N_29  and  C_30
REMARK    7  A    between atoms: C_30  and  C_31
REMARK                            x       y       z     vdW  Elec       q    Type
REMARK                         _______ _______ _______ _____ _____    ______ ____
ROOT
ATOM      1  O   UNL     1       1.923   7.953  18.040  0.00  0.00    +0.000 OA
ATOM      2  C   UNL     1       2.158   7.537  19.163  0.00  0.00    +0.000 C 
ATOM      3  N   UNL     1       1.550   8.049  20.286  0.00  0.00    +0.000 N 
ATOM      4  H   UNL     1       1.652   7.513  21.140  0.00  0.00    +0.000 HD
ENDROOT
BRANCH   2   5
ATOM      5  C   UNL     1       3.032   6.229  19.461  0.00  0.00    +0.000 C 
ATOM      6  C   UNL     1       2.401   5.115  20.287  0.00  0.00    +0.000 A 
ATOM      7  C   UNL     1       2.785   4.485  21.456  0.00  0.00    +0.000 A 
ATOM      8  C   UNL     1       2.167   3.264  21.790  0.00  0.00    +0.000 A 
ATOM      9  C   UNL     1       1.095   2.740  21.036  0.00  0.00    +0.000 A 
ATOM     10  C   UNL     1       0.712   3.371  19.860  0.00  0.00    +0.000 A 
ATOM     11  C   UNL     1       1.471   4.460  19.476  0.00  0.00    +0.000 A 
ATOM     12  C   UNL     1       1.792   4.879  18.105  0.00  0.00    +0.000 C 
ATOM     13  O   UNL     1       1.125   4.592  17.113  0.00  0.00    +0.000 OA
ATOM     14  N   UNL     1       3.007   5.588  18.149  0.00  0.00    +0.000 N 
BRANCH  14  15
ATOM     15  C   UNL     1       4.215   4.841  17.775  0.00  0.00    +0.000 C 
BRANCH  15  16
ATOM     16  C   UNL     1       5.501   5.578  18.045  0.00  0.00    +0.000 A 
ATOM     17  C   UNL     1       5.858   6.675  17.241  0.00  0.00    +0.000 A 
ATOM     18  C   UNL     1       7.089   7.313  17.407  0.00  0.00    +0.000 A 
ATOM     19  C   UNL     1       7.971   6.882  18.392  0.00  0.00    +0.000 A 
ATOM     20  C   UNL     1       7.603   5.836  19.238  0.00  0.00    +0.000 A 
ATOM     21  C   UNL     1       6.369   5.201  19.077  0.00  0.00    +0.000 A 
ENDBRANCH  15  16
ENDBRANCH  14  15
ENDBRANCH   2   5
BRANCH   3  22
ATOM     22  C   UNL     1       0.388   8.901  20.402  0.00  0.00    +0.000 C 
BRANCH  22  23
ATOM     23  C   UNL     1       0.898  10.123  21.175  0.00  0.00    +0.000 C 
ATOM     24  O   UNL     1       1.390   9.954  22.294  0.00  0.00    +0.000 OA
ATOM     25  N   UNL     1       0.657  11.382  20.677  0.00  0.00    +0.000 N 
ATOM     26  C   UNL     1      -0.028  11.685  19.415  0.00  0.00    +0.000 C 
ATOM     27  C   UNL     1       0.956  12.401  18.476  0.00  0.00    +0.000 C 
ATOM     28  N   UNL     1       1.521  13.645  19.063  0.00  0.00    +0.000 NA
ATOM     29  C   UNL     1       2.200  13.267  20.336  0.00  0.00    +0.000 C 
ATOM     30  C   UNL     1       1.287  12.527  21.338  0.00  0.00    +0.000 C 
BRANCH  28  31
ATOM     31  C   UNL     1       0.500  14.675  19.363  0.00  0.00    +0.000 C 
BRANCH  31  32
ATOM     32  C   UNL     1       0.611  15.981  18.594  0.00  0.00    +0.000 A 
ATOM     33  C   UNL     1       1.858  16.450  18.154  0.00  0.00    +0.000 A 
ATOM     34  C   UNL     1       1.958  17.639  17.428  0.00  0.00    +0.000 A 
ATOM     35  C   UNL     1       0.805  18.353  17.110  0.00  0.00    +0.000 A 
ATOM     36  C   UNL     1      -0.444  17.877  17.505  0.00  0.00    +0.000 A 
ATOM     37  C   UNL     1      -0.540  16.697  18.261  0.00  0.00    +0.000 A 
ENDBRANCH  31  32
ENDBRANCH  28  31
ENDBRANCH  22  23
ENDBRANCH   3  22
TORSDOF 7
ENDMDL
MODEL 2
REMARK VINA RESULT:      -9.0      2.785      3.851
REMARK  Name = 
REMARK  7 active torsions:
REMARK  status: ('A' for Active; 'I' for Inactive)
REMARK    1  A    between atoms: C_2  and  C_20
REMARK    2  A    between atoms: N_3  and  C_4
REMARK    3  A    between atoms: C_4  and  C_5
REMARK    4  A    between atoms: N_10  and  C_11
REMARK    5  A    between atoms: C_11  and  C_12
REMARK    6  A    between atoms: N_29  and  C_30
REMARK    7  A    between atoms: C_30  and  C_31
REMARK                            x       y       z     vdW  Elec       q    Type
REMARK                         _______ _______ _______ _____ _____    ______ ____
ROOT
ATOM      1  O   UNL     1       1.643   7.894  20.247  0.00  0.00    +0.000 OA
ATOM      2  C   UNL     1       2.279   7.418  19.320  0.00  0.00    +0.000 C 
ATOM      3  N   UNL     1       2.470   8.085  18.132  0.00  0.00    +0.000 N 
ATOM      4  H   UNL     1       3.171   7.704  17.507  0.00  0.00    +0.000 HD
ENDROOT
BRANCH   2   5
ATOM      5  C   UNL     1       3.135   6.070  19.430  0.00  0.00    +0.000 C 
ATOM      6  C   UNL     1       2.540   4.900  20.203  0.00  0.00    +0.000 A 
ATOM      7  C   UNL     1       2.997   4.160  21.278  0.00  0.00    +0.000 A 
ATOM      8  C   UNL     1       2.372   2.927  21.553  0.00  0.00    +0.000 A 
ATOM      9  C   UNL     1       1.229   2.496  20.845  0.00  0.00    +0.000 A 
ATOM     10  C   UNL     1       0.773   3.238  19.763  0.00  0.00    +0.000 A 
ATOM     11  C   UNL     1       1.530   4.340  19.416  0.00  0.00    +0.000 A 
ATOM     12  C   UNL     1       1.754   4.874  18.066  0.00  0.00    +0.000 C 
ATOM     13  O   UNL     1       1.004   4.691  17.110  0.00  0.00    +0.000 OA
ATOM     14  N   UNL     1       2.989   5.550  18.074  0.00  0.00    +0.000 N 
BRANCH  14  15
ATOM     15  C   UNL     1       4.142   4.813  17.539  0.00  0.00    +0.000 C 
BRANCH  15  16
ATOM     16  C   UNL     1       5.460   5.518  17.725  0.00  0.00    +0.000 A 
ATOM     17  C   UNL     1       6.404   5.003  18.632  0.00  0.00    +0.000 A 
ATOM     18  C   UNL     1       7.591   5.690  18.896  0.00  0.00    +0.000 A 
ATOM     19  C   UNL     1       7.864   6.888  18.243  0.00  0.00    +0.000 A 
ATOM     20  C   UNL     1       6.966   7.377  17.296  0.00  0.00    +0.000 A 
ATOM     21  C   UNL     1       5.781   6.688  17.026  0.00  0.00    +0.000 A 
ENDBRANCH  15  16
ENDBRANCH  14  15
ENDBRANCH   2   5
BRANCH   3  22
ATOM     22  C   UNL     1       2.257   9.477  17.808  0.00  0.00    +0.000 C 
BRANCH  22  23
ATOM     23  C   UNL     1       0.762   9.695  18.067  0.00  0.00    +0.000 C 
ATOM     24  O   UNL     1      -0.057   9.117  17.346  0.00  0.00    +0.000 OA
ATOM     25  N   UNL     1       0.370  10.641  18.986  0.00  0.00    +0.000 N 
ATOM     26  C   UNL     1       1.270  11.464  19.801  0.00  0.00    +0.000 C 
ATOM     27  C   UNL     1       1.043  11.127  21.284  0.00  0.00    +0.000 C 
ATOM     28  N   UNL     1      -0.365  11.327  21.717  0.00  0.00    +0.000 NA
ATOM     29  C   UNL     1      -1.222  10.465  20.852  0.00  0.00    +0.000 C 
ATOM     30  C   UNL     1      -1.049  10.725  19.339  0.00  0.00    +0.000 C 
BRANCH  28  31
ATOM     31  C   UNL     1      -0.831  12.728  21.593  0.00  0.00    +0.000 C 
BRANCH  31  32
ATOM     32  C   UNL     1      -1.698  13.253  22.724  0.00  0.00    +0.000 A 
ATOM     33  C   UNL     1      -2.873  12.583  23.097  0.00  0.00    +0.000 A 
ATOM     34  C   UNL     1      -3.660  13.054  24.151  0.00  0.00    +0.000 A 
ATOM     35  C   UNL     1      -3.260  14.183  24.861  0.00  0.00    +0.000 A 
ATOM     36  C   UNL     1      -2.074  14.835  24.528  0.00  0.00    +0.000 A 
ATOM     37  C   UNL     1      -1.299  14.377  23.448  0.00  0.00    +0.000 A 
ENDBRANCH  31  32
ENDBRANCH  28  31
ENDBRANCH  22  23
ENDBRANCH   3  22
TORSDOF 7
ENDMDL
MODEL 3
REMARK VINA RESULT:      -8.9      3.405      5.635
REMARK  Name = 
REMARK  7 active torsions:
REMARK  status: ('A' for Active; 'I' for Inactive)
REMARK    1  A    between atoms: C_2  and  C_20
REMARK    2  A    between atoms: N_3  and  C_4
REMARK    3  A    between atoms: C_4  and  C_5
REMARK    4  A    between atoms: N_10  and  C_11
REMARK    5  A    between atoms: C_11  and  C_12
REMARK    6  A    between atoms: N_29  and  C_30
REMARK    7  A    between atoms: C_30  and  C_31
REMARK                            x       y       z     vdW  Elec       q    Type
REMARK                         _______ _______ _______ _____ _____    ______ ____
ROOT
ATOM      1  O   UNL     1       3.856   8.059  16.726  0.00  0.00    +0.000 OA
ATOM      2  C   UNL     1       3.607   7.224  17.581  0.00  0.00    +0.000 C 
ATOM      3  N   UNL     1       2.849   7.505  18.694  0.00  0.00    +0.000 N 
ATOM      4  H   UNL     1       2.529   6.710  19.236  0.00  0.00    +0.000 HD
ENDROOT
BRANCH   2   5
ATOM      5  C   UNL     1       3.947   5.667  17.426  0.00  0.00    +0.000 C 
ATOM      6  C   UNL     1       4.876   5.242  16.296  0.00  0.00    +0.000 A 
ATOM      7  C   UNL     1       4.731   4.346  15.253  0.00  0.00    +0.000 A 
ATOM      8  C   UNL     1       5.889   3.923  14.571  0.00  0.00    +0.000 A 
ATOM      9  C   UNL     1       7.158   4.478  14.840  0.00  0.00    +0.000 A 
ATOM     10  C   UNL     1       7.304   5.376  15.891  0.00  0.00    +0.000 A 
ATOM     11  C   UNL     1       6.174   5.617  16.649  0.00  0.00    +0.000 A 
ATOM     12  C   UNL     1       6.116   5.895  18.090  0.00  0.00    +0.000 C 
ATOM     13  O   UNL     1       7.046   6.354  18.751  0.00  0.00    +0.000 OA
ATOM     14  N   UNL     1       4.854   5.479  18.555  0.00  0.00    +0.000 N 
BRANCH  14  15
ATOM     15  C   UNL     1       4.798   4.167  19.214  0.00  0.00    +0.000 C 
BRANCH  15  16
ATOM     16  C   UNL     1       3.401   3.635  19.403  0.00  0.00    +0.000 A 
ATOM     17  C   UNL     1       2.880   2.703  18.489  0.00  0.00    +0.000 A 
ATOM     18  C   UNL     1       1.556   2.270  18.585  0.00  0.00    +0.000 A 
ATOM     19  C   UNL     1       0.740   2.742  19.609  0.00  0.00    +0.000 A 
ATOM     20  C   UNL     1       1.264   3.617  20.560  0.00  0.00    +0.000 A 
ATOM     21  C   UNL     1       2.589   4.047  20.468  0.00  0.00    +0.000 A 
ENDBRANCH  15  16
ENDBRANCH  14  15
ENDBRANCH   2   5
BRANCH   3  22
ATOM     22  C   UNL     1       1.993   8.636  18.969  0.00  0.00    +0.000 C 
BRANCH  22  23
ATOM     23  C   UNL     1       1.259   8.244  20.257  0.00  0.00    +0.000 C 
ATOM     24  O   UNL     1       1.393   7.096  20.691  0.00  0.00    +0.000 OA
ATOM     25  N   UNL     1       0.354   9.120  20.809  0.00  0.00    +0.000 N 
ATOM     26  C   UNL     1       0.038  10.458  20.295  0.00  0.00    +0.000 C 
ATOM     27  C   UNL     1       0.441  11.502  21.348  0.00  0.00    +0.000 C 
ATOM     28  N   UNL     1      -0.222  11.289  22.662  0.00  0.00    +0.000 NA
ATOM     29  C   UNL     1       0.141   9.918  23.125  0.00  0.00    +0.000 C 
ATOM     30  C   UNL     1      -0.216   8.801  22.119  0.00  0.00    +0.000 C 
BRANCH  28  31
ATOM     31  C   UNL     1      -1.699  11.390  22.605  0.00  0.00    +0.000 C 
BRANCH  31  32
ATOM     32  C   UNL     1      -2.328  12.530  23.388  0.00  0.00    +0.000 A 
ATOM     33  C   UNL     1      -1.645  13.742  23.565  0.00  0.00    +0.000 A 
ATOM     34  C   UNL     1      -2.232  14.797  24.266  0.00  0.00    +0.000 A 
ATOM     35  C   UNL     1      -3.522  14.658  24.772  0.00  0.00    +0.000 A 
ATOM     36  C   UNL     1      -4.229  13.474  24.567  0.00  0.00    +0.000 A 
ATOM     37  C   UNL     1      -3.625  12.403  23.887  0.00  0.00    +0.000 A 
ENDBRANCH  31  32
ENDBRANCH  28  31
ENDBRANCH  22  23
ENDBRANCH   3  22
TORSDOF 7
ENDMDL
MODEL 4
REMARK VINA RESULT:      -8.9      0.868      1.251
REMARK  Name = 
REMARK  7 active torsions:
REMARK  status: ('A' for Active; 'I' for Inactive)
REMARK    1  A    between atoms: C_2  and  C_20
REMARK    2  A    between atoms: N_3  and  C_4
REMARK    3  A    between atoms: C_4  and  C_5
REMARK    4  A    between atoms: N_10  and  C_11
REMARK    5  A    between atoms: C_11  and  C_12
REMARK    6  A    between atoms: N_29  and  C_30
REMARK    7  A    between atoms: C_30  and  C_31
REMARK                            x       y       z     vdW  Elec       q    Type
REMARK                         _______ _______ _______ _____ _____    ______ ____
ROOT
ATOM      1  O   UNL     1       2.087   7.887  18.418  0.00  0.00    +0.000 OA
ATOM      2  C   UNL     1       2.262   7.308  19.478  0.00  0.00    +0.000 C 
ATOM      3  N   UNL     1       1.590   7.648  20.629  0.00  0.00    +0.000 N 
ATOM      4  H   UNL     1       1.648   6.991  21.398  0.00  0.00    +0.000 HD
ENDROOT
BRANCH   2   5
ATOM      5  C   UNL     1       3.126   5.968  19.626  0.00  0.00    +0.000 C 
ATOM      6  C   UNL     1       2.505   4.789  20.364  0.00  0.00    +0.000 A 
ATOM      7  C   UNL     1       2.915   4.048  21.457  0.00  0.00    +0.000 A 
ATOM      8  C   UNL     1       2.289   2.809  21.695  0.00  0.00    +0.000 A 
ATOM      9  C   UNL     1       1.188   2.369  20.930  0.00  0.00    +0.000 A 
ATOM     10  C   UNL     1       0.779   3.111  19.830  0.00  0.00    +0.000 A 
ATOM     11  C   UNL     1       1.541   4.223  19.525  0.00  0.00    +0.000 A 
ATOM     12  C   UNL     1       1.827   4.764  18.190  0.00  0.00    +0.000 C 
ATOM     13  O   UNL     1       1.127   4.578  17.197  0.00  0.00    +0.000 OA
ATOM     14  N   UNL     1       3.053   5.452  18.262  0.00  0.00    +0.000 N 
BRANCH  14  15
ATOM     15  C   UNL     1       4.239   4.730  17.782  0.00  0.00    +0.000 C 
BRANCH  15  16
ATOM     16  C   UNL     1       5.521   5.512  17.895  0.00  0.00    +0.000 A 
ATOM     17  C   UNL     1       6.505   5.109  18.815  0.00  0.00    +0.000 A 
ATOM     18  C   UNL     1       7.658   5.872  19.010  0.00  0.00    +0.000 A 
ATOM     19  C   UNL     1       7.857   7.035  18.273  0.00  0.00    +0.000 A 
ATOM     20  C   UNL     1       6.920   7.412  17.312  0.00  0.00    +0.000 A 
ATOM     21  C   UNL     1       5.769   6.647  17.112  0.00  0.00    +0.000 A 
ENDBRANCH  15  16
ENDBRANCH  14  15
ENDBRANCH   2   5
BRANCH   3  22
ATOM     22  C   UNL     1       0.419   8.476  20.806  0.00  0.00    +0.000 C 
BRANCH  22  23
ATOM     23  C   UNL     1       0.973   9.790  21.369  0.00  0.00    +0.000 C 
ATOM     24  O   UNL     1       1.696   9.750  22.369  0.00  0.00    +0.000 OA
ATOM     25  N   UNL     1       0.533  10.984  20.847  0.00  0.00    +0.000 N 
ATOM     26  C   UNL     1      -0.419  11.133  19.740  0.00  0.00    +0.000 C 
ATOM     27  C   UNL     1       0.290  11.831  18.568  0.00  0.00    +0.000 C 
ATOM     28  N   UNL     1       0.858  13.155  18.936  0.00  0.00    +0.000 NA
ATOM     29  C   UNL     1       1.812  12.932  20.060  0.00  0.00    +0.000 C 
ATOM     30  C   UNL     1       1.188  12.220  21.281  0.00  0.00    +0.000 C 
BRANCH  28  31
ATOM     31  C   UNL     1      -0.162  14.137  19.373  0.00  0.00    +0.000 C 
BRANCH  31  32
ATOM     32  C   UNL     1       0.303  15.577  19.510  0.00  0.00    +0.000 A 
ATOM     33  C   UNL     1       1.082  16.177  18.510  0.00  0.00    +0.000 A 
ATOM     34  C   UNL     1       1.491  17.508  18.626  0.00  0.00    +0.000 A 
ATOM     35  C   UNL     1       1.098  18.258  19.732  0.00  0.00    +0.000 A 
ATOM     36  C   UNL     1       0.290  17.686  20.713  0.00  0.00    +0.000 A 
ATOM     37  C   UNL     1      -0.096  16.339  20.609  0.00  0.00    +0.000 A 
ENDBRANCH  31  32
ENDBRANCH  28  31
ENDBRANCH  22  23
ENDBRANCH   3  22
TORSDOF 7
ENDMDL
MODEL 5
REMARK VINA RESULT:      -8.9      3.290      5.700
REMARK  Name = 
REMARK  7 active torsions:
REMARK  status: ('A' for Active; 'I' for Inactive)
REMARK    1  A    between atoms: C_2  and  C_20
REMARK    2  A    between atoms: N_3  and  C_4
REMARK    3  A    between atoms: C_4  and  C_5
REMARK    4  A    between atoms: N_10  and  C_11
REMARK    5  A    between atoms: C_11  and  C_12
REMARK    6  A    between atoms: N_29  and  C_30
REMARK    7  A    between atoms: C_30  and  C_31
REMARK                            x       y       z     vdW  Elec       q    Type
REMARK                         _______ _______ _______ _____ _____    ______ ____
ROOT
ATOM      1  O   UNL     1       4.887   7.535  17.700  0.00  0.00    +0.000 OA
ATOM      2  C   UNL     1       3.976   6.729  17.806  0.00  0.00    +0.000 C 
ATOM      3  N   UNL     1       2.760   7.052  18.363  0.00  0.00    +0.000 N 
ATOM      4  H   UNL     1       2.008   6.387  18.225  0.00  0.00    +0.000 HD
ENDROOT
BRANCH   2   5
ATOM      5  C   UNL     1       3.997   5.274  17.138  0.00  0.00    +0.000 C 
ATOM      6  C   UNL     1       4.961   5.024  15.985  0.00  0.00    +0.000 A 
ATOM      7  C   UNL     1       4.774   4.579  14.690  0.00  0.00    +0.000 A 
ATOM      8  C   UNL     1       5.899   4.131  13.970  0.00  0.00    +0.000 A 
ATOM      9  C   UNL     1       7.208   4.238  14.487  0.00  0.00    +0.000 A 
ATOM     10  C   UNL     1       7.394   4.681  15.791  0.00  0.00    +0.000 A 
ATOM     11  C   UNL     1       6.248   4.932  16.520  0.00  0.00    +0.000 A 
ATOM     12  C   UNL     1       6.053   4.733  17.962  0.00  0.00    +0.000 C 
ATOM     13  O   UNL     1       6.958   4.709  18.793  0.00  0.00    +0.000 OA
ATOM     14  N   UNL     1       4.680   4.512  18.181  0.00  0.00    +0.000 N 
BRANCH  14  15
ATOM     15  C   UNL     1       4.258   3.114  18.338  0.00  0.00    +0.000 C 
BRANCH  15  16
ATOM     16  C   UNL     1       3.209   2.905  19.399  0.00  0.00    +0.000 A 
ATOM     17  C   UNL     1       1.850   3.063  19.077  0.00  0.00    +0.000 A 
ATOM     18  C   UNL     1       0.865   2.972  20.064  0.00  0.00    +0.000 A 
ATOM     19  C   UNL     1       1.221   2.700  21.381  0.00  0.00    +0.000 A 
ATOM     20  C   UNL     1       2.560   2.479  21.703  0.00  0.00    +0.000 A 
ATOM     21  C   UNL     1       3.545   2.564  20.716  0.00  0.00    +0.000 A 
ENDBRANCH  15  16
ENDBRANCH  14  15
ENDBRANCH   2   5
BRANCH   3  22
ATOM     22  C   UNL     1       2.194   8.348  18.659  0.00  0.00    +0.000 C 
BRANCH  22  23
ATOM     23  C   UNL     1       1.462   8.139  19.990  0.00  0.00    +0.000 C 
ATOM     24  O   UNL     1       1.574   7.053  20.565  0.00  0.00    +0.000 OA
ATOM     25  N   UNL     1       0.583   9.100  20.432  0.00  0.00    +0.000 N 
ATOM     26  C   UNL     1       0.292  10.369  19.754  0.00  0.00    +0.000 C 
ATOM     27  C   UNL     1       0.729  11.528  20.665  0.00  0.00    +0.000 C 
ATOM     28  N   UNL     1       0.073  11.499  21.998  0.00  0.00    +0.000 NA
ATOM     29  C   UNL     1       0.409  10.190  22.630  0.00  0.00    +0.000 C 
ATOM     30  C   UNL     1       0.017   8.963  21.776  0.00  0.00    +0.000 C 
BRANCH  28  31
ATOM     31  C   UNL     1      -1.401  11.628  21.938  0.00  0.00    +0.000 C 
BRANCH  31  32
ATOM     32  C   UNL     1      -2.040  12.563  22.951  0.00  0.00    +0.000 A 
ATOM     33  C   UNL     1      -3.296  12.272  23.502  0.00  0.00    +0.000 A 
ATOM     34  C   UNL     1      -3.874  13.120  24.450  0.00  0.00    +0.000 A 
ATOM     35  C   UNL     1      -3.184  14.252  24.877  0.00  0.00    +0.000 A 
ATOM     36  C   UNL     1      -1.916  14.531  24.368  0.00  0.00    +0.000 A 
ATOM     37  C   UNL     1      -1.350  13.693  23.393  0.00  0.00    +0.000 A 
ENDBRANCH  31  32
ENDBRANCH  28  31
ENDBRANCH  22  23
ENDBRANCH   3  22
TORSDOF 7
ENDMDL
MODEL 6
REMARK VINA RESULT:      -8.8      3.487      5.650
REMARK  Name = 
REMARK  7 active torsions:
REMARK  status: ('A' for Active; 'I' for Inactive)
REMARK    1  A    between atoms: C_2  and  C_20
REMARK    2  A    between atoms: N_3  and  C_4
REMARK    3  A    between atoms: C_4  and  C_5
REMARK    4  A    between atoms: N_10  and  C_11
REMARK    5  A    between atoms: C_11  and  C_12
REMARK    6  A    between atoms: N_29  and  C_30
REMARK    7  A    between atoms: C_30  and  C_31
REMARK                            x       y       z     vdW  Elec       q    Type
REMARK                         _______ _______ _______ _____ _____    ______ ____
ROOT
ATOM      1  O   UNL     1       4.142   8.065  17.278  0.00  0.00    +0.000 OA
ATOM      2  C   UNL     1       3.660   7.138  17.909  0.00  0.00    +0.000 C 
ATOM      3  N   UNL     1       2.700   7.319  18.878  0.00  0.00    +0.000 N 
ATOM      4  H   UNL     1       2.219   6.487  19.199  0.00  0.00    +0.000 HD
ENDROOT
BRANCH   2   5
ATOM      5  C   UNL     1       3.918   5.596  17.559  0.00  0.00    +0.000 C 
ATOM      6  C   UNL     1       4.888   5.267  16.431  0.00  0.00    +0.000 A 
ATOM      7  C   UNL     1       4.754   4.530  15.269  0.00  0.00    +0.000 A 
ATOM      8  C   UNL     1       5.925   4.128  14.596  0.00  0.00    +0.000 A 
ATOM      9  C   UNL     1       7.206   4.559  15.004  0.00  0.00    +0.000 A 
ATOM     10  C   UNL     1       7.339   5.297  16.173  0.00  0.00    +0.000 A 
ATOM     11  C   UNL     1       6.182   5.507  16.899  0.00  0.00    +0.000 A 
ATOM     12  C   UNL     1       6.053   5.593  18.359  0.00  0.00    +0.000 C 
ATOM     13  O   UNL     1       6.967   5.899  19.124  0.00  0.00    +0.000 OA
ATOM     14  N   UNL     1       4.744   5.201  18.697  0.00  0.00    +0.000 N 
BRANCH  14  15
ATOM     15  C   UNL     1       4.575   3.819  19.166  0.00  0.00    +0.000 C 
BRANCH  15  16
ATOM     16  C   UNL     1       3.140   3.421  19.395  0.00  0.00    +0.000 A 
ATOM     17  C   UNL     1       2.473   3.853  20.554  0.00  0.00    +0.000 A 
ATOM     18  C   UNL     1       1.177   3.418  20.839  0.00  0.00    +0.000 A 
ATOM     19  C   UNL     1       0.519   2.563  19.959  0.00  0.00    +0.000 A 
ATOM     20  C   UNL     1       1.145   2.178  18.775  0.00  0.00    +0.000 A 
ATOM     21  C   UNL     1       2.440   2.617  18.486  0.00  0.00    +0.000 A 
ENDBRANCH  15  16
ENDBRANCH  14  15
ENDBRANCH   2   5
BRANCH   3  22
ATOM     22  C   UNL     1       1.884   8.476  19.167  0.00  0.00    +0.000 C 
BRANCH  22  23
ATOM     23  C   UNL     1       1.152   8.102  20.461  0.00  0.00    +0.000 C 
ATOM     24  O   UNL     1       1.284   6.959  20.909  0.00  0.00    +0.000 OA
ATOM     25  N   UNL     1       0.251   8.988  21.004  0.00  0.00    +0.000 N 
ATOM     26  C   UNL     1      -0.063  10.320  20.474  0.00  0.00    +0.000 C 
ATOM     27  C   UNL     1       0.347  11.376  21.513  0.00  0.00    +0.000 C 
ATOM     28  N   UNL     1      -0.313  11.182  22.831  0.00  0.00    +0.000 NA
ATOM     29  C   UNL     1       0.046   9.816  23.311  0.00  0.00    +0.000 C 
ATOM     30  C   UNL     1      -0.317   8.687  22.320  0.00  0.00    +0.000 C 
BRANCH  28  31
ATOM     31  C   UNL     1      -1.790  11.287  22.777  0.00  0.00    +0.000 C 
BRANCH  31  32
ATOM     32  C   UNL     1      -2.388  12.620  23.195  0.00  0.00    +0.000 A 
ATOM     33  C   UNL     1      -3.778  12.801  23.232  0.00  0.00    +0.000 A 
ATOM     34  C   UNL     1      -4.329  14.019  23.638  0.00  0.00    +0.000 A 
ATOM     35  C   UNL     1      -3.491  15.057  24.039  0.00  0.00    +0.000 A 
ATOM     36  C   UNL     1      -2.109  14.876  24.047  0.00  0.00    +0.000 A 
ATOM     37  C   UNL     1      -1.556  13.660  23.611  0.00  0.00    +0.000 A 
ENDBRANCH  31  32
ENDBRANCH  28  31
ENDBRANCH  22  23
ENDBRANCH   3  22
TORSDOF 7
ENDMDL
MODEL 7
REMARK VINA RESULT:      -8.8      2.802      3.762
REMARK  Name = 
REMARK  7 active torsions:
REMARK  status: ('A' for Active; 'I' for Inactive)
REMARK    1  A    between atoms: C_2  and  C_20
REMARK    2  A    between atoms: N_3  and  C_4
REMARK    3  A    between atoms: C_4  and  C_5
REMARK    4  A    between atoms: N_10  and  C_11
REMARK    5  A    between atoms: C_11  and  C_12
REMARK    6  A    between atoms: N_29  and  C_30
REMARK    7  A    between atoms: C_30  and  C_31
REMARK                            x       y       z     vdW  Elec       q    Type
REMARK                         _______ _______ _______ _____ _____    ______ ____
ROOT
ATOM      1  O   UNL     1       1.544   7.918  20.300  0.00  0.00    +0.000 OA
ATOM      2  C   UNL     1       2.216   7.430  19.406  0.00  0.00    +0.000 C 
ATOM      3  N   UNL     1       2.439   8.072  18.210  0.00  0.00    +0.000 N 
ATOM      4  H   UNL     1       3.166   7.687  17.618  0.00  0.00    +0.000 HD
ENDROOT
BRANCH   2   5
ATOM      5  C   UNL     1       3.085   6.096  19.576  0.00  0.00    +0.000 C 
ATOM      6  C   UNL     1       2.461   4.919  20.315  0.00  0.00    +0.000 A 
ATOM      7  C   UNL     1       2.861   4.190  21.420  0.00  0.00    +0.000 A 
ATOM      8  C   UNL     1       2.240   2.949  21.660  0.00  0.00    +0.000 A 
ATOM      9  C   UNL     1       1.151   2.497  20.885  0.00  0.00    +0.000 A 
ATOM     10  C   UNL     1       0.752   3.228  19.773  0.00  0.00    +0.000 A 
ATOM     11  C   UNL     1       1.512   4.341  19.469  0.00  0.00    +0.000 A 
ATOM     12  C   UNL     1       1.811   4.873  18.134  0.00  0.00    +0.000 C 
ATOM     13  O   UNL     1       1.126   4.675  17.133  0.00  0.00    +0.000 OA
ATOM     14  N   UNL     1       3.032   5.569  18.215  0.00  0.00    +0.000 N 
BRANCH  14  15
ATOM     15  C   UNL     1       4.228   4.849  17.757  0.00  0.00    +0.000 C 
BRANCH  15  16
ATOM     16  C   UNL     1       5.518   5.592  17.990  0.00  0.00    +0.000 A 
ATOM     17  C   UNL     1       5.799   6.753  17.247  0.00  0.00    +0.000 A 
ATOM     18  C   UNL     1       7.028   7.403  17.373  0.00  0.00    +0.000 A 
ATOM     19  C   UNL     1       7.986   6.918  18.258  0.00  0.00    +0.000 A 
ATOM     20  C   UNL     1       7.697   5.805  19.046  0.00  0.00    +0.000 A 
ATOM     21  C   UNL     1       6.466   5.157  18.926  0.00  0.00    +0.000 A 
ENDBRANCH  15  16
ENDBRANCH  14  15
ENDBRANCH   2   5
BRANCH   3  22
ATOM     22  C   UNL     1       2.220   9.454  17.847  0.00  0.00    +0.000 C 
BRANCH  22  23
ATOM     23  C   UNL     1       0.714   9.658  18.051  0.00  0.00    +0.000 C 
ATOM     24  O   UNL     1      -0.072   9.077  17.297  0.00  0.00    +0.000 OA
ATOM     25  N   UNL     1       0.279  10.595  18.959  0.00  0.00    +0.000 N 
ATOM     26  C   UNL     1       1.141  11.421  19.813  0.00  0.00    +0.000 C 
ATOM     27  C   UNL     1       0.861  11.074  21.284  0.00  0.00    +0.000 C 
ATOM     28  N   UNL     1      -0.564  11.259  21.664  0.00  0.00    +0.000 NA
ATOM     29  C   UNL     1      -1.381  10.395  20.763  0.00  0.00    +0.000 C 
ATOM     30  C   UNL     1      -1.152  10.665  19.259  0.00  0.00    +0.000 C 
BRANCH  28  31
ATOM     31  C   UNL     1      -1.038  12.656  21.530  0.00  0.00    +0.000 C 
BRANCH  31  32
ATOM     32  C   UNL     1      -2.444  12.944  22.030  0.00  0.00    +0.000 A 
ATOM     33  C   UNL     1      -3.445  13.372  21.145  0.00  0.00    +0.000 A 
ATOM     34  C   UNL     1      -4.743  13.616  21.600  0.00  0.00    +0.000 A 
ATOM     35  C   UNL     1      -5.057  13.403  22.940  0.00  0.00    +0.000 A 
ATOM     36  C   UNL     1      -4.083  12.937  23.821  0.00  0.00    +0.000 A 
ATOM     37  C   UNL     1      -2.770  12.722  23.368  0.00  0.00    +0.000 A 
ENDBRANCH  31  32
ENDBRANCH  28  31
ENDBRANCH  22  23
ENDBRANCH   3  22
TORSDOF 7
ENDMDL
MODEL 8
REMARK VINA RESULT:      -8.8      3.371      4.158
REMARK  Name = 
REMARK  7 active torsions:
REMARK  status: ('A' for Active; 'I' for Inactive)
REMARK    1  A    between atoms: C_2  and  C_20
REMARK    2  A    between atoms: N_3  and  C_4
REMARK    3  A    between atoms: C_4  and  C_5
REMARK    4  A    between atoms: N_10  and  C_11
REMARK    5  A    between atoms: C_11  and  C_12
REMARK    6  A    between atoms: N_29  and  C_30
REMARK    7  A    between atoms: C_30  and  C_31
REMARK                            x       y       z     vdW  Elec       q    Type
REMARK                         _______ _______ _______ _____ _____    ______ ____
ROOT
ATOM      1  O   UNL     1       3.390   7.346  17.324  0.00  0.00    +0.000 OA
ATOM      2  C   UNL     1       3.296   6.814  18.419  0.00  0.00    +0.000 C 
ATOM      3  N   UNL     1       2.625   7.395  19.470  0.00  0.00    +0.000 N 
ATOM      4  H   UNL     1       2.427   6.798  20.265  0.00  0.00    +0.000 HD
ENDROOT
BRANCH   2   5
ATOM      5  C   UNL     1       3.751   5.308  18.716  0.00  0.00    +0.000 C 
ATOM      6  C   UNL     1       2.995   4.525  19.782  0.00  0.00    +0.000 A 
ATOM      7  C   UNL     1       3.403   3.874  20.931  0.00  0.00    +0.000 A 
ATOM      8  C   UNL     1       2.517   2.957  21.529  0.00  0.00    +0.000 A 
ATOM      9  C   UNL     1       1.197   2.781  21.062  0.00  0.00    +0.000 A 
ATOM     10  C   UNL     1       0.788   3.432  19.905  0.00  0.00    +0.000 A 
ATOM     11  C   UNL     1       1.751   4.175  19.249  0.00  0.00    +0.000 A 
ATOM     12  C   UNL     1       1.882   4.378  17.801  0.00  0.00    +0.000 C 
ATOM     13  O   UNL     1       0.959   4.273  16.995  0.00  0.00    +0.000 OA
ATOM     14  N   UNL     1       3.238   4.635  17.526  0.00  0.00    +0.000 N 
BRANCH  14  15
ATOM     15  C   UNL     1       4.034   3.503  17.034  0.00  0.00    +0.000 C 
BRANCH  15  16
ATOM     16  C   UNL     1       5.187   3.901  16.150  0.00  0.00    +0.000 A 
ATOM     17  C   UNL     1       6.313   4.527  16.712  0.00  0.00    +0.000 A 
ATOM     18  C   UNL     1       7.351   4.994  15.903  0.00  0.00    +0.000 A 
ATOM     19  C   UNL     1       7.290   4.823  14.523  0.00  0.00    +0.000 A 
ATOM     20  C   UNL     1       6.209   4.149  13.958  0.00  0.00    +0.000 A 
ATOM     21  C   UNL     1       5.173   3.675  14.767  0.00  0.00    +0.000 A 
ENDBRANCH  15  16
ENDBRANCH  14  15
ENDBRANCH   2   5
BRANCH   3  22
ATOM     22  C   UNL     1       1.705   8.509  19.478  0.00  0.00    +0.000 C 
BRANCH  22  23
ATOM     23  C   UNL     1       0.836   8.267  20.718  0.00  0.00    +0.000 C 
ATOM     24  O   UNL     1       0.826   7.141  21.224  0.00  0.00    +0.000 OA
ATOM     25  N   UNL     1      -0.023   9.254  21.141  0.00  0.00    +0.000 N 
ATOM     26  C   UNL     1      -0.170  10.579  20.528  0.00  0.00    +0.000 C 
ATOM     27  C   UNL     1       0.245  11.648  21.552  0.00  0.00    +0.000 C 
ATOM     28  N   UNL     1      -0.538  11.579  22.814  0.00  0.00    +0.000 NA
ATOM     29  C   UNL     1      -0.346  10.213  23.382  0.00  0.00    +0.000 C 
ATOM     30  C   UNL     1      -0.725   9.071  22.413  0.00  0.00    +0.000 C 
BRANCH  28  31
ATOM     31  C   UNL     1      -1.990  11.808  22.625  0.00  0.00    +0.000 C 
BRANCH  31  32
ATOM     32  C   UNL     1      -2.564  13.061  23.263  0.00  0.00    +0.000 A 
ATOM     33  C   UNL     1      -3.951  13.250  23.352  0.00  0.00    +0.000 A 
ATOM     34  C   UNL     1      -4.480  14.391  23.958  0.00  0.00    +0.000 A 
ATOM     35  C   UNL     1      -3.623  15.341  24.508  0.00  0.00    +0.000 A 
ATOM     36  C   UNL     1      -2.243  15.147  24.464  0.00  0.00    +0.000 A 
ATOM     37  C   UNL     1      -1.713  14.012  23.828  0.00  0.00    +0.000 A 
ENDBRANCH  31  32
ENDBRANCH  28  31
ENDBRANCH  22  23
ENDBRANCH   3  22
TORSDOF 7
ENDMDL
MODEL 9
REMARK VINA RESULT:      -8.7      2.363      3.284
REMARK  Name = 
REMARK  7 active torsions:
REMARK  status: ('A' for Active; 'I' for Inactive)
REMARK    1  A    between atoms: C_2  and  C_20
REMARK    2  A    between atoms: N_3  and  C_4
REMARK    3  A    between atoms: C_4  and  C_5
REMARK    4  A    between atoms: N_10  and  C_11
REMARK    5  A    between atoms: C_11  and  C_12
REMARK    6  A    between atoms: N_29  and  C_30
REMARK    7  A    between atoms: C_30  and  C_31
REMARK                            x       y       z     vdW  Elec       q    Type
REMARK                         _______ _______ _______ _____ _____    ______ ____
ROOT
ATOM      1  O   UNL     1       1.622   7.939  20.263  0.00  0.00    +0.000 OA
ATOM      2  C   UNL     1       2.261   7.427  19.357  0.00  0.00    +0.000 C 
ATOM      3  N   UNL     1       2.463   8.049  18.147  0.00  0.00    +0.000 N 
ATOM      4  H   UNL     1       3.166   7.642  17.541  0.00  0.00    +0.000 HD
ENDROOT
BRANCH   2   5
ATOM      5  C   UNL     1       3.108   6.078  19.521  0.00  0.00    +0.000 C 
ATOM      6  C   UNL     1       2.479   4.922  20.289  0.00  0.00    +0.000 A 
ATOM      7  C   UNL     1       2.891   4.197  21.391  0.00  0.00    +0.000 A 
ATOM      8  C   UNL     1       2.252   2.971  21.661  0.00  0.00    +0.000 A 
ATOM      9  C   UNL     1       1.136   2.531  20.917  0.00  0.00    +0.000 A 
ATOM     10  C   UNL     1       0.724   3.258  19.807  0.00  0.00    +0.000 A 
ATOM     11  C   UNL     1       1.498   4.353  19.472  0.00  0.00    +0.000 A 
ATOM     12  C   UNL     1       1.776   4.865  18.124  0.00  0.00    +0.000 C 
ATOM     13  O   UNL     1       1.062   4.669  17.142  0.00  0.00    +0.000 OA
ATOM     14  N   UNL     1       3.012   5.537  18.168  0.00  0.00    +0.000 N 
BRANCH  14  15
ATOM     15  C   UNL     1       4.182   4.789  17.690  0.00  0.00    +0.000 C 
BRANCH  15  16
ATOM     16  C   UNL     1       5.487   5.524  17.849  0.00  0.00    +0.000 A 
ATOM     17  C   UNL     1       6.415   5.097  18.816  0.00  0.00    +0.000 A 
ATOM     18  C   UNL     1       7.587   5.819  19.051  0.00  0.00    +0.000 A 
ATOM     19  C   UNL     1       7.862   6.964  18.310  0.00  0.00    +0.000 A 
ATOM     20  C   UNL     1       6.981   7.363  17.306  0.00  0.00    +0.000 A 
ATOM     21  C   UNL     1       5.811   6.639  17.065  0.00  0.00    +0.000 A 
ENDBRANCH  15  16
ENDBRANCH  14  15
ENDBRANCH   2   5
BRANCH   3  22
ATOM     22  C   UNL     1       2.262   9.430  17.772  0.00  0.00    +0.000 C 
BRANCH  22  23
ATOM     23  C   UNL     1       0.777   9.681  18.061  0.00  0.00    +0.000 C 
ATOM     24  O   UNL     1      -0.066   8.993  17.478  0.00  0.00    +0.000 OA
ATOM     25  N   UNL     1       0.415  10.759  18.835  0.00  0.00    +0.000 N 
ATOM     26  C   UNL     1       1.341  11.704  19.470  0.00  0.00    +0.000 C 
ATOM     27  C   UNL     1       1.183  11.604  20.995  0.00  0.00    +0.000 C 
ATOM     28  N   UNL     1      -0.207  11.865  21.454  0.00  0.00    +0.000 NA
ATOM     29  C   UNL     1      -1.092  10.874  20.775  0.00  0.00    +0.000 C 
ATOM     30  C   UNL     1      -0.987  10.892  19.234  0.00  0.00    +0.000 C 
BRANCH  28  31
ATOM     31  C   UNL     1      -0.693  13.226  21.132  0.00  0.00    +0.000 C 
BRANCH  31  32
ATOM     32  C   UNL     1      -0.700  14.229  22.274  0.00  0.00    +0.000 A 
ATOM     33  C   UNL     1      -1.441  13.983  23.439  0.00  0.00    +0.000 A 
ATOM     34  C   UNL     1      -1.430  14.894  24.498  0.00  0.00    +0.000 A 
ATOM     35  C   UNL     1      -0.652  16.045  24.411  0.00  0.00    +0.000 A 
ATOM     36  C   UNL     1       0.122  16.282  23.276  0.00  0.00    +0.000 A 
ATOM     37  C   UNL     1       0.086  15.379  22.200  0.00  0.00    +0.000 A 
ENDBRANCH  31  32
ENDBRANCH  28  31
ENDBRANCH  22  23
ENDBRANCH   3  22
TORSDOF 7
ENDMDL
