MODEL 1
REMARK VINA RESULT:      -8.4      0.000      0.000
REMARK  Name = 
REMARK  6 active torsions:
REMARK  status: ('A' for Active; 'I' for Inactive)
REMARK    1  A    between atoms: C_1  and  N_2
REMARK    2  A    between atoms: C_6  and  C_7
REMARK    3  A    between atoms: C_7  and  C_8
REMARK    4  A    between atoms: C_8  and  N_9
REMARK    5  A    between atoms: C_10  and  C_12
REMARK    6  A    between atoms: C_15  and  C_16
REMARK                            x       y       z     vdW  Elec       q    Type
REMARK                         _______ _______ _______ _____ _____    ______ ____
ROOT
ATOM      1  C   UNL     1       2.879   4.862  17.921  0.00  0.00    +0.000 C 
ENDROOT
BRANCH   1   2
ATOM      2  C   UNL     1       3.841   4.000  18.755  0.00  0.00    +0.000 C 
ATOM      3  N   UNL     1       3.525   4.185  20.166  0.00  0.00    +0.000 N 
ATOM      4  C   UNL     1       2.840   3.131  20.702  0.00  0.00    +0.000 C 
ATOM      5  O   UNL     1       2.371   3.084  21.823  0.00  0.00    +0.000 OA
ATOM      6  N   UNL     1       2.801   2.145  19.777  0.00  0.00    +0.000 N 
ATOM      7  C   UNL     1       3.468   2.520  18.646  0.00  0.00    +0.000 C 
ATOM      8  O   UNL     1       3.633   1.779  17.685  0.00  0.00    +0.000 OA
ATOM      9  H   UNL     1       3.722   5.040  20.672  0.00  0.00    +0.000 HD
ATOM     10  H   UNL     1       2.399   1.239  19.948  0.00  0.00    +0.000 HD
BRANCH   2  16
ATOM     11  C   UNL     1       5.730   3.958  16.096  0.00  0.00    +0.000 C 
ATOM     12  N   UNL     1       6.028   4.472  17.411  0.00  0.00    +0.000 N 
ATOM     13  C   UNL     1       7.192   5.139  17.703  0.00  0.00    +0.000 A 
ATOM     14  C   UNL     1       7.127   5.434  19.038  0.00  0.00    +0.000 A 
ATOM     15  N   UNL     1       5.952   4.984  19.560  0.00  0.00    +0.000 NA
ATOM     16  C   UNL     1       5.268   4.428  18.564  0.00  0.00    +0.000 A 
ENDBRANCH   2  16
ENDBRANCH   1   2
BRANCH   1  17
ATOM     17  N   UNL     1       2.194   5.949  18.596  0.00  0.00    +0.000 N 
ATOM     18  C   UNL     1       2.664   7.223  18.335  0.00  0.00    +0.000 C 
ATOM     19  O   UNL     1       3.646   7.444  17.638  0.00  0.00    +0.000 OA
ATOM     20  H   UNL     1       1.212   5.850  18.837  0.00  0.00    +0.000 HD
BRANCH  18  21
ATOM     21  C   UNL     1       1.901   8.350  18.883  0.00  0.00    +0.000 A 
ATOM     22  C   UNL     1       1.556   9.407  18.046  0.00  0.00    +0.000 A 
ATOM     23  C   UNL     1       0.872  10.494  18.575  0.00  0.00    +0.000 A 
ATOM     24  C   UNL     1       0.542  10.503  19.933  0.00  0.00    +0.000 A 
ATOM     25  N   UNL     1       0.890   9.474  20.761  0.00  0.00    +0.000 NA
ATOM     26  C   UNL     1       1.567   8.432  20.223  0.00  0.00    +0.000 A 
BRANCH  24  27
ATOM     27  C   UNL     1      -0.226  11.615  20.536  0.00  0.00    +0.000 A 
ATOM     28  C   UNL     1      -1.108  12.398  19.788  0.00  0.00    +0.000 A 
ATOM     29  C   UNL     1      -1.763  13.462  20.401  0.00  0.00    +0.000 A 
ATOM     30  C   UNL     1      -1.532  13.719  21.744  0.00  0.00    +0.000 A 
ATOM     31  C   UNL     1      -0.659  12.894  22.427  0.00  0.00    +0.000 A 
ATOM     32  N   UNL     1      -0.007  11.857  21.858  0.00  0.00    +0.000 NA
ENDBRANCH  24  27
ENDBRANCH  18  21
ENDBRANCH   1  17
TORSDOF 5
ENDMDL
MODEL 2
REMARK VINA RESULT:      -8.3      0.772      1.341
REMARK  Name = 
REMARK  6 active torsions:
REMARK  status: ('A' for Active; 'I' for Inactive)
REMARK    1  A    between atoms: C_1  and  N_2
REMARK    2  A    between atoms: C_6  and  C_7
REMARK    3  A    between atoms: C_7  and  C_8
REMARK    4  A    between atoms: C_8  and  N_9
REMARK    5  A    between atoms: C_10  and  C_12
REMARK    6  A    between atoms: C_15  and  C_16
REMARK                            x       y       z     vdW  Elec       q    Type
REMARK                         _______ _______ _______ _____ _____    ______ ____
ROOT
ATOM      1  C   UNL     1       2.963   4.869  17.907  0.00  0.00    +0.000 C 
ENDROOT
BRANCH   1   2
ATOM      2  C   UNL     1       3.943   3.943  18.647  0.00  0.00    +0.000 C 
ATOM      3  N   UNL     1       3.713   4.077  20.080  0.00  0.00    +0.000 N 
ATOM      4  C   UNL     1       3.026   3.022  20.611  0.00  0.00    +0.000 C 
ATOM      5  O   UNL     1       2.620   2.940  21.755  0.00  0.00    +0.000 OA
ATOM      6  N   UNL     1       2.903   2.078  19.650  0.00  0.00    +0.000 N 
ATOM      7  C   UNL     1       3.516   2.482  18.499  0.00  0.00    +0.000 C 
ATOM      8  O   UNL     1       3.602   1.778  17.500  0.00  0.00    +0.000 OA
ATOM      9  H   UNL     1       3.967   4.903  20.609  0.00  0.00    +0.000 HD
ATOM     10  H   UNL     1       2.482   1.178  19.806  0.00  0.00    +0.000 HD
BRANCH   2  16
ATOM     11  C   UNL     1       5.689   3.914  15.892  0.00  0.00    +0.000 C 
ATOM     12  N   UNL     1       6.070   4.387  17.202  0.00  0.00    +0.000 N 
ATOM     13  C   UNL     1       7.267   5.014  17.447  0.00  0.00    +0.000 A 
ATOM     14  C   UNL     1       7.280   5.278  18.790  0.00  0.00    +0.000 A 
ATOM     15  N   UNL     1       6.121   4.848  19.363  0.00  0.00    +0.000 NA
ATOM     16  C   UNL     1       5.370   4.336  18.391  0.00  0.00    +0.000 A 
ENDBRANCH   2  16
ENDBRANCH   1   2
BRANCH   1  17
ATOM     17  N   UNL     1       2.246   5.856  18.694  0.00  0.00    +0.000 N 
ATOM     18  C   UNL     1       2.638   7.172  18.527  0.00  0.00    +0.000 C 
ATOM     19  O   UNL     1       3.582   7.505  17.821  0.00  0.00    +0.000 OA
ATOM     20  H   UNL     1       1.281   5.682  18.957  0.00  0.00    +0.000 HD
BRANCH  18  21
ATOM     21  C   UNL     1       1.838   8.205  19.194  0.00  0.00    +0.000 A 
ATOM     22  C   UNL     1       1.524   8.056  20.541  0.00  0.00    +0.000 A 
ATOM     23  C   UNL     1       0.729   9.012  21.161  0.00  0.00    +0.000 A 
ATOM     24  C   UNL     1       0.264  10.103  20.422  0.00  0.00    +0.000 A 
ATOM     25  N   UNL     1       0.559  10.246  19.095  0.00  0.00    +0.000 NA
ATOM     26  C   UNL     1       1.325   9.295  18.512  0.00  0.00    +0.000 A 
BRANCH  24  27
ATOM     27  C   UNL     1      -0.547  11.172  21.045  0.00  0.00    +0.000 A 
ATOM     28  C   UNL     1      -0.689  11.282  22.430  0.00  0.00    +0.000 A 
ATOM     29  C   UNL     1      -1.506  12.279  22.954  0.00  0.00    +0.000 A 
ATOM     30  C   UNL     1      -2.158  13.148  22.091  0.00  0.00    +0.000 A 
ATOM     31  C   UNL     1      -1.959  12.990  20.732  0.00  0.00    +0.000 A 
ATOM     32  N   UNL     1      -1.175  12.031  20.195  0.00  0.00    +0.000 NA
ENDBRANCH  24  27
ENDBRANCH  18  21
ENDBRANCH   1  17
TORSDOF 5
ENDMDL
MODEL 3
REMARK VINA RESULT:      -8.1      2.260      3.750
REMARK  Name = 
REMARK  6 active torsions:
REMARK  status: ('A' for Active; 'I' for Inactive)
REMARK    1  A    between atoms: C_1  and  N_2
REMARK    2  A    between atoms: C_6  and  C_7
REMARK    3  A    between atoms: C_7  and  C_8
REMARK    4  A    between atoms: C_8  and  N_9
REMARK    5  A    between atoms: C_10  and  C_12
REMARK    6  A    between atoms: C_15  and  C_16
REMARK                            x       y       z     vdW  Elec       q    Type
REMARK                         _______ _______ _______ _____ _____    ______ ____
ROOT
ATOM      1  C   UNL     1       5.259   5.718  18.078  0.00  0.00    +0.000 C 
ENDROOT
BRANCH   1   2
ATOM      2  C   UNL     1       6.602   5.895  17.351  0.00  0.00    +0.000 C 
ATOM      3  N   UNL     1       6.769   7.306  17.026  0.00  0.00    +0.000 N 
ATOM      4  C   UNL     1       7.651   7.944  17.853  0.00  0.00    +0.000 C 
ATOM      5  O   UNL     1       7.886   9.137  17.857  0.00  0.00    +0.000 OA
ATOM      6  N   UNL     1       8.232   7.011  18.641  0.00  0.00    +0.000 N 
ATOM      7  C   UNL     1       7.766   5.765  18.335  0.00  0.00    +0.000 C 
ATOM      8  O   UNL     1       8.185   4.742  18.863  0.00  0.00    +0.000 OA
ATOM      9  H   UNL     1       6.228   7.780  16.313  0.00  0.00    +0.000 HD
ATOM     10  H   UNL     1       8.961   7.219  19.302  0.00  0.00    +0.000 HD
BRANCH   2  16
ATOM     11  C   UNL     1       4.740   3.435  16.293  0.00  0.00    +0.000 C 
ATOM     12  N   UNL     1       5.783   4.148  15.595  0.00  0.00    +0.000 N 
ATOM     13  C   UNL     1       6.080   3.925  14.272  0.00  0.00    +0.000 A 
ATOM     14  C   UNL     1       7.132   4.751  13.983  0.00  0.00    +0.000 A 
ATOM     15  N   UNL     1       7.471   5.480  15.083  0.00  0.00    +0.000 NA
ATOM     16  C   UNL     1       6.630   5.138  16.054  0.00  0.00    +0.000 A 
ENDBRANCH   2  16
ENDBRANCH   1   2
BRANCH   1  17
ATOM     17  N   UNL     1       4.391   6.877  18.180  0.00  0.00    +0.000 N 
ATOM     18  C   UNL     1       3.086   6.631  18.567  0.00  0.00    +0.000 C 
ATOM     19  O   UNL     1       2.643   5.504  18.747  0.00  0.00    +0.000 OA
ATOM     20  H   UNL     1       4.789   7.782  18.413  0.00  0.00    +0.000 HD
BRANCH  18  21
ATOM     21  C   UNL     1       2.227   7.793  18.822  0.00  0.00    +0.000 A 
ATOM     22  C   UNL     1       1.964   8.683  17.785  0.00  0.00    +0.000 A 
ATOM     23  C   UNL     1       1.186   9.806  18.038  0.00  0.00    +0.000 A 
ATOM     24  C   UNL     1       0.683  10.018  19.324  0.00  0.00    +0.000 A 
ATOM     25  N   UNL     1       0.949   9.153  20.348  0.00  0.00    +0.000 NA
ATOM     26  C   UNL     1       1.719   8.073  20.078  0.00  0.00    +0.000 A 
BRANCH  24  27
ATOM     27  C   UNL     1      -0.188  11.173  19.634  0.00  0.00    +0.000 A 
ATOM     28  C   UNL     1      -1.534  11.206  19.264  0.00  0.00    +0.000 A 
ATOM     29  C   UNL     1      -2.288  12.343  19.540  0.00  0.00    +0.000 A 
ATOM     30  C   UNL     1      -1.690  13.417  20.182  0.00  0.00    +0.000 A 
ATOM     31  C   UNL     1      -0.358  13.309  20.533  0.00  0.00    +0.000 A 
ATOM     32  N   UNL     1       0.399  12.220  20.276  0.00  0.00    +0.000 NA
ENDBRANCH  24  27
ENDBRANCH  18  21
ENDBRANCH   1  17
TORSDOF 5
ENDMDL
MODEL 4
REMARK VINA RESULT:      -8.1      1.333      1.806
REMARK  Name = 
REMARK  6 active torsions:
REMARK  status: ('A' for Active; 'I' for Inactive)
REMARK    1  A    between atoms: C_1  and  N_2
REMARK    2  A    between atoms: C_6  and  C_7
REMARK    3  A    between atoms: C_7  and  C_8
REMARK    4  A    between atoms: C_8  and  N_9
REMARK    5  A    between atoms: C_10  and  C_12
REMARK    6  A    between atoms: C_15  and  C_16
REMARK                            x       y       z     vdW  Elec       q    Type
REMARK                         _______ _______ _______ _____ _____    ______ ____
ROOT
ATOM      1  C   UNL     1       3.047   6.405  18.137  0.00  0.00    +0.000 C 
ENDROOT
BRANCH   1   2
ATOM      2  C   UNL     1       3.795   5.180  18.688  0.00  0.00    +0.000 C 
ATOM      3  N   UNL     1       3.543   5.091  20.121  0.00  0.00    +0.000 N 
ATOM      4  C   UNL     1       2.641   4.117  20.444  0.00  0.00    +0.000 C 
ATOM      5  O   UNL     1       2.184   3.909  21.552  0.00  0.00    +0.000 OA
ATOM      6  N   UNL     1       2.369   3.411  19.323  0.00  0.00    +0.000 N 
ATOM      7  C   UNL     1       3.092   3.888  18.268  0.00  0.00    +0.000 C 
ATOM      8  O   UNL     1       3.074   3.378  17.154  0.00  0.00    +0.000 OA
ATOM      9  H   UNL     1       3.936   5.736  20.796  0.00  0.00    +0.000 HD
ATOM     10  H   UNL     1       1.772   2.602  19.307  0.00  0.00    +0.000 HD
BRANCH   2  16
ATOM     11  C   UNL     1       5.571   5.678  15.998  0.00  0.00    +0.000 C 
ATOM     12  N   UNL     1       6.008   5.602  17.371  0.00  0.00    +0.000 N 
ATOM     13  C   UNL     1       7.306   5.840  17.753  0.00  0.00    +0.000 A 
ATOM     14  C   UNL     1       7.337   5.641  19.107  0.00  0.00    +0.000 A 
ATOM     15  N   UNL     1       6.097   5.308  19.561  0.00  0.00    +0.000 NA
ATOM     16  C   UNL     1       5.280   5.317  18.510  0.00  0.00    +0.000 A 
ENDBRANCH   2  16
ENDBRANCH   1   2
BRANCH   1  17
ATOM     17  N   UNL     1       2.499   7.346  19.097  0.00  0.00    +0.000 N 
ATOM     18  C   UNL     1       2.000   8.527  18.577  0.00  0.00    +0.000 C 
ATOM     19  O   UNL     1       2.073   8.820  17.391  0.00  0.00    +0.000 OA
ATOM     20  H   UNL     1       2.088   7.001  19.959  0.00  0.00    +0.000 HD
BRANCH  18  21
ATOM     21  C   UNL     1       1.307   9.432  19.501  0.00  0.00    +0.000 A 
ATOM     22  C   UNL     1       0.862   8.941  20.725  0.00  0.00    +0.000 A 
ATOM     23  C   UNL     1       0.168   9.786  21.581  0.00  0.00    +0.000 A 
ATOM     24  C   UNL     1      -0.068  11.110  21.199  0.00  0.00    +0.000 A 
ATOM     25  N   UNL     1       0.356  11.592  19.992  0.00  0.00    +0.000 NA
ATOM     26  C   UNL     1       1.020  10.745  19.172  0.00  0.00    +0.000 A 
BRANCH  24  27
ATOM     27  C   UNL     1      -0.762  12.063  22.093  0.00  0.00    +0.000 A 
ATOM     28  C   UNL     1      -1.973  11.749  22.713  0.00  0.00    +0.000 A 
ATOM     29  C   UNL     1      -2.602  12.707  23.502  0.00  0.00    +0.000 A 
ATOM     30  C   UNL     1      -2.010  13.951  23.663  0.00  0.00    +0.000 A 
ATOM     31  C   UNL     1      -0.803  14.187  23.033  0.00  0.00    +0.000 A 
ATOM     32  N   UNL     1      -0.172  13.278  22.259  0.00  0.00    +0.000 NA
ENDBRANCH  24  27
ENDBRANCH  18  21
ENDBRANCH   1  17
TORSDOF 5
ENDMDL
MODEL 5
REMARK VINA RESULT:      -8.1      1.292      1.738
REMARK  Name = 
REMARK  6 active torsions:
REMARK  status: ('A' for Active; 'I' for Inactive)
REMARK    1  A    between atoms: C_1  and  N_2
REMARK    2  A    between atoms: C_6  and  C_7
REMARK    3  A    between atoms: C_7  and  C_8
REMARK    4  A    between atoms: C_8  and  N_9
REMARK    5  A    between atoms: C_10  and  C_12
REMARK    6  A    between atoms: C_15  and  C_16
REMARK                            x       y       z     vdW  Elec       q    Type
REMARK                         _______ _______ _______ _____ _____    ______ ____
ROOT
ATOM      1  C   UNL     1       3.212   6.175  18.036  0.00  0.00    +0.000 C 
ENDROOT
BRANCH   1   2
ATOM      2  C   UNL     1       3.870   4.957  18.703  0.00  0.00    +0.000 C 
ATOM      3  N   UNL     1       3.604   5.013  20.135  0.00  0.00    +0.000 N 
ATOM      4  C   UNL     1       2.635   4.135  20.532  0.00  0.00    +0.000 C 
ATOM      5  O   UNL     1       2.159   4.059  21.649  0.00  0.00    +0.000 OA
ATOM      6  N   UNL     1       2.322   3.353  19.475  0.00  0.00    +0.000 N 
ATOM      7  C   UNL     1       3.083   3.683  18.391  0.00  0.00    +0.000 C 
ATOM      8  O   UNL     1       3.036   3.078  17.326  0.00  0.00    +0.000 OA
ATOM      9  H   UNL     1       4.036   5.688  20.755  0.00  0.00    +0.000 HD
ATOM     10  H   UNL     1       1.670   2.588  19.524  0.00  0.00    +0.000 HD
BRANCH   2  16
ATOM     11  C   UNL     1       5.703   4.535  16.038  0.00  0.00    +0.000 C 
ATOM     12  N   UNL     1       6.118   4.869  17.380  0.00  0.00    +0.000 N 
ATOM     13  C   UNL     1       7.419   5.163  17.705  0.00  0.00    +0.000 A 
ATOM     14  C   UNL     1       7.423   5.388  19.055  0.00  0.00    +0.000 A 
ATOM     15  N   UNL     1       6.163   5.258  19.555  0.00  0.00    +0.000 NA
ATOM     16  C   UNL     1       5.363   4.975  18.532  0.00  0.00    +0.000 A 
ENDBRANCH   2  16
ENDBRANCH   1   2
BRANCH   1  17
ATOM     17  N   UNL     1       2.438   7.068  18.881  0.00  0.00    +0.000 N 
ATOM     18  C   UNL     1       2.152   8.314  18.352  0.00  0.00    +0.000 C 
ATOM     19  O   UNL     1       2.579   8.695  17.270  0.00  0.00    +0.000 OA
ATOM     20  H   UNL     1       1.782   6.679  19.552  0.00  0.00    +0.000 HD
BRANCH  18  21
ATOM     21  C   UNL     1       1.250   9.180  19.118  0.00  0.00    +0.000 A 
ATOM     22  C   UNL     1       1.091   8.959  20.482  0.00  0.00    +0.000 A 
ATOM     23  C   UNL     1       0.203   9.752  21.198  0.00  0.00    +0.000 A 
ATOM     24  C   UNL     1      -0.509  10.756  20.536  0.00  0.00    +0.000 A 
ATOM     25  N   UNL     1      -0.366  10.968  19.194  0.00  0.00    +0.000 NA
ATOM     26  C   UNL     1       0.496  10.174  18.517  0.00  0.00    +0.000 A 
BRANCH  24  27
ATOM     27  C   UNL     1      -1.432  11.657  21.260  0.00  0.00    +0.000 A 
ATOM     28  C   UNL     1      -1.410  11.779  22.651  0.00  0.00    +0.000 A 
ATOM     29  C   UNL     1      -2.337  12.605  23.278  0.00  0.00    +0.000 A 
ATOM     30  C   UNL     1      -3.261  13.297  22.508  0.00  0.00    +0.000 A 
ATOM     31  C   UNL     1      -3.215  13.142  21.136  0.00  0.00    +0.000 A 
ATOM     32  N   UNL     1      -2.329  12.345  20.501  0.00  0.00    +0.000 NA
ENDBRANCH  24  27
ENDBRANCH  18  21
ENDBRANCH   1  17
TORSDOF 5
ENDMDL
MODEL 6
REMARK VINA RESULT:      -8.1      1.752      3.413
REMARK  Name = 
REMARK  6 active torsions:
REMARK  status: ('A' for Active; 'I' for Inactive)
REMARK    1  A    between atoms: C_1  and  N_2
REMARK    2  A    between atoms: C_6  and  C_7
REMARK    3  A    between atoms: C_7  and  C_8
REMARK    4  A    between atoms: C_8  and  N_9
REMARK    5  A    between atoms: C_10  and  C_12
REMARK    6  A    between atoms: C_15  and  C_16
REMARK                            x       y       z     vdW  Elec       q    Type
REMARK                         _______ _______ _______ _____ _____    ______ ____
ROOT
ATOM      1  C   UNL     1       4.002   5.771  17.323  0.00  0.00    +0.000 C 
ENDROOT
BRANCH   1   2
ATOM      2  C   UNL     1       4.700   4.526  17.894  0.00  0.00    +0.000 C 
ATOM      3  N   UNL     1       5.659   4.041  16.910  0.00  0.00    +0.000 N 
ATOM      4  C   UNL     1       6.952   4.351  17.227  0.00  0.00    +0.000 C 
ATOM      5  O   UNL     1       7.924   4.152  16.524  0.00  0.00    +0.000 OA
ATOM      6  N   UNL     1       6.959   4.890  18.468  0.00  0.00    +0.000 N 
ATOM      7  C   UNL     1       5.696   4.922  18.985  0.00  0.00    +0.000 C 
ATOM      8  O   UNL     1       5.444   5.305  20.121  0.00  0.00    +0.000 OA
ATOM      9  H   UNL     1       5.388   3.591  16.044  0.00  0.00    +0.000 HD
ATOM     10  H   UNL     1       7.800   5.154  18.954  0.00  0.00    +0.000 HD
BRANCH   2  16
ATOM     11  C   UNL     1       4.774   2.079  20.050  0.00  0.00    +0.000 C 
ATOM     12  N   UNL     1       3.736   2.429  19.111  0.00  0.00    +0.000 N 
ATOM     13  C   UNL     1       2.523   1.784  19.070  0.00  0.00    +0.000 A 
ATOM     14  C   UNL     1       1.830   2.364  18.042  0.00  0.00    +0.000 A 
ATOM     15  N   UNL     1       2.575   3.350  17.471  0.00  0.00    +0.000 NA
ATOM     16  C   UNL     1       3.722   3.413  18.142  0.00  0.00    +0.000 A 
ENDBRANCH   2  16
ENDBRANCH   1   2
BRANCH   1  17
ATOM     17  N   UNL     1       3.206   6.574  18.235  0.00  0.00    +0.000 N 
ATOM     18  C   UNL     1       2.881   7.847  17.803  0.00  0.00    +0.000 C 
ATOM     19  O   UNL     1       3.291   8.322  16.752  0.00  0.00    +0.000 OA
ATOM     20  H   UNL     1       2.565   6.116  18.876  0.00  0.00    +0.000 HD
BRANCH  18  21
ATOM     21  C   UNL     1       1.956   8.625  18.634  0.00  0.00    +0.000 A 
ATOM     22  C   UNL     1       1.362   9.765  18.102  0.00  0.00    +0.000 A 
ATOM     23  C   UNL     1       0.520  10.527  18.903  0.00  0.00    +0.000 A 
ATOM     24  C   UNL     1       0.285  10.132  20.222  0.00  0.00    +0.000 A 
ATOM     25  N   UNL     1       0.876   9.020  20.753  0.00  0.00    +0.000 NA
ATOM     26  C   UNL     1       1.701   8.303  19.955  0.00  0.00    +0.000 A 
BRANCH  24  27
ATOM     27  C   UNL     1      -0.639  10.882  21.102  0.00  0.00    +0.000 A 
ATOM     28  C   UNL     1      -0.705  10.649  22.477  0.00  0.00    +0.000 A 
ATOM     29  C   UNL     1      -1.631  11.351  23.243  0.00  0.00    +0.000 A 
ATOM     30  C   UNL     1      -2.464  12.273  22.627  0.00  0.00    +0.000 A 
ATOM     31  C   UNL     1      -2.332  12.465  21.264  0.00  0.00    +0.000 A 
ATOM     32  N   UNL     1      -1.446  11.796  20.496  0.00  0.00    +0.000 NA
ENDBRANCH  24  27
ENDBRANCH  18  21
ENDBRANCH   1  17
TORSDOF 5
ENDMDL
MODEL 7
REMARK VINA RESULT:      -8.1      0.966      1.097
REMARK  Name = 
REMARK  6 active torsions:
REMARK  status: ('A' for Active; 'I' for Inactive)
REMARK    1  A    between atoms: C_1  and  N_2
REMARK    2  A    between atoms: C_6  and  C_7
REMARK    3  A    between atoms: C_7  and  C_8
REMARK    4  A    between atoms: C_8  and  N_9
REMARK    5  A    between atoms: C_10  and  C_12
REMARK    6  A    between atoms: C_15  and  C_16
REMARK                            x       y       z     vdW  Elec       q    Type
REMARK                         _______ _______ _______ _____ _____    ______ ____
ROOT
ATOM      1  C   UNL     1       2.945   5.492  17.929  0.00  0.00    +0.000 C 
ENDROOT
BRANCH   1   2
ATOM      2  C   UNL     1       3.748   4.329  18.535  0.00  0.00    +0.000 C 
ATOM      3  N   UNL     1       3.638   4.398  19.987  0.00  0.00    +0.000 N 
ATOM      4  C   UNL     1       2.774   3.472  20.501  0.00  0.00    +0.000 C 
ATOM      5  O   UNL     1       2.430   3.390  21.665  0.00  0.00    +0.000 OA
ATOM      6  N   UNL     1       2.396   2.651  19.496  0.00  0.00    +0.000 N 
ATOM      7  C   UNL     1       3.011   3.004  18.329  0.00  0.00    +0.000 C 
ATOM      8  O   UNL     1       2.886   2.376  17.285  0.00  0.00    +0.000 OA
ATOM      9  H   UNL     1       4.093   5.110  20.546  0.00  0.00    +0.000 HD
ATOM     10  H   UNL     1       1.803   1.849  19.627  0.00  0.00    +0.000 HD
BRANCH   2  16
ATOM     11  C   UNL     1       5.280   4.146  15.662  0.00  0.00    +0.000 C 
ATOM     12  N   UNL     1       5.830   4.428  16.966  0.00  0.00    +0.000 N 
ATOM     13  C   UNL     1       7.146   4.772  17.159  0.00  0.00    +0.000 A 
ATOM     14  C   UNL     1       7.294   4.924  18.511  0.00  0.00    +0.000 A 
ATOM     15  N   UNL     1       6.107   4.703  19.141  0.00  0.00    +0.000 NA
ATOM     16  C   UNL     1       5.208   4.434  18.199  0.00  0.00    +0.000 A 
ENDBRANCH   2  16
ENDBRANCH   1   2
BRANCH   1  17
ATOM     17  N   UNL     1       2.417   6.491  18.840  0.00  0.00    +0.000 N 
ATOM     18  C   UNL     1       2.346   7.784  18.354  0.00  0.00    +0.000 C 
ATOM     19  O   UNL     1       2.768   8.109  17.252  0.00  0.00    +0.000 OA
ATOM     20  H   UNL     1       1.742   6.217  19.548  0.00  0.00    +0.000 HD
BRANCH  18  21
ATOM     21  C   UNL     1       1.681   8.786  19.195  0.00  0.00    +0.000 A 
ATOM     22  C   UNL     1       1.366  10.026  18.651  0.00  0.00    +0.000 A 
ATOM     23  C   UNL     1       0.775  10.990  19.459  0.00  0.00    +0.000 A 
ATOM     24  C   UNL     1       0.507  10.693  20.798  0.00  0.00    +0.000 A 
ATOM     25  N   UNL     1       0.827   9.481  21.339  0.00  0.00    +0.000 NA
ATOM     26  C   UNL     1       1.412   8.564  20.534  0.00  0.00    +0.000 A 
BRANCH  24  27
ATOM     27  C   UNL     1      -0.162  11.668  21.688  0.00  0.00    +0.000 A 
ATOM     28  C   UNL     1      -1.244  11.312  22.496  0.00  0.00    +0.000 A 
ATOM     29  C   UNL     1      -1.863  12.286  23.273  0.00  0.00    +0.000 A 
ATOM     30  C   UNL     1      -1.389  13.589  23.236  0.00  0.00    +0.000 A 
ATOM     31  C   UNL     1      -0.304  13.867  22.426  0.00  0.00    +0.000 A 
ATOM     32  N   UNL     1       0.314  12.943  21.658  0.00  0.00    +0.000 NA
ENDBRANCH  24  27
ENDBRANCH  18  21
ENDBRANCH   1  17
TORSDOF 5
ENDMDL
MODEL 8
REMARK VINA RESULT:      -8.1      1.640      3.346
REMARK  Name = 
REMARK  6 active torsions:
REMARK  status: ('A' for Active; 'I' for Inactive)
REMARK    1  A    between atoms: C_1  and  N_2
REMARK    2  A    between atoms: C_6  and  C_7
REMARK    3  A    between atoms: C_7  and  C_8
REMARK    4  A    between atoms: C_8  and  N_9
REMARK    5  A    between atoms: C_10  and  C_12
REMARK    6  A    between atoms: C_15  and  C_16
REMARK                            x       y       z     vdW  Elec       q    Type
REMARK                         _______ _______ _______ _____ _____    ______ ____
ROOT
ATOM      1  C   UNL     1       3.135   5.959  17.662  0.00  0.00    +0.000 C 
ENDROOT
BRANCH   1   2
ATOM      2  C   UNL     1       3.785   4.672  18.195  0.00  0.00    +0.000 C 
ATOM      3  N   UNL     1       4.124   3.821  17.061  0.00  0.00    +0.000 N 
ATOM      4  C   UNL     1       5.458   3.831  16.766  0.00  0.00    +0.000 C 
ATOM      5  O   UNL     1       5.979   3.291  15.809  0.00  0.00    +0.000 OA
ATOM      6  N   UNL     1       6.095   4.523  17.738  0.00  0.00    +0.000 N 
ATOM      7  C   UNL     1       5.208   4.951  18.683  0.00  0.00    +0.000 C 
ATOM      8  O   UNL     1       5.543   5.545  19.701  0.00  0.00    +0.000 OA
ATOM      9  H   UNL     1       3.431   3.337  16.503  0.00  0.00    +0.000 HD
ATOM     10  H   UNL     1       7.094   4.629  17.780  0.00  0.00    +0.000 HD
BRANCH   2  16
ATOM     11  C   UNL     1       4.330   2.190  20.239  0.00  0.00    +0.000 C 
ATOM     12  N   UNL     1       3.098   2.895  19.977  0.00  0.00    +0.000 N 
ATOM     13  C   UNL     1       1.940   2.652  20.675  0.00  0.00    +0.000 A 
ATOM     14  C   UNL     1       0.996   3.477  20.125  0.00  0.00    +0.000 A 
ATOM     15  N   UNL     1       1.549   4.224  19.130  0.00  0.00    +0.000 NA
ATOM     16  C   UNL     1       2.836   3.895  19.061  0.00  0.00    +0.000 A 
ENDBRANCH   2  16
ENDBRANCH   1   2
BRANCH   1  17
ATOM     17  N   UNL     1       2.584   6.887  18.634  0.00  0.00    +0.000 N 
ATOM     18  C   UNL     1       2.314   8.163  18.175  0.00  0.00    +0.000 C 
ATOM     19  O   UNL     1       2.585   8.538  17.041  0.00  0.00    +0.000 OA
ATOM     20  H   UNL     1       2.019   6.532  19.400  0.00  0.00    +0.000 HD
BRANCH  18  21
ATOM     21  C   UNL     1       1.621   9.077  19.090  0.00  0.00    +0.000 A 
ATOM     22  C   UNL     1       1.330  10.369  18.666  0.00  0.00    +0.000 A 
ATOM     23  C   UNL     1       0.712  11.248  19.548  0.00  0.00    +0.000 A 
ATOM     24  C   UNL     1       0.394  10.816  20.838  0.00  0.00    +0.000 A 
ATOM     25  N   UNL     1       0.689   9.551  21.262  0.00  0.00    +0.000 NA
ATOM     26  C   UNL     1       1.302   8.719  20.388  0.00  0.00    +0.000 A 
BRANCH  24  27
ATOM     27  C   UNL     1      -0.306  11.697  21.799  0.00  0.00    +0.000 A 
ATOM     28  C   UNL     1      -1.356  11.238  22.596  0.00  0.00    +0.000 A 
ATOM     29  C   UNL     1      -2.008  12.129  23.444  0.00  0.00    +0.000 A 
ATOM     30  C   UNL     1      -1.595  13.452  23.487  0.00  0.00    +0.000 A 
ATOM     31  C   UNL     1      -0.537  13.834  22.683  0.00  0.00    +0.000 A 
ATOM     32  N   UNL     1       0.111  12.993  21.848  0.00  0.00    +0.000 NA
ENDBRANCH  24  27
ENDBRANCH  18  21
ENDBRANCH   1  17
TORSDOF 5
ENDMDL
MODEL 9
REMARK VINA RESULT:      -8.0      1.915      3.488
REMARK  Name = 
REMARK  6 active torsions:
REMARK  status: ('A' for Active; 'I' for Inactive)
REMARK    1  A    between atoms: C_1  and  N_2
REMARK    2  A    between atoms: C_6  and  C_7
REMARK    3  A    between atoms: C_7  and  C_8
REMARK    4  A    between atoms: C_8  and  N_9
REMARK    5  A    between atoms: C_10  and  C_12
REMARK    6  A    between atoms: C_15  and  C_16
REMARK                            x       y       z     vdW  Elec       q    Type
REMARK                         _______ _______ _______ _____ _____    ______ ____
ROOT
ATOM      1  C   UNL     1       4.095   5.621  17.390  0.00  0.00    +0.000 C 
ENDROOT
BRANCH   1   2
ATOM      2  C   UNL     1       5.111   4.617  17.958  0.00  0.00    +0.000 C 
ATOM      3  N   UNL     1       5.875   4.056  16.850  0.00  0.00    +0.000 N 
ATOM      4  C   UNL     1       7.133   4.580  16.750  0.00  0.00    +0.000 C 
ATOM      5  O   UNL     1       7.927   4.357  15.856  0.00  0.00    +0.000 OA
ATOM      6  N   UNL     1       7.346   5.365  17.831  0.00  0.00    +0.000 N 
ATOM      7  C   UNL     1       6.258   5.351  18.656  0.00  0.00    +0.000 C 
ATOM      8  O   UNL     1       6.225   5.931  19.734  0.00  0.00    +0.000 OA
ATOM      9  H   UNL     1       5.484   3.405  16.179  0.00  0.00    +0.000 HD
ATOM     10  H   UNL     1       8.220   5.824  18.020  0.00  0.00    +0.000 HD
BRANCH   2  16
ATOM     11  C   UNL     1       2.371   3.020  17.200  0.00  0.00    +0.000 C 
ATOM     12  N   UNL     1       3.306   2.759  18.268  0.00  0.00    +0.000 N 
ATOM     13  C   UNL     1       3.200   1.672  19.100  0.00  0.00    +0.000 A 
ATOM     14  C   UNL     1       4.232   1.785  19.992  0.00  0.00    +0.000 A 
ATOM     15  N   UNL     1       4.970   2.896  19.716  0.00  0.00    +0.000 NA
ATOM     16  C   UNL     1       4.427   3.471  18.647  0.00  0.00    +0.000 A 
ENDBRANCH   2  16
ENDBRANCH   1   2
BRANCH   1  17
ATOM     17  N   UNL     1       3.354   6.436  18.337  0.00  0.00    +0.000 N 
ATOM     18  C   UNL     1       2.924   7.667  17.877  0.00  0.00    +0.000 C 
ATOM     19  O   UNL     1       3.202   8.101  16.766  0.00  0.00    +0.000 OA
ATOM     20  H   UNL     1       2.805   5.986  19.063  0.00  0.00    +0.000 HD
BRANCH  18  21
ATOM     21  C   UNL     1       2.049   8.449  18.758  0.00  0.00    +0.000 A 
ATOM     22  C   UNL     1       1.823   8.005  20.056  0.00  0.00    +0.000 A 
ATOM     23  C   UNL     1       0.960   8.722  20.876  0.00  0.00    +0.000 A 
ATOM     24  C   UNL     1       0.340   9.872  20.382  0.00  0.00    +0.000 A 
ATOM     25  N   UNL     1       0.549  10.304  19.103  0.00  0.00    +0.000 NA
ATOM     26  C   UNL     1       1.385   9.582  18.321  0.00  0.00    +0.000 A 
BRANCH  24  27
ATOM     27  C   UNL     1      -0.551  10.696  21.229  0.00  0.00    +0.000 A 
ATOM     28  C   UNL     1      -0.693  10.467  22.598  0.00  0.00    +0.000 A 
ATOM     29  C   UNL     1      -1.585  11.243  23.331  0.00  0.00    +0.000 A 
ATOM     30  C   UNL     1      -2.311  12.235  22.687  0.00  0.00    +0.000 A 
ATOM     31  C   UNL     1      -2.109  12.418  21.332  0.00  0.00    +0.000 A 
ATOM     32  N   UNL     1      -1.253  11.677  20.595  0.00  0.00    +0.000 NA
ENDBRANCH  24  27
ENDBRANCH  18  21
ENDBRANCH   1  17
TORSDOF 5
ENDMDL
