MODEL 1
REMARK VINA RESULT:      -7.4      0.000      0.000
REMARK  Name = 
REMARK  7 active torsions:
REMARK  status: ('A' for Active; 'I' for Inactive)
REMARK    1  A    between atoms: C_1  and  O_2
REMARK    2  A    between atoms: O_2  and  C_3
REMARK    3  A    between atoms: C_7  and  C_8
REMARK    4  A    between atoms: C_10  and  C_11
REMARK    5  A    between atoms: C_20  and  C_21
REMARK    6  A    between atoms: C_27  and  O_28
REMARK    7  A    between atoms: O_28  and  C_29
REMARK                            x       y       z     vdW  Elec       q    Type
REMARK                         _______ _______ _______ _____ _____    ______ ____
ROOT
ATOM      1  C   UNL     1       2.961   6.333  17.752  0.00  0.00    +0.000 C 
ATOM      2  C   UNL     1       2.630   7.828  17.772  0.00  0.00    +0.000 C 
ATOM      3  C   UNL     1       2.013   8.387  18.830  0.00  0.00    +0.000 C 
ATOM      4  N   UNL     1       1.639   7.635  19.923  0.00  0.00    +0.000 N 
ATOM      5  C   UNL     1       1.945   6.331  20.045  0.00  0.00    +0.000 A 
ATOM      6  N   UNL     1       1.741   5.495  21.029  0.00  0.00    +0.000 NA
ATOM      7  C   UNL     1       2.309   4.305  20.574  0.00  0.00    +0.000 A 
ATOM      8  N   UNL     1       2.819   4.390  19.322  0.00  0.00    +0.000 NA
ATOM      9  N   UNL     1       2.604   5.690  19.028  0.00  0.00    +0.000 N 
ATOM     10  H   UNL     1       1.148   8.110  20.676  0.00  0.00    +0.000 HD
ENDROOT
BRANCH   1  15
ATOM     11  C   UNL     1       6.189   4.877  16.233  0.00  0.00    +0.000 A 
ATOM     12  C   UNL     1       7.101   5.885  16.574  0.00  0.00    +0.000 A 
ATOM     13  C   UNL     1       6.704   6.978  17.339  0.00  0.00    +0.000 A 
ATOM     14  C   UNL     1       5.380   7.097  17.746  0.00  0.00    +0.000 A 
ATOM     15  C   UNL     1       4.430   6.117  17.401  0.00  0.00    +0.000 A 
ATOM     16  C   UNL     1       4.850   4.980  16.670  0.00  0.00    +0.000 A 
BRANCH  11  18
ATOM     17  C   UNL     1       6.377   4.048  14.005  0.00  0.00    +0.000 C 
ATOM     18  O   UNL     1       6.520   3.835  15.405  0.00  0.00    +0.000 OA
ENDBRANCH  11  18
BRANCH  16  19
ATOM     19  O   UNL     1       3.858   4.071  16.383  0.00  0.00    +0.000 OA
ATOM     20  C   UNL     1       3.914   2.821  17.067  0.00  0.00    +0.000 C 
ENDBRANCH  16  19
ENDBRANCH   1  15
BRANCH   3  21
ATOM     21  C   UNL     1       1.758   9.829  18.869  0.00  0.00    +0.000 A 
ATOM     22  C   UNL     1       2.407  10.709  18.007  0.00  0.00    +0.000 A 
ATOM     23  C   UNL     1       2.132  12.077  18.078  0.00  0.00    +0.000 A 
ATOM     24  C   UNL     1       1.210  12.515  19.018  0.00  0.00    +0.000 A 
ATOM     25  N   UNL     1       0.565  11.695  19.871  0.00  0.00    +0.000 NA
ATOM     26  C   UNL     1       0.852  10.374  19.778  0.00  0.00    +0.000 A 
ENDBRANCH   3  21
BRANCH   7  27
ATOM     27  C   UNL     1       2.358   3.052  21.418  0.00  0.00    +0.000 C 
ATOM     28  F   UNL     1       1.365   2.170  21.112  0.00  0.00    +0.000 F 
ATOM     29  F   UNL     1       3.529   2.371  21.272  0.00  0.00    +0.000 F 
ATOM     30  F   UNL     1       2.228   3.321  22.747  0.00  0.00    +0.000 F 
ENDBRANCH   7  27
TORSDOF 5
ENDMDL
MODEL 2
REMARK VINA RESULT:      -7.3      7.231      8.921
REMARK  Name = 
REMARK  7 active torsions:
REMARK  status: ('A' for Active; 'I' for Inactive)
REMARK    1  A    between atoms: C_1  and  O_2
REMARK    2  A    between atoms: O_2  and  C_3
REMARK    3  A    between atoms: C_7  and  C_8
REMARK    4  A    between atoms: C_10  and  C_11
REMARK    5  A    between atoms: C_20  and  C_21
REMARK    6  A    between atoms: C_27  and  O_28
REMARK    7  A    between atoms: O_28  and  C_29
REMARK                            x       y       z     vdW  Elec       q    Type
REMARK                         _______ _______ _______ _____ _____    ______ ____
ROOT
ATOM      1  C   UNL     1      -1.439  12.991  19.972  0.00  0.00    +0.000 C 
ATOM      2  C   UNL     1      -0.603  14.058  19.260  0.00  0.00    +0.000 C 
ATOM      3  C   UNL     1       0.735  14.094  19.395  0.00  0.00    +0.000 C 
ATOM      4  N   UNL     1       1.401  13.189  20.192  0.00  0.00    +0.000 N 
ATOM      5  C   UNL     1       0.778  12.165  20.805  0.00  0.00    +0.000 A 
ATOM      6  N   UNL     1       1.254  11.183  21.525  0.00  0.00    +0.000 NA
ATOM      7  C   UNL     1       0.123  10.435  21.849  0.00  0.00    +0.000 A 
ATOM      8  N   UNL     1      -1.031  10.959  21.375  0.00  0.00    +0.000 NA
ATOM      9  N   UNL     1      -0.581  12.034  20.691  0.00  0.00    +0.000 N 
ATOM     10  H   UNL     1       2.409  13.288  20.279  0.00  0.00    +0.000 HD
ENDROOT
BRANCH   1  15
ATOM     11  C   UNL     1      -4.608  11.656  18.234  0.00  0.00    +0.000 A 
ATOM     12  C   UNL     1      -4.058  11.206  17.026  0.00  0.00    +0.000 A 
ATOM     13  C   UNL     1      -2.685  11.264  16.800  0.00  0.00    +0.000 A 
ATOM     14  C   UNL     1      -1.845  11.805  17.766  0.00  0.00    +0.000 A 
ATOM     15  C   UNL     1      -2.365  12.290  18.982  0.00  0.00    +0.000 A 
ATOM     16  C   UNL     1      -3.754  12.178  19.230  0.00  0.00    +0.000 A 
BRANCH  11  18
ATOM     17  C   UNL     1      -6.601  10.479  18.809  0.00  0.00    +0.000 C 
ATOM     18  O   UNL     1      -5.961  11.700  18.454  0.00  0.00    +0.000 OA
ENDBRANCH  11  18
BRANCH  16  19
ATOM     19  O   UNL     1      -4.172  12.671  20.444  0.00  0.00    +0.000 OA
ATOM     20  C   UNL     1      -4.825  13.938  20.433  0.00  0.00    +0.000 C 
ENDBRANCH  16  19
ENDBRANCH   1  15
BRANCH   3  21
ATOM     21  C   UNL     1       1.534  15.077  18.659  0.00  0.00    +0.000 A 
ATOM     22  C   UNL     1       2.758  14.742  18.085  0.00  0.00    +0.000 A 
ATOM     23  C   UNL     1       3.485  15.711  17.390  0.00  0.00    +0.000 A 
ATOM     24  C   UNL     1       2.955  16.990  17.295  0.00  0.00    +0.000 A 
ATOM     25  N   UNL     1       1.777  17.354  17.840  0.00  0.00    +0.000 NA
ATOM     26  C   UNL     1       1.094  16.392  18.507  0.00  0.00    +0.000 A 
ENDBRANCH   3  21
BRANCH   7  27
ATOM     27  C   UNL     1       0.198   9.149  22.642  0.00  0.00    +0.000 C 
ATOM     28  F   UNL     1       0.117   9.353  23.986  0.00  0.00    +0.000 F 
ATOM     29  F   UNL     1      -0.805   8.284  22.327  0.00  0.00    +0.000 F 
ATOM     30  F   UNL     1       1.368   8.482  22.431  0.00  0.00    +0.000 F 
ENDBRANCH   7  27
TORSDOF 5
ENDMDL
MODEL 3
REMARK VINA RESULT:      -7.3      4.708      6.613
REMARK  Name = 
REMARK  7 active torsions:
REMARK  status: ('A' for Active; 'I' for Inactive)
REMARK    1  A    between atoms: C_1  and  O_2
REMARK    2  A    between atoms: O_2  and  C_3
REMARK    3  A    between atoms: C_7  and  C_8
REMARK    4  A    between atoms: C_10  and  C_11
REMARK    5  A    between atoms: C_20  and  C_21
REMARK    6  A    between atoms: C_27  and  O_28
REMARK    7  A    between atoms: O_28  and  C_29
REMARK                            x       y       z     vdW  Elec       q    Type
REMARK                         _______ _______ _______ _____ _____    ______ ____
ROOT
ATOM      1  C   UNL     1       6.168   5.262  17.870  0.00  0.00    +0.000 C 
ATOM      2  C   UNL     1       6.830   6.543  18.383  0.00  0.00    +0.000 C 
ATOM      3  C   UNL     1       7.549   7.329  17.562  0.00  0.00    +0.000 C 
ATOM      4  N   UNL     1       7.734   7.003  16.236  0.00  0.00    +0.000 N 
ATOM      5  C   UNL     1       7.138   5.943  15.659  0.00  0.00    +0.000 A 
ATOM      6  N   UNL     1       7.140   5.533  14.418  0.00  0.00    +0.000 NA
ATOM      7  C   UNL     1       6.320   4.406  14.443  0.00  0.00    +0.000 A 
ATOM      8  N   UNL     1       5.852   4.099  15.676  0.00  0.00    +0.000 NA
ATOM      9  N   UNL     1       6.360   5.108  16.417  0.00  0.00    +0.000 N 
ATOM     10  H   UNL     1       8.315   7.621  15.674  0.00  0.00    +0.000 HD
ENDROOT
BRANCH   1  15
ATOM     11  C   UNL     1       2.851   4.371  19.618  0.00  0.00    +0.000 A 
ATOM     12  C   UNL     1       2.022   5.376  19.103  0.00  0.00    +0.000 A 
ATOM     13  C   UNL     1       2.497   6.280  18.157  0.00  0.00    +0.000 A 
ATOM     14  C   UNL     1       3.820   6.215  17.738  0.00  0.00    +0.000 A 
ATOM     15  C   UNL     1       4.691   5.234  18.252  0.00  0.00    +0.000 A 
ATOM     16  C   UNL     1       4.188   4.283  19.171  0.00  0.00    +0.000 A 
BRANCH  11  18
ATOM     17  C   UNL     1       1.059   3.209  20.679  0.00  0.00    +0.000 C 
ATOM     18  O   UNL     1       2.447   3.522  20.616  0.00  0.00    +0.000 OA
ENDBRANCH  11  18
BRANCH  16  19
ATOM     19  O   UNL     1       5.106   3.358  19.615  0.00  0.00    +0.000 OA
ATOM     20  C   UNL     1       4.691   1.994  19.623  0.00  0.00    +0.000 C 
ENDBRANCH  16  19
ENDBRANCH   1  15
BRANCH   3  21
ATOM     21  C   UNL     1       8.125   8.586  18.046  0.00  0.00    +0.000 A 
ATOM     22  C   UNL     1       8.911   8.636  19.194  0.00  0.00    +0.000 A 
ATOM     23  C   UNL     1       9.441   9.856  19.618  0.00  0.00    +0.000 A 
ATOM     24  C   UNL     1       9.162  10.991  18.870  0.00  0.00    +0.000 A 
ATOM     25  N   UNL     1       8.404  10.985  17.757  0.00  0.00    +0.000 NA
ATOM     26  C   UNL     1       7.904   9.786  17.370  0.00  0.00    +0.000 A 
ENDBRANCH   3  21
BRANCH   7  27
ATOM     27  C   UNL     1       5.980   3.619  13.196  0.00  0.00    +0.000 C 
ATOM     28  F   UNL     1       6.156   2.278  13.355  0.00  0.00    +0.000 F 
ATOM     29  F   UNL     1       4.685   3.790  12.810  0.00  0.00    +0.000 F 
ATOM     30  F   UNL     1       6.754   3.979  12.134  0.00  0.00    +0.000 F 
ENDBRANCH   7  27
TORSDOF 5
ENDMDL
MODEL 4
REMARK VINA RESULT:      -7.3      4.760      6.571
REMARK  Name = 
REMARK  7 active torsions:
REMARK  status: ('A' for Active; 'I' for Inactive)
REMARK    1  A    between atoms: C_1  and  O_2
REMARK    2  A    between atoms: O_2  and  C_3
REMARK    3  A    between atoms: C_7  and  C_8
REMARK    4  A    between atoms: C_10  and  C_11
REMARK    5  A    between atoms: C_20  and  C_21
REMARK    6  A    between atoms: C_27  and  O_28
REMARK    7  A    between atoms: O_28  and  C_29
REMARK                            x       y       z     vdW  Elec       q    Type
REMARK                         _______ _______ _______ _____ _____    ______ ____
ROOT
ATOM      1  C   UNL     1       6.122   5.230  17.849  0.00  0.00    +0.000 C 
ATOM      2  C   UNL     1       6.797   6.504  18.365  0.00  0.00    +0.000 C 
ATOM      3  C   UNL     1       7.516   7.289  17.543  0.00  0.00    +0.000 C 
ATOM      4  N   UNL     1       7.690   6.969  16.214  0.00  0.00    +0.000 N 
ATOM      5  C   UNL     1       7.082   5.917  15.636  0.00  0.00    +0.000 A 
ATOM      6  N   UNL     1       7.073   5.514  14.392  0.00  0.00    +0.000 NA
ATOM      7  C   UNL     1       6.244   4.392  14.416  0.00  0.00    +0.000 A 
ATOM      8  N   UNL     1       5.783   4.082  15.651  0.00  0.00    +0.000 NA
ATOM      9  N   UNL     1       6.303   5.083  16.395  0.00  0.00    +0.000 N 
ATOM     10  H   UNL     1       8.271   7.586  15.652  0.00  0.00    +0.000 HD
ENDROOT
BRANCH   1  15
ATOM     11  C   UNL     1       2.814   4.369  19.629  0.00  0.00    +0.000 A 
ATOM     12  C   UNL     1       1.984   5.371  19.108  0.00  0.00    +0.000 A 
ATOM     13  C   UNL     1       2.456   6.262  18.148  0.00  0.00    +0.000 A 
ATOM     14  C   UNL     1       3.776   6.188  17.721  0.00  0.00    +0.000 A 
ATOM     15  C   UNL     1       4.647   5.212  18.241  0.00  0.00    +0.000 A 
ATOM     16  C   UNL     1       4.148   4.272  19.174  0.00  0.00    +0.000 A 
BRANCH  11  18
ATOM     17  C   UNL     1       1.120   2.950  20.525  0.00  0.00    +0.000 C 
ATOM     18  O   UNL     1       2.414   3.534  20.640  0.00  0.00    +0.000 OA
ENDBRANCH  11  18
BRANCH  16  19
ATOM     19  O   UNL     1       5.066   3.350  19.623  0.00  0.00    +0.000 OA
ATOM     20  C   UNL     1       4.658   1.984  19.621  0.00  0.00    +0.000 C 
ENDBRANCH  16  19
ENDBRANCH   1  15
BRANCH   3  21
ATOM     21  C   UNL     1       8.105   8.539  18.031  0.00  0.00    +0.000 A 
ATOM     22  C   UNL     1       7.922   9.744  17.357  0.00  0.00    +0.000 A 
ATOM     23  C   UNL     1       8.500  10.912  17.859  0.00  0.00    +0.000 A 
ATOM     24  C   UNL     1       9.246  10.829  19.026  0.00  0.00    +0.000 A 
ATOM     25  N   UNL     1       9.449   9.682  19.704  0.00  0.00    +0.000 NA
ATOM     26  C   UNL     1       8.875   8.566  19.193  0.00  0.00    +0.000 A 
ENDBRANCH   3  21
BRANCH   7  27
ATOM     27  C   UNL     1       5.890   3.616  13.168  0.00  0.00    +0.000 C 
ATOM     28  F   UNL     1       4.606   3.824  12.764  0.00  0.00    +0.000 F 
ATOM     29  F   UNL     1       6.681   3.944  12.108  0.00  0.00    +0.000 F 
ATOM     30  F   UNL     1       6.017   2.271  13.346  0.00  0.00    +0.000 F 
ENDBRANCH   7  27
TORSDOF 5
ENDMDL
MODEL 5
REMARK VINA RESULT:      -7.2      5.673      7.896
REMARK  Name = 
REMARK  7 active torsions:
REMARK  status: ('A' for Active; 'I' for Inactive)
REMARK    1  A    between atoms: C_1  and  O_2
REMARK    2  A    between atoms: O_2  and  C_3
REMARK    3  A    between atoms: C_7  and  C_8
REMARK    4  A    between atoms: C_10  and  C_11
REMARK    5  A    between atoms: C_20  and  C_21
REMARK    6  A    between atoms: C_27  and  O_28
REMARK    7  A    between atoms: O_28  and  C_29
REMARK                            x       y       z     vdW  Elec       q    Type
REMARK                         _______ _______ _______ _____ _____    ______ ____
ROOT
ATOM      1  C   UNL     1       0.318  11.099  19.961  0.00  0.00    +0.000 C 
ATOM      2  C   UNL     1      -1.152  10.990  19.548  0.00  0.00    +0.000 C 
ATOM      3  C   UNL     1      -1.764  11.991  18.890  0.00  0.00    +0.000 C 
ATOM      4  N   UNL     1      -1.101  13.159  18.581  0.00  0.00    +0.000 N 
ATOM      5  C   UNL     1       0.210  13.335  18.828  0.00  0.00    +0.000 A 
ATOM      6  N   UNL     1       1.007  14.331  18.540  0.00  0.00    +0.000 NA
ATOM      7  C   UNL     1       2.245  13.912  19.025  0.00  0.00    +0.000 A 
ATOM      8  N   UNL     1       2.211  12.704  19.635  0.00  0.00    +0.000 NA
ATOM      9  N   UNL     1       0.919  12.350  19.465  0.00  0.00    +0.000 N 
ATOM     10  H   UNL     1      -1.627  13.891  18.112  0.00  0.00    +0.000 HD
ENDROOT
BRANCH   1  15
ATOM     11  C   UNL     1       1.933   7.603  19.867  0.00  0.00    +0.000 A 
ATOM     12  C   UNL     1       2.322   7.545  18.522  0.00  0.00    +0.000 A 
ATOM     13  C   UNL     1       2.135   8.636  17.676  0.00  0.00    +0.000 A 
ATOM     14  C   UNL     1       1.524   9.788  18.155  0.00  0.00    +0.000 A 
ATOM     15  C   UNL     1       1.097   9.873  19.494  0.00  0.00    +0.000 A 
ATOM     16  C   UNL     1       1.340   8.784  20.364  0.00  0.00    +0.000 A 
BRANCH  11  18
ATOM     17  C   UNL     1       2.037   5.231  20.098  0.00  0.00    +0.000 C 
ATOM     18  O   UNL     1       2.017   6.520  20.703  0.00  0.00    +0.000 OA
ENDBRANCH  11  18
BRANCH  16  19
ATOM     19  O   UNL     1       0.896   8.956  21.655  0.00  0.00    +0.000 OA
ATOM     20  C   UNL     1      -0.390   8.426  21.968  0.00  0.00    +0.000 C 
ENDBRANCH  16  19
ENDBRANCH   1  15
BRANCH   3  21
ATOM     21  C   UNL     1      -3.152  11.851  18.441  0.00  0.00    +0.000 A 
ATOM     22  C   UNL     1      -4.224  12.171  19.270  0.00  0.00    +0.000 A 
ATOM     23  C   UNL     1      -5.531  12.024  18.801  0.00  0.00    +0.000 A 
ATOM     24  C   UNL     1      -5.717  11.558  17.507  0.00  0.00    +0.000 A 
ATOM     25  N   UNL     1      -4.706  11.234  16.676  0.00  0.00    +0.000 NA
ATOM     26  C   UNL     1      -3.450  11.388  17.159  0.00  0.00    +0.000 A 
ENDBRANCH   3  21
BRANCH   7  27
ATOM     27  C   UNL     1       3.504  14.735  18.861  0.00  0.00    +0.000 C 
ATOM     28  F   UNL     1       4.230  14.822  20.011  0.00  0.00    +0.000 F 
ATOM     29  F   UNL     1       4.343  14.221  17.919  0.00  0.00    +0.000 F 
ATOM     30  F   UNL     1       3.235  16.017  18.486  0.00  0.00    +0.000 F 
ENDBRANCH   7  27
TORSDOF 5
ENDMDL
MODEL 6
REMARK VINA RESULT:      -7.2      0.616      1.065
REMARK  Name = 
REMARK  7 active torsions:
REMARK  status: ('A' for Active; 'I' for Inactive)
REMARK    1  A    between atoms: C_1  and  O_2
REMARK    2  A    between atoms: O_2  and  C_3
REMARK    3  A    between atoms: C_7  and  C_8
REMARK    4  A    between atoms: C_10  and  C_11
REMARK    5  A    between atoms: C_20  and  C_21
REMARK    6  A    between atoms: C_27  and  O_28
REMARK    7  A    between atoms: O_28  and  C_29
REMARK                            x       y       z     vdW  Elec       q    Type
REMARK                         _______ _______ _______ _____ _____    ______ ____
ROOT
ATOM      1  C   UNL     1       2.865   6.263  17.807  0.00  0.00    +0.000 C 
ATOM      2  C   UNL     1       2.564   7.761  17.911  0.00  0.00    +0.000 C 
ATOM      3  C   UNL     1       1.936   8.268  18.987  0.00  0.00    +0.000 C 
ATOM      4  N   UNL     1       1.521   7.461  20.024  0.00  0.00    +0.000 N 
ATOM      5  C   UNL     1       1.798   6.145  20.074  0.00  0.00    +0.000 A 
ATOM      6  N   UNL     1       1.553   5.256  21.002  0.00  0.00    +0.000 NA
ATOM      7  C   UNL     1       2.107   4.084  20.487  0.00  0.00    +0.000 A 
ATOM      8  N   UNL     1       2.647   4.232  19.254  0.00  0.00    +0.000 NA
ATOM      9  N   UNL     1       2.465   5.553  19.035  0.00  0.00    +0.000 N 
ATOM     10  H   UNL     1       1.023   7.901  20.794  0.00  0.00    +0.000 HD
ENDROOT
BRANCH   1  15
ATOM     11  C   UNL     1       6.100   4.794  16.315  0.00  0.00    +0.000 A 
ATOM     12  C   UNL     1       7.017   5.786  16.686  0.00  0.00    +0.000 A 
ATOM     13  C   UNL     1       6.621   6.872  17.463  0.00  0.00    +0.000 A 
ATOM     14  C   UNL     1       5.292   6.999  17.851  0.00  0.00    +0.000 A 
ATOM     15  C   UNL     1       4.337   6.035  17.476  0.00  0.00    +0.000 A 
ATOM     16  C   UNL     1       4.755   4.905  16.733  0.00  0.00    +0.000 A 
BRANCH  11  18
ATOM     17  C   UNL     1       6.333   4.006  14.076  0.00  0.00    +0.000 C 
ATOM     18  O   UNL     1       6.432   3.762  15.475  0.00  0.00    +0.000 OA
ENDBRANCH  11  18
BRANCH  16  19
ATOM     19  O   UNL     1       3.758   4.013  16.416  0.00  0.00    +0.000 OA
ATOM     20  C   UNL     1       3.792   2.750  17.077  0.00  0.00    +0.000 C 
ENDBRANCH  16  19
ENDBRANCH   1  15
BRANCH   3  21
ATOM     21  C   UNL     1       1.710   9.711  19.107  0.00  0.00    +0.000 A 
ATOM     22  C   UNL     1       0.991  10.252  20.171  0.00  0.00    +0.000 A 
ATOM     23  C   UNL     1       0.802  11.633  20.246  0.00  0.00    +0.000 A 
ATOM     24  C   UNL     1       1.343  12.429  19.246  0.00  0.00    +0.000 A 
ATOM     25  N   UNL     1       2.041  11.943  18.200  0.00  0.00    +0.000 NA
ATOM     26  C   UNL     1       2.209  10.599  18.154  0.00  0.00    +0.000 A 
ENDBRANCH   3  21
BRANCH   7  27
ATOM     27  C   UNL     1       2.111   2.781  21.255  0.00  0.00    +0.000 C 
ATOM     28  F   UNL     1       1.234   2.781  22.297  0.00  0.00    +0.000 F 
ATOM     29  F   UNL     1       1.776   1.716  20.475  0.00  0.00    +0.000 F 
ATOM     30  F   UNL     1       3.333   2.503  21.789  0.00  0.00    +0.000 F 
ENDBRANCH   7  27
TORSDOF 5
ENDMDL
MODEL 7
REMARK VINA RESULT:      -7.2      5.636      7.891
REMARK  Name = 
REMARK  7 active torsions:
REMARK  status: ('A' for Active; 'I' for Inactive)
REMARK    1  A    between atoms: C_1  and  O_2
REMARK    2  A    between atoms: O_2  and  C_3
REMARK    3  A    between atoms: C_7  and  C_8
REMARK    4  A    between atoms: C_10  and  C_11
REMARK    5  A    between atoms: C_20  and  C_21
REMARK    6  A    between atoms: C_27  and  O_28
REMARK    7  A    between atoms: O_28  and  C_29
REMARK                            x       y       z     vdW  Elec       q    Type
REMARK                         _______ _______ _______ _____ _____    ______ ____
ROOT
ATOM      1  C   UNL     1       0.371  11.160  19.886  0.00  0.00    +0.000 C 
ATOM      2  C   UNL     1      -1.115  11.036  19.541  0.00  0.00    +0.000 C 
ATOM      3  C   UNL     1      -1.753  12.007  18.862  0.00  0.00    +0.000 C 
ATOM      4  N   UNL     1      -1.101  13.156  18.469  0.00  0.00    +0.000 N 
ATOM      5  C   UNL     1       0.220  13.339  18.652  0.00  0.00    +0.000 A 
ATOM      6  N   UNL     1       1.005  14.317  18.282  0.00  0.00    +0.000 NA
ATOM      7  C   UNL     1       2.263  13.917  18.734  0.00  0.00    +0.000 A 
ATOM      8  N   UNL     1       2.252  12.740  19.403  0.00  0.00    +0.000 NA
ATOM      9  N   UNL     1       0.953  12.383  19.306  0.00  0.00    +0.000 N 
ATOM     10  H   UNL     1      -1.646  13.867  17.988  0.00  0.00    +0.000 HD
ENDROOT
BRANCH   1  15
ATOM     11  C   UNL     1       1.905   7.626  19.861  0.00  0.00    +0.000 A 
ATOM     12  C   UNL     1       2.311   7.541  18.523  0.00  0.00    +0.000 A 
ATOM     13  C   UNL     1       2.162   8.624  17.660  0.00  0.00    +0.000 A 
ATOM     14  C   UNL     1       1.572   9.797  18.115  0.00  0.00    +0.000 A 
ATOM     15  C   UNL     1       1.128   9.910  19.446  0.00  0.00    +0.000 A 
ATOM     16  C   UNL     1       1.332   8.827  20.334  0.00  0.00    +0.000 A 
BRANCH  11  18
ATOM     17  C   UNL     1       2.381   5.309  20.168  0.00  0.00    +0.000 C 
ATOM     18  O   UNL     1       1.951   6.552  20.713  0.00  0.00    +0.000 OA
ENDBRANCH  11  18
BRANCH  16  19
ATOM     19  O   UNL     1       0.874   9.027  21.616  0.00  0.00    +0.000 OA
ATOM     20  C   UNL     1      -0.396   8.467  21.939  0.00  0.00    +0.000 C 
ENDBRANCH  16  19
ENDBRANCH   1  15
BRANCH   3  21
ATOM     21  C   UNL     1      -3.158  11.851  18.479  0.00  0.00    +0.000 A 
ATOM     22  C   UNL     1      -3.526  11.389  17.218  0.00  0.00    +0.000 A 
ATOM     23  C   UNL     1      -4.878  11.255  16.897  0.00  0.00    +0.000 A 
ATOM     24  C   UNL     1      -5.820  11.590  17.859  0.00  0.00    +0.000 A 
ATOM     25  N   UNL     1      -5.505  12.044  19.088  0.00  0.00    +0.000 NA
ATOM     26  C   UNL     1      -4.185  12.163  19.371  0.00  0.00    +0.000 A 
ENDBRANCH   3  21
BRANCH   7  27
ATOM     27  C   UNL     1       3.514  14.726  18.478  0.00  0.00    +0.000 C 
ATOM     28  F   UNL     1       3.331  15.697  17.541  0.00  0.00    +0.000 F 
ATOM     29  F   UNL     1       3.964  15.358  19.598  0.00  0.00    +0.000 F 
ATOM     30  F   UNL     1       4.543  13.954  18.027  0.00  0.00    +0.000 F 
ENDBRANCH   7  27
TORSDOF 5
ENDMDL
MODEL 8
REMARK VINA RESULT:      -7.2      4.933      6.713
REMARK  Name = 
REMARK  7 active torsions:
REMARK  status: ('A' for Active; 'I' for Inactive)
REMARK    1  A    between atoms: C_1  and  O_2
REMARK    2  A    between atoms: O_2  and  C_3
REMARK    3  A    between atoms: C_7  and  C_8
REMARK    4  A    between atoms: C_10  and  C_11
REMARK    5  A    between atoms: C_20  and  C_21
REMARK    6  A    between atoms: C_27  and  O_28
REMARK    7  A    between atoms: O_28  and  C_29
REMARK                            x       y       z     vdW  Elec       q    Type
REMARK                         _______ _______ _______ _____ _____    ______ ____
ROOT
ATOM      1  C   UNL     1       5.686   4.687  17.279  0.00  0.00    +0.000 C 
ATOM      2  C   UNL     1       6.378   5.883  17.937  0.00  0.00    +0.000 C 
ATOM      3  C   UNL     1       7.232   6.658  17.244  0.00  0.00    +0.000 C 
ATOM      4  N   UNL     1       7.532   6.395  15.925  0.00  0.00    +0.000 N 
ATOM      5  C   UNL     1       6.928   5.417  15.225  0.00  0.00    +0.000 A 
ATOM      6  N   UNL     1       7.032   5.079  13.966  0.00  0.00    +0.000 NA
ATOM      7  C   UNL     1       6.138   4.017  13.836  0.00  0.00    +0.000 A 
ATOM      8  N   UNL     1       5.523   3.677  14.994  0.00  0.00    +0.000 NA
ATOM      9  N   UNL     1       6.019   4.601  15.846  0.00  0.00    +0.000 N 
ATOM     10  H   UNL     1       8.210   6.998  15.466  0.00  0.00    +0.000 HD
ENDROOT
BRANCH   1  15
ATOM     11  C   UNL     1       2.071   3.690  18.162  0.00  0.00    +0.000 A 
ATOM     12  C   UNL     1       1.457   4.950  18.155  0.00  0.00    +0.000 A 
ATOM     13  C   UNL     1       2.173   6.091  17.803  0.00  0.00    +0.000 A 
ATOM     14  C   UNL     1       3.522   5.994  17.486  0.00  0.00    +0.000 A 
ATOM     15  C   UNL     1       4.179   4.749  17.507  0.00  0.00    +0.000 A 
ATOM     16  C   UNL     1       3.435   3.584  17.811  0.00  0.00    +0.000 A 
BRANCH  11  18
ATOM     17  C   UNL     1       0.943   2.556  19.931  0.00  0.00    +0.000 C 
ATOM     18  O   UNL     1       1.424   2.560  18.591  0.00  0.00    +0.000 OA
ENDBRANCH  11  18
BRANCH  16  19
ATOM     19  O   UNL     1       4.154   2.412  17.802  0.00  0.00    +0.000 OA
ATOM     20  C   UNL     1       4.378   1.786  19.063  0.00  0.00    +0.000 C 
ENDBRANCH  16  19
ENDBRANCH   1  15
BRANCH   3  21
ATOM     21  C   UNL     1       7.839   7.839  17.863  0.00  0.00    +0.000 A 
ATOM     22  C   UNL     1       7.700   9.108  17.309  0.00  0.00    +0.000 A 
ATOM     23  C   UNL     1       8.295  10.206  17.934  0.00  0.00    +0.000 A 
ATOM     24  C   UNL     1       9.013   9.990  19.101  0.00  0.00    +0.000 A 
ATOM     25  N   UNL     1       9.174   8.777  19.666  0.00  0.00    +0.000 NA
ATOM     26  C   UNL     1       8.585   7.732  19.038  0.00  0.00    +0.000 A 
ENDBRANCH   3  21
BRANCH   7  27
ATOM     27  C   UNL     1       5.877   3.330  12.514  0.00  0.00    +0.000 C 
ATOM     28  F   UNL     1       5.983   1.974  12.595  0.00  0.00    +0.000 F 
ATOM     29  F   UNL     1       4.630   3.587  12.031  0.00  0.00    +0.000 F 
ATOM     30  F   UNL     1       6.757   3.721  11.550  0.00  0.00    +0.000 F 
ENDBRANCH   7  27
TORSDOF 5
ENDMDL
MODEL 9
REMARK VINA RESULT:      -7.1      6.504     10.391
REMARK  Name = 
REMARK  7 active torsions:
REMARK  status: ('A' for Active; 'I' for Inactive)
REMARK    1  A    between atoms: C_1  and  O_2
REMARK    2  A    between atoms: O_2  and  C_3
REMARK    3  A    between atoms: C_7  and  C_8
REMARK    4  A    between atoms: C_10  and  C_11
REMARK    5  A    between atoms: C_20  and  C_21
REMARK    6  A    between atoms: C_27  and  O_28
REMARK    7  A    between atoms: O_28  and  C_29
REMARK                            x       y       z     vdW  Elec       q    Type
REMARK                         _______ _______ _______ _____ _____    ______ ____
ROOT
ATOM      1  C   UNL     1      -1.111  11.849  19.477  0.00  0.00    +0.000 C 
ATOM      2  C   UNL     1      -0.402  10.496  19.374  0.00  0.00    +0.000 C 
ATOM      3  C   UNL     1       0.866  10.410  18.933  0.00  0.00    +0.000 C 
ATOM      4  N   UNL     1       1.568  11.528  18.540  0.00  0.00    +0.000 N 
ATOM      5  C   UNL     1       1.072  12.774  18.658  0.00  0.00    +0.000 A 
ATOM      6  N   UNL     1       1.617  13.937  18.411  0.00  0.00    +0.000 NA
ATOM      7  C   UNL     1       0.620  14.848  18.758  0.00  0.00    +0.000 A 
ATOM      8  N   UNL     1      -0.529  14.265  19.173  0.00  0.00    +0.000 NA
ATOM      9  N   UNL     1      -0.201  12.955  19.131  0.00  0.00    +0.000 N 
ATOM     10  H   UNL     1       2.511  11.394  18.186  0.00  0.00    +0.000 HD
ENDROOT
BRANCH   1  15
ATOM     11  C   UNL     1      -3.607  12.603  22.314  0.00  0.00    +0.000 A 
ATOM     12  C   UNL     1      -2.887  12.119  23.414  0.00  0.00    +0.000 A 
ATOM     13  C   UNL     1      -1.594  11.625  23.260  0.00  0.00    +0.000 A 
ATOM     14  C   UNL     1      -1.015  11.576  21.997  0.00  0.00    +0.000 A 
ATOM     15  C   UNL     1      -1.719  12.030  20.865  0.00  0.00    +0.000 A 
ATOM     16  C   UNL     1      -3.010  12.583  21.034  0.00  0.00    +0.000 A 
BRANCH  11  18
ATOM     17  C   UNL     1      -5.450  13.161  23.722  0.00  0.00    +0.000 C 
ATOM     18  O   UNL     1      -4.913  13.010  22.412  0.00  0.00    +0.000 OA
ENDBRANCH  11  18
BRANCH  16  19
ATOM     19  O   UNL     1      -3.621  13.007  19.876  0.00  0.00    +0.000 OA
ATOM     20  C   UNL     1      -4.585  12.130  19.300  0.00  0.00    +0.000 C 
ENDBRANCH  16  19
ENDBRANCH   1  15
BRANCH   3  21
ATOM     21  C   UNL     1       1.558   9.119  18.899  0.00  0.00    +0.000 A 
ATOM     22  C   UNL     1       2.255   8.693  17.772  0.00  0.00    +0.000 A 
ATOM     23  C   UNL     1       2.901   7.455  17.784  0.00  0.00    +0.000 A 
ATOM     24  C   UNL     1       2.825   6.683  18.935  0.00  0.00    +0.000 A 
ATOM     25  N   UNL     1       2.158   7.059  20.044  0.00  0.00    +0.000 NA
ATOM     26  C   UNL     1       1.541   8.265  20.002  0.00  0.00    +0.000 A 
ENDBRANCH   3  21
BRANCH   7  27
ATOM     27  C   UNL     1       0.825  16.344  18.688  0.00  0.00    +0.000 C 
ATOM     28  F   UNL     1       1.809  16.701  17.816  0.00  0.00    +0.000 F 
ATOM     29  F   UNL     1      -0.296  17.005  18.288  0.00  0.00    +0.000 F 
ATOM     30  F   UNL     1       1.179  16.872  19.893  0.00  0.00    +0.000 F 
ENDBRANCH   7  27
TORSDOF 5
ENDMDL
