MODEL 1
REMARK VINA RESULT:      -9.1      0.000      0.000
REMARK  Name = 
REMARK  6 active torsions:
REMARK  status: ('A' for Active; 'I' for Inactive)
REMARK    1  A    between atoms: C_2  and  C_16
REMARK    2  A    between atoms: N_3  and  C_4
REMARK    3  A    between atoms: C_8  and  C_9
REMARK    4  A    between atoms: N_11  and  C_12
REMARK    5  A    between atoms: C_20  and  C_21
REMARK    6  A    between atoms: C_21  and  N_22
REMARK                            x       y       z     vdW  Elec       q    Type
REMARK                         _______ _______ _______ _____ _____    ______ ____
ROOT
ATOM      1  O   UNL     1       1.914   7.873  19.847  0.00  0.00    +0.000 OA
ATOM      2  C   UNL     1       2.111   7.888  18.635  0.00  0.00    +0.000 C 
ATOM      3  N   UNL     1       1.583   8.791  17.725  0.00  0.00    +0.000 N 
ATOM      4  H   UNL     1       1.667   8.563  16.742  0.00  0.00    +0.000 HD
ENDROOT
BRANCH   3   5
ATOM      5  C   UNL     1       0.746   9.883  18.043  0.00  0.00    +0.000 A 
ATOM      6  C   UNL     1       1.207  11.033  18.686  0.00  0.00    +0.000 A 
ATOM      7  C   UNL     1       0.326  12.057  19.041  0.00  0.00    +0.000 A 
ATOM      8  C   UNL     1      -1.030  11.952  18.736  0.00  0.00    +0.000 A 
ATOM      9  C   UNL     1      -1.498  10.827  18.047  0.00  0.00    +0.000 A 
ATOM     10  C   UNL     1      -0.608   9.796  17.703  0.00  0.00    +0.000 A 
BRANCH   9  11
ATOM     11  C   UNL     1      -2.939  10.651  17.709  0.00  0.00    +0.000 C 
ATOM     12  O   UNL     1      -3.418   9.521  17.677  0.00  0.00    +0.000 OA
ATOM     13  N   UNL     1      -3.651  11.798  17.405  0.00  0.00    +0.000 N 
ATOM     14  H   UNL     1      -3.157  12.673  17.293  0.00  0.00    +0.000 HD
BRANCH  13  15
ATOM     15  C   UNL     1      -5.020  11.742  16.992  0.00  0.00    +0.000 C 
ATOM     16  C   UNL     1      -5.972  12.867  17.296  0.00  0.00    +0.000 C 
ATOM     17  C   UNL     1      -6.116  11.554  18.005  0.00  0.00    +0.000 C 
ENDBRANCH  13  15
ENDBRANCH   9  11
ENDBRANCH   3   5
BRANCH   2  18
ATOM     18  C   UNL     1       2.930   6.792  18.057  0.00  0.00    +0.000 A 
ATOM     19  C   UNL     1       4.109   7.138  17.383  0.00  0.00    +0.000 A 
ATOM     20  C   UNL     1       4.906   6.148  16.811  0.00  0.00    +0.000 A 
ATOM     21  C   UNL     1       4.540   4.808  16.930  0.00  0.00    +0.000 A 
ATOM     22  C   UNL     1       3.376   4.443  17.626  0.00  0.00    +0.000 A 
ATOM     23  C   UNL     1       2.553   5.449  18.157  0.00  0.00    +0.000 A 
BRANCH  22  24
ATOM     24  C   UNL     1       3.022   2.995  17.841  0.00  0.00    +0.000 C 
BRANCH  24  25
ATOM     25  N   UNL     1       2.611   2.683  19.192  0.00  0.00    +0.000 N 
ATOM     26  C   UNL     1       3.414   3.032  20.341  0.00  0.00    +0.000 C 
ATOM     27  C   UNL     1       2.571   2.558  21.509  0.00  0.00    +0.000 C 
ATOM     28  C   UNL     1       1.143   2.760  21.020  0.00  0.00    +0.000 C 
ATOM     29  C   UNL     1       1.264   2.561  19.529  0.00  0.00    +0.000 C 
ATOM     30  O   UNL     1       0.333   2.402  18.760  0.00  0.00    +0.000 OA
ENDBRANCH  24  25
ENDBRANCH  22  24
ENDBRANCH   2  18
TORSDOF 6
ENDMDL
MODEL 2
REMARK VINA RESULT:      -8.8      1.700      2.070
REMARK  Name = 
REMARK  6 active torsions:
REMARK  status: ('A' for Active; 'I' for Inactive)
REMARK    1  A    between atoms: C_2  and  C_16
REMARK    2  A    between atoms: N_3  and  C_4
REMARK    3  A    between atoms: C_8  and  C_9
REMARK    4  A    between atoms: N_11  and  C_12
REMARK    5  A    between atoms: C_20  and  C_21
REMARK    6  A    between atoms: C_21  and  N_22
REMARK                            x       y       z     vdW  Elec       q    Type
REMARK                         _______ _______ _______ _____ _____    ______ ____
ROOT
ATOM      1  O   UNL     1       2.556   8.626  17.353  0.00  0.00    +0.000 OA
ATOM      2  C   UNL     1       2.590   7.660  18.110  0.00  0.00    +0.000 C 
ATOM      3  N   UNL     1       2.054   7.594  19.386  0.00  0.00    +0.000 N 
ATOM      4  H   UNL     1       2.330   6.812  19.966  0.00  0.00    +0.000 HD
ENDROOT
BRANCH   3   5
ATOM      5  C   UNL     1       1.334   8.625  20.030  0.00  0.00    +0.000 A 
ATOM      6  C   UNL     1       1.329   8.799  21.415  0.00  0.00    +0.000 A 
ATOM      7  C   UNL     1       0.547   9.791  22.009  0.00  0.00    +0.000 A 
ATOM      8  C   UNL     1      -0.229  10.639  21.219  0.00  0.00    +0.000 A 
ATOM      9  C   UNL     1      -0.196  10.508  19.826  0.00  0.00    +0.000 A 
ATOM     10  C   UNL     1       0.586   9.501  19.236  0.00  0.00    +0.000 A 
BRANCH   9  11
ATOM     11  C   UNL     1      -1.015  11.373  18.932  0.00  0.00    +0.000 C 
ATOM     12  O   UNL     1      -0.920  12.594  19.021  0.00  0.00    +0.000 OA
ATOM     13  N   UNL     1      -1.882  10.730  18.066  0.00  0.00    +0.000 N 
ATOM     14  H   UNL     1      -2.026   9.733  18.159  0.00  0.00    +0.000 HD
BRANCH  13  15
ATOM     15  C   UNL     1      -2.772  11.461  17.216  0.00  0.00    +0.000 C 
ATOM     16  C   UNL     1      -4.117  10.905  16.835  0.00  0.00    +0.000 C 
ATOM     17  C   UNL     1      -3.029  11.003  15.807  0.00  0.00    +0.000 C 
ENDBRANCH  13  15
ENDBRANCH   9  11
ENDBRANCH   3   5
BRANCH   2  18
ATOM     18  C   UNL     1       3.346   6.462  17.663  0.00  0.00    +0.000 A 
ATOM     19  C   UNL     1       4.557   6.664  16.987  0.00  0.00    +0.000 A 
ATOM     20  C   UNL     1       5.297   5.574  16.534  0.00  0.00    +0.000 A 
ATOM     21  C   UNL     1       4.842   4.278  16.774  0.00  0.00    +0.000 A 
ATOM     22  C   UNL     1       3.645   4.059  17.475  0.00  0.00    +0.000 A 
ATOM     23  C   UNL     1       2.880   5.162  17.885  0.00  0.00    +0.000 A 
BRANCH  22  24
ATOM     24  C   UNL     1       3.194   2.665  17.823  0.00  0.00    +0.000 C 
BRANCH  24  25
ATOM     25  N   UNL     1       2.644   2.538  19.155  0.00  0.00    +0.000 N 
ATOM     26  C   UNL     1       3.366   2.966  20.330  0.00  0.00    +0.000 C 
ATOM     27  C   UNL     1       2.392   2.685  21.457  0.00  0.00    +0.000 C 
ATOM     28  C   UNL     1       1.031   2.918  20.815  0.00  0.00    +0.000 C 
ATOM     29  C   UNL     1       1.267   2.540  19.373  0.00  0.00    +0.000 C 
ATOM     30  O   UNL     1       0.398   2.353  18.540  0.00  0.00    +0.000 OA
ENDBRANCH  24  25
ENDBRANCH  22  24
ENDBRANCH   2  18
TORSDOF 6
ENDMDL
MODEL 3
REMARK VINA RESULT:      -8.5      2.311      4.082
REMARK  Name = 
REMARK  6 active torsions:
REMARK  status: ('A' for Active; 'I' for Inactive)
REMARK    1  A    between atoms: C_2  and  C_16
REMARK    2  A    between atoms: N_3  and  C_4
REMARK    3  A    between atoms: C_8  and  C_9
REMARK    4  A    between atoms: N_11  and  C_12
REMARK    5  A    between atoms: C_20  and  C_21
REMARK    6  A    between atoms: C_21  and  N_22
REMARK                            x       y       z     vdW  Elec       q    Type
REMARK                         _______ _______ _______ _____ _____    ______ ____
ROOT
ATOM      1  O   UNL     1       2.058   7.835  19.869  0.00  0.00    +0.000 OA
ATOM      2  C   UNL     1       2.216   7.854  18.651  0.00  0.00    +0.000 C 
ATOM      3  N   UNL     1       1.691   8.783  17.767  0.00  0.00    +0.000 N 
ATOM      4  H   UNL     1       1.736   8.562  16.780  0.00  0.00    +0.000 HD
ENDROOT
BRANCH   3   5
ATOM      5  C   UNL     1       0.905   9.901  18.121  0.00  0.00    +0.000 A 
ATOM      6  C   UNL     1      -0.491   9.886  18.105  0.00  0.00    +0.000 A 
ATOM      7  C   UNL     1      -1.223  11.039  18.397  0.00  0.00    +0.000 A 
ATOM      8  C   UNL     1      -0.565  12.222  18.729  0.00  0.00    +0.000 A 
ATOM      9  C   UNL     1       0.833  12.240  18.796  0.00  0.00    +0.000 A 
ATOM     10  C   UNL     1       1.563  11.079  18.492  0.00  0.00    +0.000 A 
BRANCH   9  11
ATOM     11  C   UNL     1       1.592  13.478  19.129  0.00  0.00    +0.000 C 
ATOM     12  O   UNL     1       1.200  14.199  20.042  0.00  0.00    +0.000 OA
ATOM     13  N   UNL     1       2.693  13.764  18.340  0.00  0.00    +0.000 N 
ATOM     14  H   UNL     1       2.862  13.216  17.507  0.00  0.00    +0.000 HD
BRANCH  13  15
ATOM     15  C   UNL     1       3.451  14.965  18.520  0.00  0.00    +0.000 C 
ATOM     16  C   UNL     1       3.645  15.939  17.390  0.00  0.00    +0.000 C 
ATOM     17  C   UNL     1       4.801  15.118  17.876  0.00  0.00    +0.000 C 
ENDBRANCH  13  15
ENDBRANCH   9  11
ENDBRANCH   3   5
BRANCH   2  18
ATOM     18  C   UNL     1       2.976   6.735  18.039  0.00  0.00    +0.000 A 
ATOM     19  C   UNL     1       4.139   7.046  17.321  0.00  0.00    +0.000 A 
ATOM     20  C   UNL     1       4.880   6.034  16.714  0.00  0.00    +0.000 A 
ATOM     21  C   UNL     1       4.476   4.705  16.842  0.00  0.00    +0.000 A 
ATOM     22  C   UNL     1       3.329   4.375  17.581  0.00  0.00    +0.000 A 
ATOM     23  C   UNL     1       2.559   5.404  18.148  0.00  0.00    +0.000 A 
BRANCH  22  24
ATOM     24  C   UNL     1       2.937   2.938  17.805  0.00  0.00    +0.000 C 
BRANCH  24  25
ATOM     25  N   UNL     1       2.583   2.629  19.173  0.00  0.00    +0.000 N 
ATOM     26  C   UNL     1       3.452   2.943  20.283  0.00  0.00    +0.000 C 
ATOM     27  C   UNL     1       2.653   2.488  21.488  0.00  0.00    +0.000 C 
ATOM     28  C   UNL     1       1.210   2.739  21.072  0.00  0.00    +0.000 C 
ATOM     29  C   UNL     1       1.251   2.548  19.575  0.00  0.00    +0.000 C 
ATOM     30  O   UNL     1       0.278   2.426  18.852  0.00  0.00    +0.000 OA
ENDBRANCH  24  25
ENDBRANCH  22  24
ENDBRANCH   2  18
TORSDOF 6
ENDMDL
MODEL 4
REMARK VINA RESULT:      -8.2      2.515      9.273
REMARK  Name = 
REMARK  6 active torsions:
REMARK  status: ('A' for Active; 'I' for Inactive)
REMARK    1  A    between atoms: C_2  and  C_16
REMARK    2  A    between atoms: N_3  and  C_4
REMARK    3  A    between atoms: C_8  and  C_9
REMARK    4  A    between atoms: N_11  and  C_12
REMARK    5  A    between atoms: C_20  and  C_21
REMARK    6  A    between atoms: C_21  and  N_22
REMARK                            x       y       z     vdW  Elec       q    Type
REMARK                         _______ _______ _______ _____ _____    ______ ____
ROOT
ATOM      1  O   UNL     1       2.416   7.713  19.151  0.00  0.00    +0.000 OA
ATOM      2  C   UNL     1       1.805   7.537  20.202  0.00  0.00    +0.000 C 
ATOM      3  N   UNL     1       1.735   6.357  20.926  0.00  0.00    +0.000 N 
ATOM      4  H   UNL     1       1.038   6.302  21.658  0.00  0.00    +0.000 HD
ENDROOT
BRANCH   3   5
ATOM      5  C   UNL     1       2.390   5.150  20.596  0.00  0.00    +0.000 A 
ATOM      6  C   UNL     1       1.995   3.908  21.097  0.00  0.00    +0.000 A 
ATOM      7  C   UNL     1       2.718   2.752  20.796  0.00  0.00    +0.000 A 
ATOM      8  C   UNL     1       3.839   2.821  19.970  0.00  0.00    +0.000 A 
ATOM      9  C   UNL     1       4.219   4.052  19.422  0.00  0.00    +0.000 A 
ATOM     10  C   UNL     1       3.493   5.212  19.737  0.00  0.00    +0.000 A 
BRANCH   9  11
ATOM     11  C   UNL     1       5.417   4.190  18.547  0.00  0.00    +0.000 C 
ATOM     12  O   UNL     1       6.483   4.552  19.036  0.00  0.00    +0.000 OA
ATOM     13  N   UNL     1       5.235   3.937  17.199  0.00  0.00    +0.000 N 
ATOM     14  H   UNL     1       4.299   3.803  16.841  0.00  0.00    +0.000 HD
BRANCH  13  15
ATOM     15  C   UNL     1       6.296   4.112  16.254  0.00  0.00    +0.000 C 
ATOM     16  C   UNL     1       6.280   5.247  15.267  0.00  0.00    +0.000 C 
ATOM     17  C   UNL     1       6.069   3.841  14.792  0.00  0.00    +0.000 C 
ENDBRANCH  13  15
ENDBRANCH   9  11
ENDBRANCH   3   5
BRANCH   2  18
ATOM     18  C   UNL     1       0.991   8.665  20.722  0.00  0.00    +0.000 A 
ATOM     19  C   UNL     1       0.786   8.743  22.106  0.00  0.00    +0.000 A 
ATOM     20  C   UNL     1       0.018   9.774  22.644  0.00  0.00    +0.000 A 
ATOM     21  C   UNL     1      -0.529  10.743  21.804  0.00  0.00    +0.000 A 
ATOM     22  C   UNL     1      -0.309  10.694  20.418  0.00  0.00    +0.000 A 
ATOM     23  C   UNL     1       0.425   9.625  19.878  0.00  0.00    +0.000 A 
BRANCH  22  24
ATOM     24  C   UNL     1      -0.814  11.787  19.513  0.00  0.00    +0.000 C 
BRANCH  24  25
ATOM     25  N   UNL     1      -1.728  11.329  18.489  0.00  0.00    +0.000 N 
ATOM     26  C   UNL     1      -1.414  10.223  17.615  0.00  0.00    +0.000 C 
ATOM     27  C   UNL     1      -2.662  10.086  16.766  0.00  0.00    +0.000 C 
ATOM     28  C   UNL     1      -3.781  10.502  17.712  0.00  0.00    +0.000 C 
ATOM     29  C   UNL     1      -3.105  11.502  18.618  0.00  0.00    +0.000 C 
ATOM     30  O   UNL     1      -3.675  12.264  19.379  0.00  0.00    +0.000 OA
ENDBRANCH  24  25
ENDBRANCH  22  24
ENDBRANCH   2  18
TORSDOF 6
ENDMDL
MODEL 5
REMARK VINA RESULT:      -8.2      1.653      2.015
REMARK  Name = 
REMARK  6 active torsions:
REMARK  status: ('A' for Active; 'I' for Inactive)
REMARK    1  A    between atoms: C_2  and  C_16
REMARK    2  A    between atoms: N_3  and  C_4
REMARK    3  A    between atoms: C_8  and  C_9
REMARK    4  A    between atoms: N_11  and  C_12
REMARK    5  A    between atoms: C_20  and  C_21
REMARK    6  A    between atoms: C_21  and  N_22
REMARK                            x       y       z     vdW  Elec       q    Type
REMARK                         _______ _______ _______ _____ _____    ______ ____
ROOT
ATOM      1  O   UNL     1       2.144  10.156  17.369  0.00  0.00    +0.000 OA
ATOM      2  C   UNL     1       1.819   9.275  18.160  0.00  0.00    +0.000 C 
ATOM      3  N   UNL     1       0.775   9.329  19.070  0.00  0.00    +0.000 N 
ATOM      4  H   UNL     1       0.749   8.618  19.790  0.00  0.00    +0.000 HD
ENDROOT
BRANCH   3   5
ATOM      5  C   UNL     1      -0.128  10.403  19.221  0.00  0.00    +0.000 A 
ATOM      6  C   UNL     1       0.161  11.540  19.978  0.00  0.00    +0.000 A 
ATOM      7  C   UNL     1      -0.793  12.545  20.154  0.00  0.00    +0.000 A 
ATOM      8  C   UNL     1      -2.047  12.434  19.556  0.00  0.00    +0.000 A 
ATOM      9  C   UNL     1      -2.334  11.323  18.755  0.00  0.00    +0.000 A 
ATOM     10  C   UNL     1      -1.374  10.312  18.590  0.00  0.00    +0.000 A 
BRANCH   9  11
ATOM     11  C   UNL     1      -3.662  11.141  18.104  0.00  0.00    +0.000 C 
ATOM     12  O   UNL     1      -4.021  10.016  17.769  0.00  0.00    +0.000 OA
ATOM     13  N   UNL     1      -4.405  12.286  17.875  0.00  0.00    +0.000 N 
ATOM     14  H   UNL     1      -3.980  13.191  18.028  0.00  0.00    +0.000 HD
BRANCH  13  15
ATOM     15  C   UNL     1      -5.660  12.240  17.189  0.00  0.00    +0.000 C 
ATOM     16  C   UNL     1      -6.718  13.283  17.429  0.00  0.00    +0.000 C 
ATOM     17  C   UNL     1      -6.921  11.883  17.926  0.00  0.00    +0.000 C 
ENDBRANCH  13  15
ENDBRANCH   9  11
ENDBRANCH   3   5
BRANCH   2  18
ATOM     18  C   UNL     1       2.665   8.055  18.217  0.00  0.00    +0.000 A 
ATOM     19  C   UNL     1       3.718   7.943  17.300  0.00  0.00    +0.000 A 
ATOM     20  C   UNL     1       4.533   6.812  17.303  0.00  0.00    +0.000 A 
ATOM     21  C   UNL     1       4.312   5.800  18.236  0.00  0.00    +0.000 A 
ATOM     22  C   UNL     1       3.278   5.911  19.180  0.00  0.00    +0.000 A 
ATOM     23  C   UNL     1       2.431   7.030  19.139  0.00  0.00    +0.000 A 
BRANCH  22  24
ATOM     24  C   UNL     1       3.091   4.869  20.251  0.00  0.00    +0.000 C 
BRANCH  24  25
ATOM     25  N   UNL     1       2.747   3.558  19.745  0.00  0.00    +0.000 N 
ATOM     26  C   UNL     1       1.584   3.332  18.920  0.00  0.00    +0.000 C 
ATOM     27  C   UNL     1       1.665   1.852  18.603  0.00  0.00    +0.000 C 
ATOM     28  C   UNL     1       3.163   1.583  18.550  0.00  0.00    +0.000 C 
ATOM     29  C   UNL     1       3.723   2.587  19.529  0.00  0.00    +0.000 C 
ATOM     30  O   UNL     1       4.855   2.579  19.979  0.00  0.00    +0.000 OA
ENDBRANCH  24  25
ENDBRANCH  22  24
ENDBRANCH   2  18
TORSDOF 6
ENDMDL
MODEL 6
REMARK VINA RESULT:      -8.2      2.358      3.773
REMARK  Name = 
REMARK  6 active torsions:
REMARK  status: ('A' for Active; 'I' for Inactive)
REMARK    1  A    between atoms: C_2  and  C_16
REMARK    2  A    between atoms: N_3  and  C_4
REMARK    3  A    between atoms: C_8  and  C_9
REMARK    4  A    between atoms: N_11  and  C_12
REMARK    5  A    between atoms: C_20  and  C_21
REMARK    6  A    between atoms: C_21  and  N_22
REMARK                            x       y       z     vdW  Elec       q    Type
REMARK                         _______ _______ _______ _____ _____    ______ ____
ROOT
ATOM      1  O   UNL     1       2.027   7.872  19.873  0.00  0.00    +0.000 OA
ATOM      2  C   UNL     1       2.254   7.941  18.668  0.00  0.00    +0.000 C 
ATOM      3  N   UNL     1       1.834   8.941  17.806  0.00  0.00    +0.000 N 
ATOM      4  H   UNL     1       1.922   8.766  16.812  0.00  0.00    +0.000 HD
ENDROOT
BRANCH   3   5
ATOM      5  C   UNL     1       1.094  10.086  18.174  0.00  0.00    +0.000 A 
ATOM      6  C   UNL     1      -0.299  10.098  18.258  0.00  0.00    +0.000 A 
ATOM      7  C   UNL     1      -0.989  11.274  18.559  0.00  0.00    +0.000 A 
ATOM      8  C   UNL     1      -0.288  12.455  18.802  0.00  0.00    +0.000 A 
ATOM      9  C   UNL     1       1.111  12.447  18.769  0.00  0.00    +0.000 A 
ATOM     10  C   UNL     1       1.797  11.263  18.456  0.00  0.00    +0.000 A 
BRANCH   9  11
ATOM     11  C   UNL     1       1.913  13.681  19.004  0.00  0.00    +0.000 C 
ATOM     12  O   UNL     1       3.042  13.587  19.477  0.00  0.00    +0.000 OA
ATOM     13  N   UNL     1       1.302  14.886  18.704  0.00  0.00    +0.000 N 
ATOM     14  H   UNL     1       0.318  14.899  18.472  0.00  0.00    +0.000 HD
BRANCH  13  15
ATOM     15  C   UNL     1       1.949  16.138  18.960  0.00  0.00    +0.000 C 
ATOM     16  C   UNL     1       1.409  17.096  19.986  0.00  0.00    +0.000 C 
ATOM     17  C   UNL     1       1.310  17.429  18.528  0.00  0.00    +0.000 C 
ENDBRANCH  13  15
ENDBRANCH   9  11
ENDBRANCH   3   5
BRANCH   2  18
ATOM     18  C   UNL     1       2.983   6.809  18.039  0.00  0.00    +0.000 A 
ATOM     19  C   UNL     1       4.145   7.099  17.312  0.00  0.00    +0.000 A 
ATOM     20  C   UNL     1       4.857   6.075  16.691  0.00  0.00    +0.000 A 
ATOM     21  C   UNL     1       4.424   4.755  16.813  0.00  0.00    +0.000 A 
ATOM     22  C   UNL     1       3.277   4.445  17.562  0.00  0.00    +0.000 A 
ATOM     23  C   UNL     1       2.537   5.487  18.143  0.00  0.00    +0.000 A 
BRANCH  22  24
ATOM     24  C   UNL     1       2.855   3.016  17.778  0.00  0.00    +0.000 C 
BRANCH  24  25
ATOM     25  N   UNL     1       2.532   2.699  19.152  0.00  0.00    +0.000 N 
ATOM     26  C   UNL     1       3.395   3.063  20.251  0.00  0.00    +0.000 C 
ATOM     27  C   UNL     1       2.634   2.576  21.468  0.00  0.00    +0.000 C 
ATOM     28  C   UNL     1       1.175   2.752  21.065  0.00  0.00    +0.000 C 
ATOM     29  C   UNL     1       1.210   2.553  19.569  0.00  0.00    +0.000 C 
ATOM     30  O   UNL     1       0.237   2.376  18.858  0.00  0.00    +0.000 OA
ENDBRANCH  24  25
ENDBRANCH  22  24
ENDBRANCH   2  18
TORSDOF 6
ENDMDL
MODEL 7
REMARK VINA RESULT:      -8.2      2.404      2.940
REMARK  Name = 
REMARK  6 active torsions:
REMARK  status: ('A' for Active; 'I' for Inactive)
REMARK    1  A    between atoms: C_2  and  C_16
REMARK    2  A    between atoms: N_3  and  C_4
REMARK    3  A    between atoms: C_8  and  C_9
REMARK    4  A    between atoms: N_11  and  C_12
REMARK    5  A    between atoms: C_20  and  C_21
REMARK    6  A    between atoms: C_21  and  N_22
REMARK                            x       y       z     vdW  Elec       q    Type
REMARK                         _______ _______ _______ _____ _____    ______ ____
ROOT
ATOM      1  O   UNL     1       2.580   8.867  17.856  0.00  0.00    +0.000 OA
ATOM      2  C   UNL     1       2.517   7.806  18.473  0.00  0.00    +0.000 C 
ATOM      3  N   UNL     1       1.935   7.609  19.715  0.00  0.00    +0.000 N 
ATOM      4  H   UNL     1       2.134   6.736  20.188  0.00  0.00    +0.000 HD
ENDROOT
BRANCH   3   5
ATOM      5  C   UNL     1       1.275   8.596  20.479  0.00  0.00    +0.000 A 
ATOM      6  C   UNL     1       1.166   8.537  21.870  0.00  0.00    +0.000 A 
ATOM      7  C   UNL     1       0.443   9.501  22.574  0.00  0.00    +0.000 A 
ATOM      8  C   UNL     1      -0.166  10.555  21.894  0.00  0.00    +0.000 A 
ATOM      9  C   UNL     1      -0.025  10.655  20.506  0.00  0.00    +0.000 A 
ATOM     10  C   UNL     1       0.695   9.675  19.803  0.00  0.00    +0.000 A 
BRANCH   9  11
ATOM     11  C   UNL     1      -0.667  11.749  19.724  0.00  0.00    +0.000 C 
ATOM     12  O   UNL     1      -1.363  11.468  18.752  0.00  0.00    +0.000 OA
ATOM     13  N   UNL     1      -0.397  13.045  20.128  0.00  0.00    +0.000 N 
ATOM     14  H   UNL     1       0.311  13.207  20.832  0.00  0.00    +0.000 HD
BRANCH  13  15
ATOM     15  C   UNL     1      -0.897  14.175  19.406  0.00  0.00    +0.000 C 
ATOM     16  C   UNL     1       0.036  15.205  18.829  0.00  0.00    +0.000 C 
ATOM     17  C   UNL     1      -0.829  15.553  20.003  0.00  0.00    +0.000 C 
ENDBRANCH  13  15
ENDBRANCH   9  11
ENDBRANCH   3   5
BRANCH   2  18
ATOM     18  C   UNL     1       3.195   6.625  17.881  0.00  0.00    +0.000 A 
ATOM     19  C   UNL     1       4.358   6.843  17.131  0.00  0.00    +0.000 A 
ATOM     20  C   UNL     1       5.024   5.769  16.542  0.00  0.00    +0.000 A 
ATOM     21  C   UNL     1       4.544   4.472  16.720  0.00  0.00    +0.000 A 
ATOM     22  C   UNL     1       3.395   4.235  17.493  0.00  0.00    +0.000 A 
ATOM     23  C   UNL     1       2.702   5.326  18.041  0.00  0.00    +0.000 A 
BRANCH  22  24
ATOM     24  C   UNL     1       2.923   2.832  17.769  0.00  0.00    +0.000 C 
BRANCH  24  25
ATOM     25  N   UNL     1       2.561   2.594  19.150  0.00  0.00    +0.000 N 
ATOM     26  C   UNL     1       3.434   2.940  20.246  0.00  0.00    +0.000 C 
ATOM     27  C   UNL     1       2.625   2.557  21.469  0.00  0.00    +0.000 C 
ATOM     28  C   UNL     1       1.188   2.818  21.038  0.00  0.00    +0.000 C 
ATOM     29  C   UNL     1       1.227   2.558  19.552  0.00  0.00    +0.000 C 
ATOM     30  O   UNL     1       0.253   2.422  18.833  0.00  0.00    +0.000 OA
ENDBRANCH  24  25
ENDBRANCH  22  24
ENDBRANCH   2  18
TORSDOF 6
ENDMDL
MODEL 8
REMARK VINA RESULT:      -8.2      2.087      2.333
REMARK  Name = 
REMARK  6 active torsions:
REMARK  status: ('A' for Active; 'I' for Inactive)
REMARK    1  A    between atoms: C_2  and  C_16
REMARK    2  A    between atoms: N_3  and  C_4
REMARK    3  A    between atoms: C_8  and  C_9
REMARK    4  A    between atoms: N_11  and  C_12
REMARK    5  A    between atoms: C_20  and  C_21
REMARK    6  A    between atoms: C_21  and  N_22
REMARK                            x       y       z     vdW  Elec       q    Type
REMARK                         _______ _______ _______ _____ _____    ______ ____
ROOT
ATOM      1  O   UNL     1       2.691   8.955  17.943  0.00  0.00    +0.000 OA
ATOM      2  C   UNL     1       2.566   7.868  18.502  0.00  0.00    +0.000 C 
ATOM      3  N   UNL     1       1.939   7.633  19.716  0.00  0.00    +0.000 N 
ATOM      4  H   UNL     1       2.087   6.730  20.148  0.00  0.00    +0.000 HD
ENDROOT
BRANCH   3   5
ATOM      5  C   UNL     1       1.296   8.607  20.511  0.00  0.00    +0.000 A 
ATOM      6  C   UNL     1       1.505   8.727  21.886  0.00  0.00    +0.000 A 
ATOM      7  C   UNL     1       0.793   9.661  22.640  0.00  0.00    +0.000 A 
ATOM      8  C   UNL     1      -0.127  10.506  22.022  0.00  0.00    +0.000 A 
ATOM      9  C   UNL     1      -0.312  10.431  20.637  0.00  0.00    +0.000 A 
ATOM     10  C   UNL     1       0.400   9.482  19.886  0.00  0.00    +0.000 A 
BRANCH   9  11
ATOM     11  C   UNL     1      -1.294  11.296  19.923  0.00  0.00    +0.000 C 
ATOM     12  O   UNL     1      -1.312  11.302  18.696  0.00  0.00    +0.000 OA
ATOM     13  N   UNL     1      -2.113  12.087  20.709  0.00  0.00    +0.000 N 
ATOM     14  H   UNL     1      -1.934  12.153  21.703  0.00  0.00    +0.000 HD
BRANCH  13  15
ATOM     15  C   UNL     1      -3.040  13.012  20.131  0.00  0.00    +0.000 C 
ATOM     16  C   UNL     1      -4.151  13.614  20.948  0.00  0.00    +0.000 C 
ATOM     17  C   UNL     1      -4.466  12.608  19.882  0.00  0.00    +0.000 C 
ENDBRANCH  13  15
ENDBRANCH   9  11
ENDBRANCH   3   5
BRANCH   2  18
ATOM     18  C   UNL     1       3.213   6.691  17.870  0.00  0.00    +0.000 A 
ATOM     19  C   UNL     1       4.353   6.911  17.085  0.00  0.00    +0.000 A 
ATOM     20  C   UNL     1       4.990   5.841  16.458  0.00  0.00    +0.000 A 
ATOM     21  C   UNL     1       4.503   4.546  16.631  0.00  0.00    +0.000 A 
ATOM     22  C   UNL     1       3.378   4.306  17.436  0.00  0.00    +0.000 A 
ATOM     23  C   UNL     1       2.713   5.394  18.025  0.00  0.00    +0.000 A 
BRANCH  22  24
ATOM     24  C   UNL     1       2.902   2.903  17.705  0.00  0.00    +0.000 C 
BRANCH  24  25
ATOM     25  N   UNL     1       2.551   2.655  19.087  0.00  0.00    +0.000 N 
ATOM     26  C   UNL     1       3.416   3.032  20.181  0.00  0.00    +0.000 C 
ATOM     27  C   UNL     1       2.622   2.624  21.406  0.00  0.00    +0.000 C 
ATOM     28  C   UNL     1       1.176   2.836  20.979  0.00  0.00    +0.000 C 
ATOM     29  C   UNL     1       1.220   2.575  19.493  0.00  0.00    +0.000 C 
ATOM     30  O   UNL     1       0.250   2.405  18.776  0.00  0.00    +0.000 OA
ENDBRANCH  24  25
ENDBRANCH  22  24
ENDBRANCH   2  18
TORSDOF 6
ENDMDL
MODEL 9
REMARK VINA RESULT:      -8.2      2.622      4.318
REMARK  Name = 
REMARK  6 active torsions:
REMARK  status: ('A' for Active; 'I' for Inactive)
REMARK    1  A    between atoms: C_2  and  C_16
REMARK    2  A    between atoms: N_3  and  C_4
REMARK    3  A    between atoms: C_8  and  C_9
REMARK    4  A    between atoms: N_11  and  C_12
REMARK    5  A    between atoms: C_20  and  C_21
REMARK    6  A    between atoms: C_21  and  N_22
REMARK                            x       y       z     vdW  Elec       q    Type
REMARK                         _______ _______ _______ _____ _____    ______ ____
ROOT
ATOM      1  O   UNL     1       0.777   5.522  20.833  0.00  0.00    +0.000 OA
ATOM      2  C   UNL     1       1.893   5.950  20.549  0.00  0.00    +0.000 C 
ATOM      3  N   UNL     1       2.275   7.280  20.495  0.00  0.00    +0.000 N 
ATOM      4  H   UNL     1       3.162   7.491  20.055  0.00  0.00    +0.000 HD
ENDROOT
BRANCH   3   5
ATOM      5  C   UNL     1       1.449   8.386  20.794  0.00  0.00    +0.000 A 
ATOM      6  C   UNL     1       1.118   8.758  22.098  0.00  0.00    +0.000 A 
ATOM      7  C   UNL     1       0.241   9.818  22.340  0.00  0.00    +0.000 A 
ATOM      8  C   UNL     1      -0.301  10.535  21.275  0.00  0.00    +0.000 A 
ATOM      9  C   UNL     1       0.060  10.205  19.964  0.00  0.00    +0.000 A 
ATOM     10  C   UNL     1       0.934   9.132  19.728  0.00  0.00    +0.000 A 
BRANCH   9  11
ATOM     11  C   UNL     1      -0.500  10.925  18.785  0.00  0.00    +0.000 C 
ATOM     12  O   UNL     1       0.061  11.937  18.374  0.00  0.00    +0.000 OA
ATOM     13  N   UNL     1      -1.667  10.418  18.243  0.00  0.00    +0.000 N 
ATOM     14  H   UNL     1      -2.161   9.681  18.730  0.00  0.00    +0.000 HD
BRANCH  13  15
ATOM     15  C   UNL     1      -2.335  11.071  17.159  0.00  0.00    +0.000 C 
ATOM     16  C   UNL     1      -3.759  10.735  16.806  0.00  0.00    +0.000 C 
ATOM     17  C   UNL     1      -2.644  10.323  15.891  0.00  0.00    +0.000 C 
ENDBRANCH  13  15
ENDBRANCH   9  11
ENDBRANCH   3   5
BRANCH   2  18
ATOM     18  C   UNL     1       2.926   4.962  20.146  0.00  0.00    +0.000 A 
ATOM     19  C   UNL     1       2.659   3.605  20.367  0.00  0.00    +0.000 A 
ATOM     20  C   UNL     1       3.601   2.639  20.019  0.00  0.00    +0.000 A 
ATOM     21  C   UNL     1       4.804   3.024  19.428  0.00  0.00    +0.000 A 
ATOM     22  C   UNL     1       5.075   4.378  19.175  0.00  0.00    +0.000 A 
ATOM     23  C   UNL     1       4.142   5.349  19.573  0.00  0.00    +0.000 A 
BRANCH  22  24
ATOM     24  C   UNL     1       6.328   4.797  18.452  0.00  0.00    +0.000 C 
BRANCH  24  25
ATOM     25  N   UNL     1       6.161   4.950  17.023  0.00  0.00    +0.000 N 
ATOM     26  C   UNL     1       5.578   3.916  16.200  0.00  0.00    +0.000 C 
ATOM     27  C   UNL     1       5.568   4.538  14.817  0.00  0.00    +0.000 C 
ATOM     28  C   UNL     1       5.354   6.020  15.097  0.00  0.00    +0.000 C 
ATOM     29  C   UNL     1       6.012   6.209  16.443  0.00  0.00    +0.000 C 
ATOM     30  O   UNL     1       6.284   7.282  16.952  0.00  0.00    +0.000 OA
ENDBRANCH  24  25
ENDBRANCH  22  24
ENDBRANCH   2  18
TORSDOF 6
ENDMDL
