MODEL 1
REMARK VINA RESULT:      -8.2      0.000      0.000
REMARK  Name = 
REMARK  5 active torsions:
REMARK  status: ('A' for Active; 'I' for Inactive)
REMARK    1  A    between atoms: C_1  and  C_2
REMARK    2  A    between atoms: C_4  and  C_5
REMARK    3  A    between atoms: N_7  and  C_8
REMARK    4  A    between atoms: C_8  and  C_9
REMARK    5  A    between atoms: N_21  and  C_22
REMARK                            x       y       z     vdW  Elec       q    Type
REMARK                         _______ _______ _______ _____ _____    ______ ____
ROOT
ATOM      1  C   UNL     1       1.924   9.648  18.055  0.00  0.00    +0.000 C 
ATOM      2  O   UNL     1       2.589  10.522  17.497  0.00  0.00    +0.000 OA
ATOM      3  N   UNL     1       0.710   9.891  18.658  0.00  0.00    +0.000 N 
ATOM      4  H   UNL     1       0.238   9.085  19.059  0.00  0.00    +0.000 HD
ENDROOT
BRANCH   1   8
ATOM      5  C   UNL     1       4.477   5.330  17.305  0.00  0.00    +0.000 C 
ATOM      6  C   UNL     1       3.547   6.368  17.831  0.00  0.00    +0.000 A 
ATOM      7  C   UNL     1       3.559   7.720  17.564  0.00  0.00    +0.000 A 
ATOM      8  C   UNL     1       2.374   8.243  18.124  0.00  0.00    +0.000 A 
ATOM      9  N   UNL     1       1.663   7.274  18.727  0.00  0.00    +0.000 NA
ATOM     10  N   UNL     1       2.411   6.135  18.603  0.00  0.00    +0.000 N 
BRANCH  10  11
ATOM     11  C   UNL     1       1.963   4.931  19.206  0.00  0.00    +0.000 A 
ATOM     12  C   UNL     1       1.428   3.904  18.425  0.00  0.00    +0.000 A 
ATOM     13  F   UNL     1       1.339   4.002  17.091  0.00  0.00    +0.000 F 
ATOM     14  C   UNL     1       1.027   2.693  19.002  0.00  0.00    +0.000 A 
ATOM     15  C   UNL     1       1.146   2.494  20.375  0.00  0.00    +0.000 A 
ATOM     16  C   UNL     1       1.640   3.524  21.169  0.00  0.00    +0.000 A 
ATOM     17  C   UNL     1       2.026   4.733  20.586  0.00  0.00    +0.000 A 
ATOM     18  F   UNL     1       2.355   5.723  21.425  0.00  0.00    +0.000 F 
ENDBRANCH  10  11
ENDBRANCH   1   8
BRANCH   3  19
ATOM     19  C   UNL     1       0.096  11.200  18.707  0.00  0.00    +0.000 C 
BRANCH  19  20
ATOM     20  C   UNL     1      -1.399  11.134  18.507  0.00  0.00    +0.000 A 
ATOM     21  C   UNL     1      -1.925  10.395  17.436  0.00  0.00    +0.000 A 
ATOM     22  C   UNL     1      -3.303  10.296  17.248  0.00  0.00    +0.000 A 
ATOM     23  C   UNL     1      -4.175  10.977  18.092  0.00  0.00    +0.000 A 
ATOM     24  C   UNL     1      -3.673  11.755  19.137  0.00  0.00    +0.000 A 
ATOM     25  C   UNL     1      -2.291  11.816  19.356  0.00  0.00    +0.000 A 
ATOM     26  O   UNL     1      -4.483  12.391  20.040  0.00  0.00    +0.000 OA
ATOM     27  C   UNL     1      -5.335  13.367  19.433  0.00  0.00    +0.000 C 
ATOM     28  C   UNL     1      -6.568  12.765  18.770  0.00  0.00    +0.000 C 
ATOM     29  C   UNL     1      -6.197  11.949  17.544  0.00  0.00    +0.000 C 
ATOM     30  O   UNL     1      -5.510  10.754  17.901  0.00  0.00    +0.000 OA
ENDBRANCH  19  20
ENDBRANCH   3  19
TORSDOF 4
ENDMDL
MODEL 2
REMARK VINA RESULT:      -8.2      5.618      8.841
REMARK  Name = 
REMARK  5 active torsions:
REMARK  status: ('A' for Active; 'I' for Inactive)
REMARK    1  A    between atoms: C_1  and  C_2
REMARK    2  A    between atoms: C_4  and  C_5
REMARK    3  A    between atoms: N_7  and  C_8
REMARK    4  A    between atoms: C_8  and  C_9
REMARK    5  A    between atoms: N_21  and  C_22
REMARK                            x       y       z     vdW  Elec       q    Type
REMARK                         _______ _______ _______ _____ _____    ______ ____
ROOT
ATOM      1  C   UNL     1       6.645   7.175  17.306  0.00  0.00    +0.000 C 
ATOM      2  O   UNL     1       7.341   6.341  16.725  0.00  0.00    +0.000 OA
ATOM      3  N   UNL     1       7.129   8.385  17.751  0.00  0.00    +0.000 N 
ATOM      4  H   UNL     1       6.453   9.005  18.188  0.00  0.00    +0.000 HD
ENDROOT
BRANCH   1   8
ATOM      5  C   UNL     1       1.657   7.864  17.913  0.00  0.00    +0.000 C 
ATOM      6  C   UNL     1       3.009   7.256  17.777  0.00  0.00    +0.000 A 
ATOM      7  C   UNL     1       4.165   7.865  17.334  0.00  0.00    +0.000 A 
ATOM      8  C   UNL     1       5.211   6.949  17.576  0.00  0.00    +0.000 A 
ATOM      9  N   UNL     1       4.737   5.817  18.125  0.00  0.00    +0.000 NA
ATOM     10  N   UNL     1       3.380   5.978  18.191  0.00  0.00    +0.000 N 
BRANCH  10  11
ATOM     11  C   UNL     1       2.568   4.915  18.665  0.00  0.00    +0.000 A 
ATOM     12  C   UNL     1       1.992   4.975  19.936  0.00  0.00    +0.000 A 
ATOM     13  F   UNL     1       2.161   6.035  20.740  0.00  0.00    +0.000 F 
ATOM     14  C   UNL     1       1.151   3.955  20.397  0.00  0.00    +0.000 A 
ATOM     15  C   UNL     1       0.880   2.851  19.593  0.00  0.00    +0.000 A 
ATOM     16  C   UNL     1       1.479   2.760  18.341  0.00  0.00    +0.000 A 
ATOM     17  C   UNL     1       2.326   3.776  17.895  0.00  0.00    +0.000 A 
ATOM     18  F   UNL     1       2.975   3.552  16.746  0.00  0.00    +0.000 F 
ENDBRANCH  10  11
ENDBRANCH   1   8
BRANCH   3  19
ATOM     19  C   UNL     1       8.506   8.797  17.591  0.00  0.00    +0.000 C 
BRANCH  19  20
ATOM     20  C   UNL     1       8.809  10.071  18.344  0.00  0.00    +0.000 A 
ATOM     21  C   UNL     1       9.231  10.005  19.680  0.00  0.00    +0.000 A 
ATOM     22  C   UNL     1       9.544  11.166  20.386  0.00  0.00    +0.000 A 
ATOM     23  C   UNL     1       9.388  12.412  19.788  0.00  0.00    +0.000 A 
ATOM     24  C   UNL     1       8.926  12.504  18.473  0.00  0.00    +0.000 A 
ATOM     25  C   UNL     1       8.659  11.336  17.747  0.00  0.00    +0.000 A 
ATOM     26  O   UNL     1       8.820  13.697  17.809  0.00  0.00    +0.000 OA
ATOM     27  C   UNL     1       7.896  14.598  18.427  0.00  0.00    +0.000 C 
ATOM     28  C   UNL     1       8.478  15.332  19.629  0.00  0.00    +0.000 C 
ATOM     29  C   UNL     1       8.731  14.386  20.789  0.00  0.00    +0.000 C 
ATOM     30  O   UNL     1       9.806  13.494  20.511  0.00  0.00    +0.000 OA
ENDBRANCH  19  20
ENDBRANCH   3  19
TORSDOF 4
ENDMDL
MODEL 3
REMARK VINA RESULT:      -8.2      5.637      8.710
REMARK  Name = 
REMARK  5 active torsions:
REMARK  status: ('A' for Active; 'I' for Inactive)
REMARK    1  A    between atoms: C_1  and  C_2
REMARK    2  A    between atoms: C_4  and  C_5
REMARK    3  A    between atoms: N_7  and  C_8
REMARK    4  A    between atoms: C_8  and  C_9
REMARK    5  A    between atoms: N_21  and  C_22
REMARK                            x       y       z     vdW  Elec       q    Type
REMARK                         _______ _______ _______ _____ _____    ______ ____
ROOT
ATOM      1  C   UNL     1       6.650   7.060  17.418  0.00  0.00    +0.000 C 
ATOM      2  O   UNL     1       7.370   6.173  16.960  0.00  0.00    +0.000 OA
ATOM      3  N   UNL     1       7.112   8.317  17.743  0.00  0.00    +0.000 N 
ATOM      4  H   UNL     1       6.418   8.977  18.083  0.00  0.00    +0.000 HD
ENDROOT
BRANCH   1   8
ATOM      5  C   UNL     1       1.653   7.808  17.860  0.00  0.00    +0.000 C 
ATOM      6  C   UNL     1       3.004   7.186  17.786  0.00  0.00    +0.000 A 
ATOM      7  C   UNL     1       4.175   7.768  17.350  0.00  0.00    +0.000 A 
ATOM      8  C   UNL     1       5.207   6.856  17.658  0.00  0.00    +0.000 A 
ATOM      9  N   UNL     1       4.709   5.750  18.239  0.00  0.00    +0.000 NA
ATOM     10  N   UNL     1       3.353   5.923  18.262  0.00  0.00    +0.000 N 
BRANCH  10  11
ATOM     11  C   UNL     1       2.520   4.886  18.756  0.00  0.00    +0.000 A 
ATOM     12  C   UNL     1       2.254   3.758  17.975  0.00  0.00    +0.000 A 
ATOM     13  F   UNL     1       2.784   3.601  16.754  0.00  0.00    +0.000 F 
ATOM     14  C   UNL     1       1.473   2.706  18.470  0.00  0.00    +0.000 A 
ATOM     15  C   UNL     1       0.938   2.771  19.753  0.00  0.00    +0.000 A 
ATOM     16  C   UNL     1       1.163   3.905  20.526  0.00  0.00    +0.000 A 
ATOM     17  C   UNL     1       1.932   4.955  20.020  0.00  0.00    +0.000 A 
ATOM     18  F   UNL     1       1.986   6.068  20.761  0.00  0.00    +0.000 F 
ENDBRANCH  10  11
ENDBRANCH   1   8
BRANCH   3  19
ATOM     19  C   UNL     1       8.493   8.718  17.590  0.00  0.00    +0.000 C 
BRANCH  19  20
ATOM     20  C   UNL     1       8.797  10.001  18.327  0.00  0.00    +0.000 A 
ATOM     21  C   UNL     1       9.213   9.951  19.665  0.00  0.00    +0.000 A 
ATOM     22  C   UNL     1       9.527  11.121  20.357  0.00  0.00    +0.000 A 
ATOM     23  C   UNL     1       9.377  12.360  19.742  0.00  0.00    +0.000 A 
ATOM     24  C   UNL     1       8.921  12.436  18.424  0.00  0.00    +0.000 A 
ATOM     25  C   UNL     1       8.652  11.259  17.712  0.00  0.00    +0.000 A 
ATOM     26  O   UNL     1       8.821  13.620  17.744  0.00  0.00    +0.000 OA
ATOM     27  C   UNL     1       7.896  14.531  18.346  0.00  0.00    +0.000 C 
ATOM     28  C   UNL     1       8.475  15.280  19.540  0.00  0.00    +0.000 C 
ATOM     29  C   UNL     1       8.721  14.348  20.714  0.00  0.00    +0.000 C 
ATOM     30  O   UNL     1       9.795  13.450  20.452  0.00  0.00    +0.000 OA
ENDBRANCH  19  20
ENDBRANCH   3  19
TORSDOF 4
ENDMDL
MODEL 4
REMARK VINA RESULT:      -8.2      1.390      1.902
REMARK  Name = 
REMARK  5 active torsions:
REMARK  status: ('A' for Active; 'I' for Inactive)
REMARK    1  A    between atoms: C_1  and  C_2
REMARK    2  A    between atoms: C_4  and  C_5
REMARK    3  A    between atoms: N_7  and  C_8
REMARK    4  A    between atoms: C_8  and  C_9
REMARK    5  A    between atoms: N_21  and  C_22
REMARK                            x       y       z     vdW  Elec       q    Type
REMARK                         _______ _______ _______ _____ _____    ______ ____
ROOT
ATOM      1  C   UNL     1       1.411   9.329  19.236  0.00  0.00    +0.000 C 
ATOM      2  O   UNL     1       1.068   9.358  20.419  0.00  0.00    +0.000 OA
ATOM      3  N   UNL     1       1.103  10.323  18.335  0.00  0.00    +0.000 N 
ATOM      4  H   UNL     1       1.467  10.206  17.394  0.00  0.00    +0.000 HD
ENDROOT
BRANCH   1   8
ATOM      5  C   UNL     1       4.617   6.594  16.414  0.00  0.00    +0.000 C 
ATOM      6  C   UNL     1       3.661   7.037  17.465  0.00  0.00    +0.000 A 
ATOM      7  C   UNL     1       3.251   8.325  17.740  0.00  0.00    +0.000 A 
ATOM      8  C   UNL     1       2.199   8.213  18.674  0.00  0.00    +0.000 A 
ATOM      9  N   UNL     1       1.971   6.924  18.984  0.00  0.00    +0.000 NA
ATOM     10  N   UNL     1       2.907   6.206  18.292  0.00  0.00    +0.000 N 
BRANCH  10  11
ATOM     11  C   UNL     1       2.980   4.799  18.462  0.00  0.00    +0.000 A 
ATOM     12  C   UNL     1       4.082   4.218  19.095  0.00  0.00    +0.000 A 
ATOM     13  F   UNL     1       5.090   4.956  19.580  0.00  0.00    +0.000 F 
ATOM     14  C   UNL     1       4.144   2.836  19.311  0.00  0.00    +0.000 A 
ATOM     15  C   UNL     1       3.105   2.011  18.888  0.00  0.00    +0.000 A 
ATOM     16  C   UNL     1       2.020   2.573  18.222  0.00  0.00    +0.000 A 
ATOM     17  C   UNL     1       1.973   3.951  18.000  0.00  0.00    +0.000 A 
ATOM     18  F   UNL     1       0.974   4.398  17.231  0.00  0.00    +0.000 F 
ENDBRANCH  10  11
ENDBRANCH   1   8
BRANCH   3  19
ATOM     19  C   UNL     1       0.334  11.498  18.682  0.00  0.00    +0.000 C 
BRANCH  19  20
ATOM     20  C   UNL     1      -1.150  11.278  18.511  0.00  0.00    +0.000 A 
ATOM     21  C   UNL     1      -1.612  10.403  17.517  0.00  0.00    +0.000 A 
ATOM     22  C   UNL     1      -2.977  10.161  17.359  0.00  0.00    +0.000 A 
ATOM     23  C   UNL     1      -3.902  10.831  18.154  0.00  0.00    +0.000 A 
ATOM     24  C   UNL     1      -3.467  11.741  19.119  0.00  0.00    +0.000 A 
ATOM     25  C   UNL     1      -2.094  11.947  19.311  0.00  0.00    +0.000 A 
ATOM     26  O   UNL     1      -4.326  12.376  19.976  0.00  0.00    +0.000 OA
ATOM     27  C   UNL     1      -5.269  13.213  19.300  0.00  0.00    +0.000 C 
ATOM     28  C   UNL     1      -6.446  12.444  18.710  0.00  0.00    +0.000 C 
ATOM     29  C   UNL     1      -6.009  11.561  17.555  0.00  0.00    +0.000 C 
ATOM     30  O   UNL     1      -5.212  10.470  18.004  0.00  0.00    +0.000 OA
ENDBRANCH  19  20
ENDBRANCH   3  19
TORSDOF 4
ENDMDL
MODEL 5
REMARK VINA RESULT:      -8.2      1.478      1.516
REMARK  Name = 
REMARK  5 active torsions:
REMARK  status: ('A' for Active; 'I' for Inactive)
REMARK    1  A    between atoms: C_1  and  C_2
REMARK    2  A    between atoms: C_4  and  C_5
REMARK    3  A    between atoms: N_7  and  C_8
REMARK    4  A    between atoms: C_8  and  C_9
REMARK    5  A    between atoms: N_21  and  C_22
REMARK                            x       y       z     vdW  Elec       q    Type
REMARK                         _______ _______ _______ _____ _____    ______ ____
ROOT
ATOM      1  C   UNL     1       1.416   9.200  19.269  0.00  0.00    +0.000 C 
ATOM      2  O   UNL     1       0.976   9.134  20.417  0.00  0.00    +0.000 OA
ATOM      3  N   UNL     1       1.199  10.276  18.437  0.00  0.00    +0.000 N 
ATOM      4  H   UNL     1       1.639  10.232  17.521  0.00  0.00    +0.000 HD
ENDROOT
BRANCH   1   8
ATOM      5  C   UNL     1       4.684   6.620  16.372  0.00  0.00    +0.000 C 
ATOM      6  C   UNL     1       3.718   7.012  17.435  0.00  0.00    +0.000 A 
ATOM      7  C   UNL     1       3.278   8.281  17.745  0.00  0.00    +0.000 A 
ATOM      8  C   UNL     1       2.229   8.119  18.675  0.00  0.00    +0.000 A 
ATOM      9  N   UNL     1       2.031   6.817  18.949  0.00  0.00    +0.000 NA
ATOM     10  N   UNL     1       2.984   6.141  18.238  0.00  0.00    +0.000 N 
BRANCH  10  11
ATOM     11  C   UNL     1       3.089   4.732  18.368  0.00  0.00    +0.000 A 
ATOM     12  C   UNL     1       2.097   3.896  17.849  0.00  0.00    +0.000 A 
ATOM     13  F   UNL     1       1.032   4.382  17.196  0.00  0.00    +0.000 F 
ATOM     14  C   UNL     1       2.214   2.503  17.929  0.00  0.00    +0.000 A 
ATOM     15  C   UNL     1       3.323   1.923  18.539  0.00  0.00    +0.000 A 
ATOM     16  C   UNL     1       4.298   2.745  19.095  0.00  0.00    +0.000 A 
ATOM     17  C   UNL     1       4.168   4.133  19.021  0.00  0.00    +0.000 A 
ATOM     18  F   UNL     1       5.068   4.855  19.699  0.00  0.00    +0.000 F 
ENDBRANCH  10  11
ENDBRANCH   1   8
BRANCH   3  19
ATOM     19  C   UNL     1       0.424  11.434  18.823  0.00  0.00    +0.000 C 
BRANCH  19  20
ATOM     20  C   UNL     1      -1.053  11.237  18.577  0.00  0.00    +0.000 A 
ATOM     21  C   UNL     1      -1.479  10.437  17.507  0.00  0.00    +0.000 A 
ATOM     22  C   UNL     1      -2.837  10.217  17.278  0.00  0.00    +0.000 A 
ATOM     23  C   UNL     1      -3.791  10.836  18.081  0.00  0.00    +0.000 A 
ATOM     24  C   UNL     1      -3.390  11.672  19.124  0.00  0.00    +0.000 A 
ATOM     25  C   UNL     1      -2.026  11.855  19.385  0.00  0.00    +0.000 A 
ATOM     26  O   UNL     1      -4.280  12.252  19.989  0.00  0.00    +0.000 OA
ATOM     27  C   UNL     1      -5.192  13.140  19.337  0.00  0.00    +0.000 C 
ATOM     28  C   UNL     1      -6.348  12.424  18.649  0.00  0.00    +0.000 C 
ATOM     29  C   UNL     1      -5.869  11.621  17.452  0.00  0.00    +0.000 C 
ATOM     30  O   UNL     1      -5.094  10.495  17.854  0.00  0.00    +0.000 OA
ENDBRANCH  19  20
ENDBRANCH   3  19
TORSDOF 4
ENDMDL
MODEL 6
REMARK VINA RESULT:      -8.1      0.133      1.543
REMARK  Name = 
REMARK  5 active torsions:
REMARK  status: ('A' for Active; 'I' for Inactive)
REMARK    1  A    between atoms: C_1  and  C_2
REMARK    2  A    between atoms: C_4  and  C_5
REMARK    3  A    between atoms: N_7  and  C_8
REMARK    4  A    between atoms: C_8  and  C_9
REMARK    5  A    between atoms: N_21  and  C_22
REMARK                            x       y       z     vdW  Elec       q    Type
REMARK                         _______ _______ _______ _____ _____    ______ ____
ROOT
ATOM      1  C   UNL     1       1.939   9.618  18.082  0.00  0.00    +0.000 C 
ATOM      2  O   UNL     1       2.551  10.488  17.462  0.00  0.00    +0.000 OA
ATOM      3  N   UNL     1       0.780   9.863  18.785  0.00  0.00    +0.000 N 
ATOM      4  H   UNL     1       0.347   9.060  19.232  0.00  0.00    +0.000 HD
ENDROOT
BRANCH   1   8
ATOM      5  C   UNL     1       4.539   5.338  17.279  0.00  0.00    +0.000 C 
ATOM      6  C   UNL     1       3.591   6.355  17.811  0.00  0.00    +0.000 A 
ATOM      7  C   UNL     1       3.598   7.714  17.578  0.00  0.00    +0.000 A 
ATOM      8  C   UNL     1       2.398   8.215  18.126  0.00  0.00    +0.000 A 
ATOM      9  N   UNL     1       1.683   7.226  18.691  0.00  0.00    +0.000 NA
ATOM     10  N   UNL     1       2.441   6.096  18.554  0.00  0.00    +0.000 N 
BRANCH  10  11
ATOM     11  C   UNL     1       1.990   4.874  19.118  0.00  0.00    +0.000 A 
ATOM     12  C   UNL     1       2.039   4.671  20.499  0.00  0.00    +0.000 A 
ATOM     13  F   UNL     1       2.485   5.616  21.339  0.00  0.00    +0.000 F 
ATOM     14  C   UNL     1       1.553   3.490  21.072  0.00  0.00    +0.000 A 
ATOM     15  C   UNL     1       1.018   2.486  20.268  0.00  0.00    +0.000 A 
ATOM     16  C   UNL     1       1.000   2.660  18.888  0.00  0.00    +0.000 A 
ATOM     17  C   UNL     1       1.498   3.837  18.325  0.00  0.00    +0.000 A 
ATOM     18  F   UNL     1       1.578   3.872  16.990  0.00  0.00    +0.000 F 
ENDBRANCH  10  11
ENDBRANCH   1   8
BRANCH   3  19
ATOM     19  C   UNL     1       0.168  11.170  18.874  0.00  0.00    +0.000 C 
BRANCH  19  20
ATOM     20  C   UNL     1      -1.316  11.123  18.596  0.00  0.00    +0.000 A 
ATOM     21  C   UNL     1      -1.794  10.400  17.492  0.00  0.00    +0.000 A 
ATOM     22  C   UNL     1      -3.162  10.318  17.233  0.00  0.00    +0.000 A 
ATOM     23  C   UNL     1      -4.068  11.002  18.037  0.00  0.00    +0.000 A 
ATOM     24  C   UNL     1      -3.612  11.765  19.114  0.00  0.00    +0.000 A 
ATOM     25  C   UNL     1      -2.242  11.807  19.405  0.00  0.00    +0.000 A 
ATOM     26  O   UNL     1      -4.461  12.401  19.981  0.00  0.00    +0.000 OA
ATOM     27  C   UNL     1      -5.270  13.392  19.341  0.00  0.00    +0.000 C 
ATOM     28  C   UNL     1      -6.473  12.811  18.609  0.00  0.00    +0.000 C 
ATOM     29  C   UNL     1      -6.048  12.002  17.396  0.00  0.00    +0.000 C 
ATOM     30  O   UNL     1      -5.394  10.795  17.776  0.00  0.00    +0.000 OA
ENDBRANCH  19  20
ENDBRANCH   3  19
TORSDOF 4
ENDMDL
MODEL 7
REMARK VINA RESULT:      -8.1      1.599      2.511
REMARK  Name = 
REMARK  5 active torsions:
REMARK  status: ('A' for Active; 'I' for Inactive)
REMARK    1  A    between atoms: C_1  and  C_2
REMARK    2  A    between atoms: C_4  and  C_5
REMARK    3  A    between atoms: N_7  and  C_8
REMARK    4  A    between atoms: C_8  and  C_9
REMARK    5  A    between atoms: N_21  and  C_22
REMARK                            x       y       z     vdW  Elec       q    Type
REMARK                         _______ _______ _______ _____ _____    ______ ____
ROOT
ATOM      1  C   UNL     1       1.111   9.160  20.146  0.00  0.00    +0.000 C 
ATOM      2  O   UNL     1       1.018   9.779  21.206  0.00  0.00    +0.000 OA
ATOM      3  N   UNL     1       0.772   9.697  18.924  0.00  0.00    +0.000 N 
ATOM      4  H   UNL     1       0.921   9.102  18.114  0.00  0.00    +0.000 HD
ENDROOT
BRANCH   1   8
ATOM      5  C   UNL     1       2.159   4.333  21.301  0.00  0.00    +0.000 C 
ATOM      6  C   UNL     1       2.002   5.629  20.585  0.00  0.00    +0.000 A 
ATOM      7  C   UNL     1       1.286   6.735  20.995  0.00  0.00    +0.000 A 
ATOM      8  C   UNL     1       1.605   7.769  20.089  0.00  0.00    +0.000 A 
ATOM      9  N   UNL     1       2.461   7.332  19.148  0.00  0.00    +0.000 NA
ATOM     10  N   UNL     1       2.657   6.005  19.414  0.00  0.00    +0.000 N 
BRANCH  10  11
ATOM     11  C   UNL     1       3.466   5.226  18.546  0.00  0.00    +0.000 A 
ATOM     12  C   UNL     1       2.884   4.447  17.543  0.00  0.00    +0.000 A 
ATOM     13  F   UNL     1       1.558   4.420  17.347  0.00  0.00    +0.000 F 
ATOM     14  C   UNL     1       3.675   3.712  16.651  0.00  0.00    +0.000 A 
ATOM     15  C   UNL     1       5.063   3.739  16.755  0.00  0.00    +0.000 A 
ATOM     16  C   UNL     1       5.653   4.480  17.774  0.00  0.00    +0.000 A 
ATOM     17  C   UNL     1       4.856   5.199  18.666  0.00  0.00    +0.000 A 
ATOM     18  F   UNL     1       5.484   5.770  19.702  0.00  0.00    +0.000 F 
ENDBRANCH  10  11
ENDBRANCH   1   8
BRANCH   3  19
ATOM     19  C   UNL     1       0.262  11.041  18.762  0.00  0.00    +0.000 C 
BRANCH  19  20
ATOM     20  C   UNL     1      -1.229  11.058  18.522  0.00  0.00    +0.000 A 
ATOM     21  C   UNL     1      -1.760  10.403  17.401  0.00  0.00    +0.000 A 
ATOM     22  C   UNL     1      -3.135  10.380  17.174  0.00  0.00    +0.000 A 
ATOM     23  C   UNL     1      -3.997  11.057  18.032  0.00  0.00    +0.000 A 
ATOM     24  C   UNL     1      -3.487  11.754  19.129  0.00  0.00    +0.000 A 
ATOM     25  C   UNL     1      -2.110  11.736  19.385  0.00  0.00    +0.000 A 
ATOM     26  O   UNL     1      -4.290  12.379  20.046  0.00  0.00    +0.000 OA
ATOM     27  C   UNL     1      -5.079  13.426  19.472  0.00  0.00    +0.000 C 
ATOM     28  C   UNL     1      -6.321  12.920  18.747  0.00  0.00    +0.000 C 
ATOM     29  C   UNL     1      -5.955  12.154  17.489  0.00  0.00    +0.000 C 
ATOM     30  O   UNL     1      -5.335  10.909  17.797  0.00  0.00    +0.000 OA
ENDBRANCH  19  20
ENDBRANCH   3  19
TORSDOF 4
ENDMDL
MODEL 8
REMARK VINA RESULT:      -8.0      2.486      3.986
REMARK  Name = 
REMARK  5 active torsions:
REMARK  status: ('A' for Active; 'I' for Inactive)
REMARK    1  A    between atoms: C_1  and  C_2
REMARK    2  A    between atoms: C_4  and  C_5
REMARK    3  A    between atoms: N_7  and  C_8
REMARK    4  A    between atoms: C_8  and  C_9
REMARK    5  A    between atoms: N_21  and  C_22
REMARK                            x       y       z     vdW  Elec       q    Type
REMARK                         _______ _______ _______ _____ _____    ______ ____
ROOT
ATOM      1  C   UNL     1       1.732   9.552  18.012  0.00  0.00    +0.000 C 
ATOM      2  O   UNL     1       2.297  10.522  17.505  0.00  0.00    +0.000 OA
ATOM      3  N   UNL     1       0.418   9.572  18.422  0.00  0.00    +0.000 N 
ATOM      4  H   UNL     1       0.051   8.701  18.798  0.00  0.00    +0.000 HD
ENDROOT
BRANCH   1   8
ATOM      5  C   UNL     1       3.350   5.192  20.038  0.00  0.00    +0.000 C 
ATOM      6  C   UNL     1       3.074   6.318  19.103  0.00  0.00    +0.000 A 
ATOM      7  C   UNL     1       2.175   7.349  19.271  0.00  0.00    +0.000 A 
ATOM      8  C   UNL     1       2.423   8.264  18.225  0.00  0.00    +0.000 A 
ATOM      9  N   UNL     1       3.414   7.822  17.431  0.00  0.00    +0.000 NA
ATOM     10  N   UNL     1       3.772   6.601  17.931  0.00  0.00    +0.000 N 
BRANCH  10  11
ATOM     11  C   UNL     1       4.760   5.831  17.263  0.00  0.00    +0.000 A 
ATOM     12  C   UNL     1       4.448   4.570  16.749  0.00  0.00    +0.000 A 
ATOM     13  F   UNL     1       3.214   4.052  16.843  0.00  0.00    +0.000 F 
ATOM     14  C   UNL     1       5.400   3.821  16.047  0.00  0.00    +0.000 A 
ATOM     15  C   UNL     1       6.686   4.320  15.857  0.00  0.00    +0.000 A 
ATOM     16  C   UNL     1       7.021   5.557  16.397  0.00  0.00    +0.000 A 
ATOM     17  C   UNL     1       6.068   6.291  17.107  0.00  0.00    +0.000 A 
ATOM     18  F   UNL     1       6.502   7.400  17.717  0.00  0.00    +0.000 F 
ENDBRANCH  10  11
ENDBRANCH   1   8
BRANCH   3  19
ATOM     19  C   UNL     1      -0.432  10.736  18.309  0.00  0.00    +0.000 C 
BRANCH  19  20
ATOM     20  C   UNL     1      -0.922  11.216  19.654  0.00  0.00    +0.000 A 
ATOM     21  C   UNL     1      -0.335  10.715  20.826  0.00  0.00    +0.000 A 
ATOM     22  C   UNL     1      -0.752  11.165  22.079  0.00  0.00    +0.000 A 
ATOM     23  C   UNL     1      -1.796  12.078  22.183  0.00  0.00    +0.000 A 
ATOM     24  C   UNL     1      -2.425  12.556  21.032  0.00  0.00    +0.000 A 
ATOM     25  C   UNL     1      -1.974  12.143  19.771  0.00  0.00    +0.000 A 
ATOM     26  O   UNL     1      -3.409  13.508  21.068  0.00  0.00    +0.000 OA
ATOM     27  C   UNL     1      -4.570  13.081  21.787  0.00  0.00    +0.000 C 
ATOM     28  C   UNL     1      -4.421  13.195  23.300  0.00  0.00    +0.000 C 
ATOM     29  C   UNL     1      -3.405  12.200  23.834  0.00  0.00    +0.000 C 
ATOM     30  O   UNL     1      -2.081  12.541  23.437  0.00  0.00    +0.000 OA
ENDBRANCH  19  20
ENDBRANCH   3  19
TORSDOF 4
ENDMDL
MODEL 9
REMARK VINA RESULT:      -8.0      1.843      3.065
REMARK  Name = 
REMARK  5 active torsions:
REMARK  status: ('A' for Active; 'I' for Inactive)
REMARK    1  A    between atoms: C_1  and  C_2
REMARK    2  A    between atoms: C_4  and  C_5
REMARK    3  A    between atoms: N_7  and  C_8
REMARK    4  A    between atoms: C_8  and  C_9
REMARK    5  A    between atoms: N_21  and  C_22
REMARK                            x       y       z     vdW  Elec       q    Type
REMARK                         _______ _______ _______ _____ _____    ______ ____
ROOT
ATOM      1  C   UNL     1       1.792   9.439  17.893  0.00  0.00    +0.000 C 
ATOM      2  O   UNL     1       2.472  10.388  17.504  0.00  0.00    +0.000 OA
ATOM      3  N   UNL     1       0.460   9.549  18.225  0.00  0.00    +0.000 N 
ATOM      4  H   UNL     1      -0.007   8.690  18.503  0.00  0.00    +0.000 HD
ENDROOT
BRANCH   1   8
ATOM      5  C   UNL     1       4.798   5.368  17.552  0.00  0.00    +0.000 C 
ATOM      6  C   UNL     1       3.715   6.317  17.931  0.00  0.00    +0.000 A 
ATOM      7  C   UNL     1       3.644   7.666  17.657  0.00  0.00    +0.000 A 
ATOM      8  C   UNL     1       2.350   8.079  18.038  0.00  0.00    +0.000 A 
ATOM      9  N   UNL     1       1.650   7.048  18.543  0.00  0.00    +0.000 NA
ATOM     10  N   UNL     1       2.505   5.981  18.536  0.00  0.00    +0.000 N 
BRANCH  10  11
ATOM     11  C   UNL     1       2.085   4.740  19.080  0.00  0.00    +0.000 A 
ATOM     12  C   UNL     1       1.974   4.573  20.463  0.00  0.00    +0.000 A 
ATOM     13  F   UNL     1       2.234   5.571  21.319  0.00  0.00    +0.000 F 
ATOM     14  C   UNL     1       1.514   3.369  21.010  0.00  0.00    +0.000 A 
ATOM     15  C   UNL     1       1.166   2.307  20.179  0.00  0.00    +0.000 A 
ATOM     16  C   UNL     1       1.309   2.447  18.803  0.00  0.00    +0.000 A 
ATOM     17  C   UNL     1       1.780   3.647  18.267  0.00  0.00    +0.000 A 
ATOM     18  F   UNL     1       2.026   3.659  16.952  0.00  0.00    +0.000 F 
ENDBRANCH  10  11
ENDBRANCH   1   8
BRANCH   3  19
ATOM     19  C   UNL     1      -0.274  10.794  18.159  0.00  0.00    +0.000 C 
BRANCH  19  20
ATOM     20  C   UNL     1      -0.762  11.238  19.517  0.00  0.00    +0.000 A 
ATOM     21  C   UNL     1      -0.170  10.712  20.675  0.00  0.00    +0.000 A 
ATOM     22  C   UNL     1      -0.584  11.129  21.940  0.00  0.00    +0.000 A 
ATOM     23  C   UNL     1      -1.632  12.035  22.069  0.00  0.00    +0.000 A 
ATOM     24  C   UNL     1      -2.267  12.538  20.931  0.00  0.00    +0.000 A 
ATOM     25  C   UNL     1      -1.818  12.158  19.660  0.00  0.00    +0.000 A 
ATOM     26  O   UNL     1      -3.255  13.484  20.994  0.00  0.00    +0.000 OA
ATOM     27  C   UNL     1      -4.412  13.035  21.706  0.00  0.00    +0.000 C 
ATOM     28  C   UNL     1      -4.259  13.112  23.220  0.00  0.00    +0.000 C 
ATOM     29  C   UNL     1      -3.237  12.109  23.727  0.00  0.00    +0.000 C 
ATOM     30  O   UNL     1      -1.915  12.466  23.334  0.00  0.00    +0.000 OA
ENDBRANCH  19  20
ENDBRANCH   3  19
TORSDOF 4
ENDMDL
