MODEL 1
REMARK VINA RESULT:      -9.1      0.000      0.000
REMARK  Name = 
REMARK  5 active torsions:
REMARK  status: ('A' for Active; 'I' for Inactive)
REMARK    1  A    between atoms: C_1  and  C_2
REMARK    2  A    between atoms: C_4  and  C_5
REMARK    3  A    between atoms: C_9  and  N_10
REMARK    4  A    between atoms: C_11  and  C_13
REMARK    5  A    between atoms: C_25  and  C_26
REMARK                            x       y       z     vdW  Elec       q    Type
REMARK                         _______ _______ _______ _____ _____    ______ ____
ROOT
ATOM      1  N   UNL     1       7.075   7.765  17.193  0.00  0.00    +0.000 N 
ATOM      2  C   UNL     1       8.044   8.033  18.154  0.00  0.00    +0.000 C 
ATOM      3  O   UNL     1       8.541   7.224  18.932  0.00  0.00    +0.000 OA
ATOM      4  H   UNL     1       6.744   8.534  16.626  0.00  0.00    +0.000 HD
ENDROOT
BRANCH   2   5
ATOM      5  C   UNL     1       8.504   9.445  18.295  0.00  0.00    +0.000 A 
ATOM      6  C   UNL     1       7.901  10.391  17.456  0.00  0.00    +0.000 A 
ATOM      7  C   UNL     1       8.261  11.738  17.526  0.00  0.00    +0.000 A 
ATOM      8  C   UNL     1       9.192  12.190  18.440  0.00  0.00    +0.000 A 
ATOM      9  N   UNL     1       9.499  13.498  18.449  0.00  0.00    +0.000 NA
ATOM     10  C   UNL     1      10.381  13.938  19.369  0.00  0.00    +0.000 A 
ATOM     11  C   UNL     1      10.976  13.119  20.310  0.00  0.00    +0.000 A 
ATOM     12  C   UNL     1      10.667  11.761  20.288  0.00  0.00    +0.000 A 
ATOM     13  C   UNL     1       9.771  11.256  19.330  0.00  0.00    +0.000 A 
ATOM     14  C   UNL     1       9.432   9.880  19.246  0.00  0.00    +0.000 A 
ENDBRANCH   2   5
BRANCH   1  19
ATOM     15  C   UNL     1       4.779   4.838  17.652  0.00  0.00    +0.000 A 
ATOM     16  C   UNL     1       5.142   4.052  16.546  0.00  0.00    +0.000 A 
ATOM     17  C   UNL     1       6.140   4.463  15.675  0.00  0.00    +0.000 A 
ATOM     18  C   UNL     1       6.788   5.677  15.889  0.00  0.00    +0.000 A 
ATOM     19  C   UNL     1       6.449   6.503  16.967  0.00  0.00    +0.000 A 
ATOM     20  C   UNL     1       5.447   6.064  17.860  0.00  0.00    +0.000 A 
BRANCH  15  24
ATOM     21  C   UNL     1       2.085   3.499  21.543  0.00  0.00    +0.000 C 
ATOM     22  C   UNL     1       2.490   3.684  20.135  0.00  0.00    +0.000 A 
ATOM     23  N   UNL     1       3.620   4.391  19.818  0.00  0.00    +0.000 NA
ATOM     24  C   UNL     1       3.703   4.320  18.501  0.00  0.00    +0.000 A 
ATOM     25  O   UNL     1       2.677   3.622  17.916  0.00  0.00    +0.000 OA
ATOM     26  C   UNL     1       1.908   3.213  18.978  0.00  0.00    +0.000 A 
ATOM     27  C   UNL     1       0.717   2.392  18.706  0.00  0.00    +0.000 C 
ENDBRANCH  15  24
ENDBRANCH   1  19
TORSDOF 3
ENDMDL
MODEL 2
REMARK VINA RESULT:      -9.0      0.672      1.198
REMARK  Name = 
REMARK  5 active torsions:
REMARK  status: ('A' for Active; 'I' for Inactive)
REMARK    1  A    between atoms: C_1  and  C_2
REMARK    2  A    between atoms: C_4  and  C_5
REMARK    3  A    between atoms: C_9  and  N_10
REMARK    4  A    between atoms: C_11  and  C_13
REMARK    5  A    between atoms: C_25  and  C_26
REMARK                            x       y       z     vdW  Elec       q    Type
REMARK                         _______ _______ _______ _____ _____    ______ ____
ROOT
ATOM      1  N   UNL     1       7.201   7.748  17.117  0.00  0.00    +0.000 N 
ATOM      2  C   UNL     1       8.086   8.026  18.153  0.00  0.00    +0.000 C 
ATOM      3  O   UNL     1       8.526   7.223  18.970  0.00  0.00    +0.000 OA
ATOM      4  H   UNL     1       6.909   8.513  16.524  0.00  0.00    +0.000 HD
ENDROOT
BRANCH   2   5
ATOM      5  C   UNL     1       8.517   9.443  18.330  0.00  0.00    +0.000 A 
ATOM      6  C   UNL     1       7.946  10.388  17.467  0.00  0.00    +0.000 A 
ATOM      7  C   UNL     1       8.282  11.739  17.567  0.00  0.00    +0.000 A 
ATOM      8  C   UNL     1       9.156  12.196  18.534  0.00  0.00    +0.000 A 
ATOM      9  N   UNL     1       9.443  13.509  18.570  0.00  0.00    +0.000 NA
ATOM     10  C   UNL     1      10.268  13.952  19.540  0.00  0.00    +0.000 A 
ATOM     11  C   UNL     1      10.823  13.134  20.504  0.00  0.00    +0.000 A 
ATOM     12  C   UNL     1      10.535  11.771  20.455  0.00  0.00    +0.000 A 
ATOM     13  C   UNL     1       9.700  11.263  19.446  0.00  0.00    +0.000 A 
ATOM     14  C   UNL     1       9.386   9.883  19.333  0.00  0.00    +0.000 A 
ENDBRANCH   2   5
BRANCH   1  19
ATOM     15  C   UNL     1       4.943   4.771  17.423  0.00  0.00    +0.000 A 
ATOM     16  C   UNL     1       5.369   4.012  16.321  0.00  0.00    +0.000 A 
ATOM     17  C   UNL     1       6.398   4.456  15.502  0.00  0.00    +0.000 A 
ATOM     18  C   UNL     1       7.012   5.678  15.766  0.00  0.00    +0.000 A 
ATOM     19  C   UNL     1       6.610   6.479  16.842  0.00  0.00    +0.000 A 
ATOM     20  C   UNL     1       5.578   6.005  17.681  0.00  0.00    +0.000 A 
BRANCH  15  24
ATOM     21  C   UNL     1       0.803   2.485  18.774  0.00  0.00    +0.000 C 
ATOM     22  C   UNL     1       2.046   3.276  18.874  0.00  0.00    +0.000 A 
ATOM     23  N   UNL     1       2.867   3.433  17.789  0.00  0.00    +0.000 NA
ATOM     24  C   UNL     1       3.840   4.219  18.214  0.00  0.00    +0.000 A 
ATOM     25  O   UNL     1       3.727   4.581  19.533  0.00  0.00    +0.000 OA
ATOM     26  C   UNL     1       2.566   3.974  19.943  0.00  0.00    +0.000 A 
ATOM     27  C   UNL     1       2.116   4.185  21.329  0.00  0.00    +0.000 C 
ENDBRANCH  15  24
ENDBRANCH   1  19
TORSDOF 3
ENDMDL
MODEL 3
REMARK VINA RESULT:      -8.8      5.063      7.377
REMARK  Name = 
REMARK  5 active torsions:
REMARK  status: ('A' for Active; 'I' for Inactive)
REMARK    1  A    between atoms: C_1  and  C_2
REMARK    2  A    between atoms: C_4  and  C_5
REMARK    3  A    between atoms: C_9  and  N_10
REMARK    4  A    between atoms: C_11  and  C_13
REMARK    5  A    between atoms: C_25  and  C_26
REMARK                            x       y       z     vdW  Elec       q    Type
REMARK                         _______ _______ _______ _____ _____    ______ ____
ROOT
ATOM      1  N   UNL     1       4.402   6.909  17.692  0.00  0.00    +0.000 N 
ATOM      2  C   UNL     1       3.259   6.564  18.407  0.00  0.00    +0.000 C 
ATOM      3  O   UNL     1       2.883   5.427  18.674  0.00  0.00    +0.000 OA
ATOM      4  H   UNL     1       4.584   7.890  17.533  0.00  0.00    +0.000 HD
ENDROOT
BRANCH   2   5
ATOM      5  C   UNL     1       2.370   7.673  18.860  0.00  0.00    +0.000 A 
ATOM      6  C   UNL     1       1.959   8.591  17.884  0.00  0.00    +0.000 A 
ATOM      7  C   UNL     1       1.118   9.654  18.216  0.00  0.00    +0.000 A 
ATOM      8  C   UNL     1       0.635   9.820  19.499  0.00  0.00    +0.000 A 
ATOM      9  N   UNL     1      -0.165  10.870  19.752  0.00  0.00    +0.000 NA
ATOM     10  C   UNL     1      -0.662  11.004  20.998  0.00  0.00    +0.000 A 
ATOM     11  C   UNL     1      -0.404  10.115  22.024  0.00  0.00    +0.000 A 
ATOM     12  C   UNL     1       0.438   9.036  21.762  0.00  0.00    +0.000 A 
ATOM     13  C   UNL     1       0.997   8.872  20.483  0.00  0.00    +0.000 A 
ATOM     14  C   UNL     1       1.877   7.804  20.161  0.00  0.00    +0.000 A 
ENDBRANCH   2   5
BRANCH   1  19
ATOM     15  C   UNL     1       5.964   4.605  15.181  0.00  0.00    +0.000 A 
ATOM     16  C   UNL     1       7.132   4.232  15.867  0.00  0.00    +0.000 A 
ATOM     17  C   UNL     1       7.393   4.708  17.144  0.00  0.00    +0.000 A 
ATOM     18  C   UNL     1       6.494   5.579  17.754  0.00  0.00    +0.000 A 
ATOM     19  C   UNL     1       5.326   5.994  17.103  0.00  0.00    +0.000 A 
ATOM     20  C   UNL     1       5.059   5.485  15.814  0.00  0.00    +0.000 A 
BRANCH  15  24
ATOM     21  C   UNL     1       3.997   3.050  10.950  0.00  0.00    +0.000 C 
ATOM     22  C   UNL     1       5.011   3.334  11.985  0.00  0.00    +0.000 A 
ATOM     23  N   UNL     1       4.679   4.025  13.121  0.00  0.00    +0.000 NA
ATOM     24  C   UNL     1       5.791   4.058  13.833  0.00  0.00    +0.000 A 
ATOM     25  O   UNL     1       6.858   3.444  13.227  0.00  0.00    +0.000 OA
ATOM     26  C   UNL     1       6.341   2.978  12.043  0.00  0.00    +0.000 A 
ATOM     27  C   UNL     1       7.226   2.221  11.141  0.00  0.00    +0.000 C 
ENDBRANCH  15  24
ENDBRANCH   1  19
TORSDOF 3
ENDMDL
MODEL 4
REMARK VINA RESULT:      -8.6      5.001      7.330
REMARK  Name = 
REMARK  5 active torsions:
REMARK  status: ('A' for Active; 'I' for Inactive)
REMARK    1  A    between atoms: C_1  and  C_2
REMARK    2  A    between atoms: C_4  and  C_5
REMARK    3  A    between atoms: C_9  and  N_10
REMARK    4  A    between atoms: C_11  and  C_13
REMARK    5  A    between atoms: C_25  and  C_26
REMARK                            x       y       z     vdW  Elec       q    Type
REMARK                         _______ _______ _______ _____ _____    ______ ____
ROOT
ATOM      1  N   UNL     1       4.390   6.993  17.771  0.00  0.00    +0.000 N 
ATOM      2  C   UNL     1       3.224   6.662  18.453  0.00  0.00    +0.000 C 
ATOM      3  O   UNL     1       2.853   5.532  18.754  0.00  0.00    +0.000 OA
ATOM      4  H   UNL     1       4.565   7.970  17.577  0.00  0.00    +0.000 HD
ENDROOT
BRANCH   2   5
ATOM      5  C   UNL     1       2.302   7.776  18.823  0.00  0.00    +0.000 A 
ATOM      6  C   UNL     1       1.857   8.598  17.780  0.00  0.00    +0.000 A 
ATOM      7  C   UNL     1       0.983   9.657  18.031  0.00  0.00    +0.000 A 
ATOM      8  C   UNL     1       0.503   9.911  19.301  0.00  0.00    +0.000 A 
ATOM      9  N   UNL     1      -0.329  10.952  19.475  0.00  0.00    +0.000 NA
ATOM     10  C   UNL     1      -0.822  11.172  20.711  0.00  0.00    +0.000 A 
ATOM     11  C   UNL     1      -0.529  10.378  21.802  0.00  0.00    +0.000 A 
ATOM     12  C   UNL     1       0.346   9.308  21.621  0.00  0.00    +0.000 A 
ATOM     13  C   UNL     1       0.902   9.058  20.356  0.00  0.00    +0.000 A 
ATOM     14  C   UNL     1       1.813   7.996  20.114  0.00  0.00    +0.000 A 
ENDBRANCH   2   5
BRANCH   1  19
ATOM     15  C   UNL     1       6.088   4.616  15.421  0.00  0.00    +0.000 A 
ATOM     16  C   UNL     1       7.228   4.285  16.172  0.00  0.00    +0.000 A 
ATOM     17  C   UNL     1       7.427   4.812  17.440  0.00  0.00    +0.000 A 
ATOM     18  C   UNL     1       6.491   5.694  17.976  0.00  0.00    +0.000 A 
ATOM     19  C   UNL     1       5.349   6.069  17.259  0.00  0.00    +0.000 A 
ATOM     20  C   UNL     1       5.146   5.508  15.980  0.00  0.00    +0.000 A 
BRANCH  15  24
ATOM     21  C   UNL     1       7.167   2.612  11.062  0.00  0.00    +0.000 C 
ATOM     22  C   UNL     1       6.368   3.172  12.170  0.00  0.00    +0.000 A 
ATOM     23  N   UNL     1       6.960   3.516  13.357  0.00  0.00    +0.000 NA
ATOM     24  C   UNL     1       5.981   4.017  14.089  0.00  0.00    +0.000 A 
ATOM     25  O   UNL     1       4.759   4.008  13.464  0.00  0.00    +0.000 OA
ATOM     26  C   UNL     1       5.024   3.469  12.229  0.00  0.00    +0.000 A 
ATOM     27  C   UNL     1       3.916   3.344  11.267  0.00  0.00    +0.000 C 
ENDBRANCH  15  24
ENDBRANCH   1  19
TORSDOF 3
ENDMDL
MODEL 5
REMARK VINA RESULT:      -8.5      0.950      1.962
REMARK  Name = 
REMARK  5 active torsions:
REMARK  status: ('A' for Active; 'I' for Inactive)
REMARK    1  A    between atoms: C_1  and  C_2
REMARK    2  A    between atoms: C_4  and  C_5
REMARK    3  A    between atoms: C_9  and  N_10
REMARK    4  A    between atoms: C_11  and  C_13
REMARK    5  A    between atoms: C_25  and  C_26
REMARK                            x       y       z     vdW  Elec       q    Type
REMARK                         _______ _______ _______ _____ _____    ______ ____
ROOT
ATOM      1  N   UNL     1       7.001   7.657  17.092  0.00  0.00    +0.000 N 
ATOM      2  C   UNL     1       7.956   7.928  18.066  0.00  0.00    +0.000 C 
ATOM      3  O   UNL     1       8.489   7.112  18.811  0.00  0.00    +0.000 OA
ATOM      4  H   UNL     1       6.636   8.432  16.556  0.00  0.00    +0.000 HD
ENDROOT
BRANCH   2   5
ATOM      5  C   UNL     1       8.348   9.354  18.268  0.00  0.00    +0.000 A 
ATOM      6  C   UNL     1       9.412   9.596  19.147  0.00  0.00    +0.000 A 
ATOM      7  C   UNL     1       9.854  10.898  19.388  0.00  0.00    +0.000 A 
ATOM      8  C   UNL     1       9.287  11.984  18.749  0.00  0.00    +0.000 A 
ATOM      9  N   UNL     1       9.755  13.211  19.033  0.00  0.00    +0.000 NA
ATOM     10  C   UNL     1       9.222  14.261  18.377  0.00  0.00    +0.000 A 
ATOM     11  C   UNL     1       8.231  14.143  17.422  0.00  0.00    +0.000 A 
ATOM     12  C   UNL     1       7.738  12.870  17.141  0.00  0.00    +0.000 A 
ATOM     13  C   UNL     1       8.248  11.750  17.819  0.00  0.00    +0.000 A 
ATOM     14  C   UNL     1       7.773  10.432  17.590  0.00  0.00    +0.000 A 
ENDBRANCH   2   5
BRANCH   1  19
ATOM     15  C   UNL     1       4.813   4.628  17.391  0.00  0.00    +0.000 A 
ATOM     16  C   UNL     1       5.247   3.888  16.278  0.00  0.00    +0.000 A 
ATOM     17  C   UNL     1       6.258   4.361  15.456  0.00  0.00    +0.000 A 
ATOM     18  C   UNL     1       6.848   5.594  15.725  0.00  0.00    +0.000 A 
ATOM     19  C   UNL     1       6.437   6.377  16.810  0.00  0.00    +0.000 A 
ATOM     20  C   UNL     1       5.423   5.874  17.654  0.00  0.00    +0.000 A 
BRANCH  15  24
ATOM     21  C   UNL     1       0.641   2.404  18.747  0.00  0.00    +0.000 C 
ATOM     22  C   UNL     1       1.928   3.121  18.853  0.00  0.00    +0.000 A 
ATOM     23  N   UNL     1       2.693   3.357  17.741  0.00  0.00    +0.000 NA
ATOM     24  C   UNL     1       3.730   4.045  18.186  0.00  0.00    +0.000 A 
ATOM     25  O   UNL     1       3.712   4.265  19.540  0.00  0.00    +0.000 OA
ATOM     26  C   UNL     1       2.545   3.671  19.955  0.00  0.00    +0.000 A 
ATOM     27  C   UNL     1       2.187   3.751  21.382  0.00  0.00    +0.000 C 
ENDBRANCH  15  24
ENDBRANCH   1  19
TORSDOF 3
ENDMDL
MODEL 6
REMARK VINA RESULT:      -8.4      0.728      1.563
REMARK  Name = 
REMARK  5 active torsions:
REMARK  status: ('A' for Active; 'I' for Inactive)
REMARK    1  A    between atoms: C_1  and  C_2
REMARK    2  A    between atoms: C_4  and  C_5
REMARK    3  A    between atoms: C_9  and  N_10
REMARK    4  A    between atoms: C_11  and  C_13
REMARK    5  A    between atoms: C_25  and  C_26
REMARK                            x       y       z     vdW  Elec       q    Type
REMARK                         _______ _______ _______ _____ _____    ______ ____
ROOT
ATOM      1  N   UNL     1       6.921   7.701  17.131  0.00  0.00    +0.000 N 
ATOM      2  C   UNL     1       7.921   7.945  18.067  0.00  0.00    +0.000 C 
ATOM      3  O   UNL     1       8.469   7.112  18.782  0.00  0.00    +0.000 OA
ATOM      4  H   UNL     1       6.548   8.489  16.619  0.00  0.00    +0.000 HD
ENDROOT
BRANCH   2   5
ATOM      5  C   UNL     1       8.350   9.361  18.264  0.00  0.00    +0.000 A 
ATOM      6  C   UNL     1       9.426   9.578  19.135  0.00  0.00    +0.000 A 
ATOM      7  C   UNL     1       9.902  10.869  19.371  0.00  0.00    +0.000 A 
ATOM      8  C   UNL     1       9.357  11.967  18.735  0.00  0.00    +0.000 A 
ATOM      9  N   UNL     1       9.857  13.183  19.014  0.00  0.00    +0.000 NA
ATOM     10  C   UNL     1       9.344  14.246  18.362  0.00  0.00    +0.000 A 
ATOM     11  C   UNL     1       8.343  14.151  17.415  0.00  0.00    +0.000 A 
ATOM     12  C   UNL     1       7.816  12.890  17.139  0.00  0.00    +0.000 A 
ATOM     13  C   UNL     1       8.305  11.759  17.814  0.00  0.00    +0.000 A 
ATOM     14  C   UNL     1       7.795  10.452  17.590  0.00  0.00    +0.000 A 
ENDBRANCH   2   5
BRANCH   1  19
ATOM     15  C   UNL     1       4.752   4.672  17.546  0.00  0.00    +0.000 A 
ATOM     16  C   UNL     1       5.060   3.974  16.367  0.00  0.00    +0.000 A 
ATOM     17  C   UNL     1       5.983   4.474  15.460  0.00  0.00    +0.000 A 
ATOM     18  C   UNL     1       6.607   5.694  15.712  0.00  0.00    +0.000 A 
ATOM     19  C   UNL     1       6.319   6.436  16.863  0.00  0.00    +0.000 A 
ATOM     20  C   UNL     1       5.396   5.904  17.790  0.00  0.00    +0.000 A 
BRANCH  15  24
ATOM     21  C   UNL     1       2.472   2.772  21.467  0.00  0.00    +0.000 C 
ATOM     22  C   UNL     1       2.710   3.198  20.074  0.00  0.00    +0.000 A 
ATOM     23  N   UNL     1       3.844   3.889  19.735  0.00  0.00    +0.000 NA
ATOM     24  C   UNL     1       3.754   4.063  18.428  0.00  0.00    +0.000 A 
ATOM     25  O   UNL     1       2.610   3.545  17.875  0.00  0.00    +0.000 OA
ATOM     26  C   UNL     1       1.952   2.985  18.943  0.00  0.00    +0.000 A 
ATOM     27  C   UNL     1       0.674   2.296  18.695  0.00  0.00    +0.000 C 
ENDBRANCH  15  24
ENDBRANCH   1  19
TORSDOF 3
ENDMDL
MODEL 7
REMARK VINA RESULT:      -8.3      5.029      7.386
REMARK  Name = 
REMARK  5 active torsions:
REMARK  status: ('A' for Active; 'I' for Inactive)
REMARK    1  A    between atoms: C_1  and  C_2
REMARK    2  A    between atoms: C_4  and  C_5
REMARK    3  A    between atoms: C_9  and  N_10
REMARK    4  A    between atoms: C_11  and  C_13
REMARK    5  A    between atoms: C_25  and  C_26
REMARK                            x       y       z     vdW  Elec       q    Type
REMARK                         _______ _______ _______ _____ _____    ______ ____
ROOT
ATOM      1  N   UNL     1       4.392   6.746  17.857  0.00  0.00    +0.000 N 
ATOM      2  C   UNL     1       3.323   6.334  18.645  0.00  0.00    +0.000 C 
ATOM      3  O   UNL     1       3.043   5.178  18.947  0.00  0.00    +0.000 OA
ATOM      4  H   UNL     1       4.495   7.735  17.677  0.00  0.00    +0.000 HD
ENDROOT
BRANCH   2   5
ATOM      5  C   UNL     1       2.389   7.385  19.144  0.00  0.00    +0.000 A 
ATOM      6  C   UNL     1       1.929   7.247  20.460  0.00  0.00    +0.000 A 
ATOM      7  C   UNL     1       1.061   8.189  21.014  0.00  0.00    +0.000 A 
ATOM      8  C   UNL     1       0.655   9.302  20.304  0.00  0.00    +0.000 A 
ATOM      9  N   UNL     1      -0.189  10.166  20.894  0.00  0.00    +0.000 NA
ATOM     10  C   UNL     1      -0.552  11.268  20.208  0.00  0.00    +0.000 A 
ATOM     11  C   UNL     1      -0.095  11.563  18.938  0.00  0.00    +0.000 A 
ATOM     12  C   UNL     1       0.767  10.657  18.323  0.00  0.00    +0.000 A 
ATOM     13  C   UNL     1       1.152   9.484  18.993  0.00  0.00    +0.000 A 
ATOM     14  C   UNL     1       2.012   8.514  18.412  0.00  0.00    +0.000 A 
ENDBRANCH   2   5
BRANCH   1  19
ATOM     15  C   UNL     1       5.979   4.574  15.245  0.00  0.00    +0.000 A 
ATOM     16  C   UNL     1       7.183   4.240  15.887  0.00  0.00    +0.000 A 
ATOM     17  C   UNL     1       7.462   4.699  17.166  0.00  0.00    +0.000 A 
ATOM     18  C   UNL     1       6.543   5.513  17.824  0.00  0.00    +0.000 A 
ATOM     19  C   UNL     1       5.337   5.889  17.218  0.00  0.00    +0.000 A 
ATOM     20  C   UNL     1       5.055   5.396  15.926  0.00  0.00    +0.000 A 
BRANCH  15  24
ATOM     21  C   UNL     1       3.963   3.111  11.005  0.00  0.00    +0.000 C 
ATOM     22  C   UNL     1       4.987   3.366  12.037  0.00  0.00    +0.000 A 
ATOM     23  N   UNL     1       4.672   4.043  13.186  0.00  0.00    +0.000 NA
ATOM     24  C   UNL     1       5.789   4.050  13.891  0.00  0.00    +0.000 A 
ATOM     25  O   UNL     1       6.844   3.431  13.267  0.00  0.00    +0.000 OA
ATOM     26  C   UNL     1       6.312   2.990  12.080  0.00  0.00    +0.000 A 
ATOM     27  C   UNL     1       7.181   2.236  11.160  0.00  0.00    +0.000 C 
ENDBRANCH  15  24
ENDBRANCH   1  19
TORSDOF 3
ENDMDL
MODEL 8
REMARK VINA RESULT:      -8.3      6.375      8.590
REMARK  Name = 
REMARK  5 active torsions:
REMARK  status: ('A' for Active; 'I' for Inactive)
REMARK    1  A    between atoms: C_1  and  C_2
REMARK    2  A    between atoms: C_4  and  C_5
REMARK    3  A    between atoms: C_9  and  N_10
REMARK    4  A    between atoms: C_11  and  C_13
REMARK    5  A    between atoms: C_25  and  C_26
REMARK                            x       y       z     vdW  Elec       q    Type
REMARK                         _______ _______ _______ _____ _____    ______ ____
ROOT
ATOM      1  N   UNL     1       2.156   8.482  18.544  0.00  0.00    +0.000 N 
ATOM      2  C   UNL     1       2.445   7.219  19.051  0.00  0.00    +0.000 C 
ATOM      3  O   UNL     1       1.822   6.625  19.925  0.00  0.00    +0.000 OA
ATOM      4  H   UNL     1       2.766   8.857  17.830  0.00  0.00    +0.000 HD
ENDROOT
BRANCH   2   5
ATOM      5  C   UNL     1       3.655   6.524  18.521  0.00  0.00    +0.000 A 
ATOM      6  C   UNL     1       4.403   5.774  19.438  0.00  0.00    +0.000 A 
ATOM      7  C   UNL     1       5.544   5.082  19.030  0.00  0.00    +0.000 A 
ATOM      8  C   UNL     1       5.955   5.082  17.711  0.00  0.00    +0.000 A 
ATOM      9  N   UNL     1       7.067   4.401  17.386  0.00  0.00    +0.000 NA
ATOM     10  C   UNL     1       7.442   4.376  16.091  0.00  0.00    +0.000 A 
ATOM     11  C   UNL     1       6.738   5.001  15.080  0.00  0.00    +0.000 A 
ATOM     12  C   UNL     1       5.594   5.719  15.423  0.00  0.00    +0.000 A 
ATOM     13  C   UNL     1       5.181   5.791  16.764  0.00  0.00    +0.000 A 
ATOM     14  C   UNL     1       4.036   6.522  17.176  0.00  0.00    +0.000 A 
ENDBRANCH   2   5
BRANCH   1  19
ATOM     15  C   UNL     1      -1.027  10.462  18.492  0.00  0.00    +0.000 A 
ATOM     16  C   UNL     1      -1.034  10.968  19.802  0.00  0.00    +0.000 A 
ATOM     17  C   UNL     1       0.000  10.686  20.683  0.00  0.00    +0.000 A 
ATOM     18  C   UNL     1       1.058   9.879  20.271  0.00  0.00    +0.000 A 
ATOM     19  C   UNL     1       1.101   9.336  18.982  0.00  0.00    +0.000 A 
ATOM     20  C   UNL     1       0.054   9.649  18.088  0.00  0.00    +0.000 A 
BRANCH  15  24
ATOM     21  C   UNL     1      -5.379  12.121  16.913  0.00  0.00    +0.000 C 
ATOM     22  C   UNL     1      -4.053  11.472  16.893  0.00  0.00    +0.000 A 
ATOM     23  N   UNL     1      -3.235  11.513  17.992  0.00  0.00    +0.000 NA
ATOM     24  C   UNL     1      -2.172  10.807  17.648  0.00  0.00    +0.000 A 
ATOM     25  O   UNL     1      -2.223  10.314  16.368  0.00  0.00    +0.000 OA
ATOM     26  C   UNL     1      -3.440  10.743  15.898  0.00  0.00    +0.000 A 
ATOM     27  C   UNL     1      -3.841  10.353  14.535  0.00  0.00    +0.000 C 
ENDBRANCH  15  24
ENDBRANCH   1  19
TORSDOF 3
ENDMDL
MODEL 9
REMARK VINA RESULT:      -8.2      7.195      9.828
REMARK  Name = 
REMARK  5 active torsions:
REMARK  status: ('A' for Active; 'I' for Inactive)
REMARK    1  A    between atoms: C_1  and  C_2
REMARK    2  A    between atoms: C_4  and  C_5
REMARK    3  A    between atoms: C_9  and  N_10
REMARK    4  A    between atoms: C_11  and  C_13
REMARK    5  A    between atoms: C_25  and  C_26
REMARK                            x       y       z     vdW  Elec       q    Type
REMARK                         _______ _______ _______ _____ _____    ______ ____
ROOT
ATOM      1  N   UNL     1       1.262   9.096  19.268  0.00  0.00    +0.000 N 
ATOM      2  C   UNL     1       2.071   8.443  18.343  0.00  0.00    +0.000 C 
ATOM      3  O   UNL     1       2.403   8.866  17.240  0.00  0.00    +0.000 OA
ATOM      4  H   UNL     1       1.058   8.621  20.137  0.00  0.00    +0.000 HD
ENDROOT
BRANCH   2   5
ATOM      5  C   UNL     1       2.553   7.075  18.694  0.00  0.00    +0.000 A 
ATOM      6  C   UNL     1       3.643   6.585  17.962  0.00  0.00    +0.000 A 
ATOM      7  C   UNL     1       4.168   5.319  18.229  0.00  0.00    +0.000 A 
ATOM      8  C   UNL     1       3.660   4.524  19.238  0.00  0.00    +0.000 A 
ATOM      9  N   UNL     1       4.207   3.313  19.436  0.00  0.00    +0.000 NA
ATOM     10  C   UNL     1       3.730   2.558  20.446  0.00  0.00    +0.000 A 
ATOM     11  C   UNL     1       2.720   2.968  21.295  0.00  0.00    +0.000 A 
ATOM     12  C   UNL     1       2.144   4.218  21.077  0.00  0.00    +0.000 A 
ATOM     13  C   UNL     1       2.595   5.027  20.020  0.00  0.00    +0.000 A 
ATOM     14  C   UNL     1       2.036   6.301  19.736  0.00  0.00    +0.000 A 
ENDBRANCH   2   5
BRANCH   1  19
ATOM     15  C   UNL     1      -1.433  11.679  18.933  0.00  0.00    +0.000 A 
ATOM     16  C   UNL     1      -0.657  12.839  18.772  0.00  0.00    +0.000 A 
ATOM     17  C   UNL     1       0.728  12.774  18.749  0.00  0.00    +0.000 A 
ATOM     18  C   UNL     1       1.365  11.545  18.899  0.00  0.00    +0.000 A 
ATOM     19  C   UNL     1       0.636  10.364  19.082  0.00  0.00    +0.000 A 
ATOM     20  C   UNL     1      -0.774  10.439  19.080  0.00  0.00    +0.000 A 
BRANCH  15  24
ATOM     21  C   UNL     1      -6.176  11.862  17.645  0.00  0.00    +0.000 C 
ATOM     22  C   UNL     1      -4.957  11.994  18.468  0.00  0.00    +0.000 A 
ATOM     23  N   UNL     1      -3.747  11.546  18.006  0.00  0.00    +0.000 NA
ATOM     24  C   UNL     1      -2.887  11.859  18.959  0.00  0.00    +0.000 A 
ATOM     25  O   UNL     1      -3.458  12.475  20.044  0.00  0.00    +0.000 OA
ATOM     26  C   UNL     1      -4.788  12.562  19.712  0.00  0.00    +0.000 A 
ATOM     27  C   UNL     1      -5.706  13.216  20.660  0.00  0.00    +0.000 C 
ENDBRANCH  15  24
ENDBRANCH   1  19
TORSDOF 3
ENDMDL
