MODEL 1
REMARK VINA RESULT:      -8.6      0.000      0.000
REMARK  Name = 
REMARK  5 active torsions:
REMARK  status: ('A' for Active; 'I' for Inactive)
REMARK    1  A    between atoms: C_2  and  C_3
REMARK    2  A    between atoms: C_3  and  N_4
REMARK    3  A    between atoms: N_15  and  C_16
REMARK    4  A    between atoms: C_22  and  O_23
REMARK    5  A    between atoms: O_23  and  C_24
REMARK                            x       y       z     vdW  Elec       q    Type
REMARK                         _______ _______ _______ _____ _____    ______ ____
ROOT
ATOM      1  O   UNL     1       1.652   7.070  17.411  0.00  0.00    +0.000 OA
ATOM      2  C   UNL     1       2.527   7.885  17.717  0.00  0.00    +0.000 C 
ATOM      3  N   UNL     1       3.898   7.610  17.798  0.00  0.00    +0.000 N 
ATOM      4  H   UNL     1       4.497   8.277  18.276  0.00  0.00    +0.000 HD
ENDROOT
BRANCH   3   5
ATOM      5  C   UNL     1       4.498   6.375  17.397  0.00  0.00    +0.000 A 
ATOM      6  C   UNL     1       5.080   6.262  16.124  0.00  0.00    +0.000 A 
ATOM      7  C   UNL     1       5.617   5.062  15.657  0.00  0.00    +0.000 A 
ATOM      8 CL   UNL     1       6.324   4.987  14.093  0.00  0.00    +0.000 Cl
ATOM      9  C   UNL     1       5.569   3.931  16.447  0.00  0.00    +0.000 A 
ATOM     10  C   UNL     1       5.011   4.012  17.720  0.00  0.00    +0.000 A 
ATOM     11  C   UNL     1       4.548   5.244  18.249  0.00  0.00    +0.000 A 
BRANCH  11  12
ATOM     12  O   UNL     1       4.132   5.331  19.579  0.00  0.00    +0.000 OA
BRANCH  12  13
ATOM     13  C   UNL     1       3.132   4.455  20.002  0.00  0.00    +0.000 A 
ATOM     14  C   UNL     1       1.793   4.602  19.600  0.00  0.00    +0.000 A 
ATOM     15  C   UNL     1       0.789   3.836  20.198  0.00  0.00    +0.000 A 
ATOM     16  C   UNL     1       1.120   2.851  21.127  0.00  0.00    +0.000 A 
ATOM     17  C   UNL     1       2.461   2.624  21.444  0.00  0.00    +0.000 A 
ATOM     18  C   UNL     1       3.467   3.430  20.883  0.00  0.00    +0.000 A 
ENDBRANCH  12  13
ENDBRANCH  11  12
ENDBRANCH   3   5
BRANCH   2  19
ATOM     19  C   UNL     1       2.104   9.323  18.005  0.00  0.00    +0.000 C 
BRANCH  19  20
ATOM     20  N   UNL     1       1.329   9.395  19.224  0.00  0.00    +0.000 N 
ATOM     21  N   UNL     1       1.597   8.454  20.178  0.00  0.00    +0.000 NA
ATOM     22  N   UNL     1       1.021   8.474  21.288  0.00  0.00    +0.000 NA
ATOM     23  C   UNL     1       0.163   9.532  21.607  0.00  0.00    +0.000 A 
ATOM     24  C   UNL     1      -0.340   9.640  22.907  0.00  0.00    +0.000 A 
ATOM     25  C   UNL     1      -1.163  10.712  23.268  0.00  0.00    +0.000 A 
ATOM     26  C   UNL     1      -1.514  11.677  22.324  0.00  0.00    +0.000 A 
ATOM     27  C   UNL     1      -1.035  11.574  21.023  0.00  0.00    +0.000 A 
ATOM     28  C   UNL     1      -0.196  10.507  20.689  0.00  0.00    +0.000 A 
ATOM     29  C   UNL     1       0.427  10.420  19.378  0.00  0.00    +0.000 A 
ATOM     30  O   UNL     1       0.207  11.270  18.521  0.00  0.00    +0.000 OA
ENDBRANCH  19  20
ENDBRANCH   2  19
TORSDOF 5
ENDMDL
MODEL 2
REMARK VINA RESULT:      -8.2      2.057      4.010
REMARK  Name = 
REMARK  5 active torsions:
REMARK  status: ('A' for Active; 'I' for Inactive)
REMARK    1  A    between atoms: C_2  and  C_3
REMARK    2  A    between atoms: C_3  and  N_4
REMARK    3  A    between atoms: N_15  and  C_16
REMARK    4  A    between atoms: C_22  and  O_23
REMARK    5  A    between atoms: O_23  and  C_24
REMARK                            x       y       z     vdW  Elec       q    Type
REMARK                         _______ _______ _______ _____ _____    ______ ____
ROOT
ATOM      1  O   UNL     1       1.795   6.843  17.741  0.00  0.00    +0.000 OA
ATOM      2  C   UNL     1       2.190   7.431  18.752  0.00  0.00    +0.000 C 
ATOM      3  N   UNL     1       2.786   6.822  19.864  0.00  0.00    +0.000 N 
ATOM      4  H   UNL     1       2.861   7.357  20.725  0.00  0.00    +0.000 HD
ENDROOT
BRANCH   3   5
ATOM      5  C   UNL     1       3.152   5.441  19.927  0.00  0.00    +0.000 A 
ATOM      6  C   UNL     1       2.332   4.533  20.615  0.00  0.00    +0.000 A 
ATOM      7  C   UNL     1       2.676   3.190  20.766  0.00  0.00    +0.000 A 
ATOM      8 CL   UNL     1       1.627   2.122  21.611  0.00  0.00    +0.000 Cl
ATOM      9  C   UNL     1       3.866   2.720  20.248  0.00  0.00    +0.000 A 
ATOM     10  C   UNL     1       4.696   3.591  19.549  0.00  0.00    +0.000 A 
ATOM     11  C   UNL     1       4.318   4.936  19.301  0.00  0.00    +0.000 A 
BRANCH  11  12
ATOM     12  O   UNL     1       5.094   5.748  18.471  0.00  0.00    +0.000 OA
BRANCH  12  13
ATOM     13  C   UNL     1       5.598   5.179  17.301  0.00  0.00    +0.000 A 
ATOM     14  C   UNL     1       6.976   5.001  17.092  0.00  0.00    +0.000 A 
ATOM     15  C   UNL     1       7.456   4.619  15.836  0.00  0.00    +0.000 A 
ATOM     16  C   UNL     1       6.564   4.319  14.808  0.00  0.00    +0.000 A 
ATOM     17  C   UNL     1       5.189   4.385  15.046  0.00  0.00    +0.000 A 
ATOM     18  C   UNL     1       4.707   4.819  16.293  0.00  0.00    +0.000 A 
ENDBRANCH  12  13
ENDBRANCH  11  12
ENDBRANCH   3   5
BRANCH   2  19
ATOM     19  C   UNL     1       2.056   8.951  18.800  0.00  0.00    +0.000 C 
BRANCH  19  20
ATOM     20  N   UNL     1       1.137   9.352  19.842  0.00  0.00    +0.000 N 
ATOM     21  N   UNL     1       1.284   8.744  21.057  0.00  0.00    +0.000 NA
ATOM     22  N   UNL     1       0.576   9.071  22.035  0.00  0.00    +0.000 NA
ATOM     23  C   UNL     1      -0.314  10.145  21.922  0.00  0.00    +0.000 A 
ATOM     24  C   UNL     1      -0.972  10.613  23.062  0.00  0.00    +0.000 A 
ATOM     25  C   UNL     1      -1.831  11.715  22.989  0.00  0.00    +0.000 A 
ATOM     26  C   UNL     1      -2.061  12.346  21.767  0.00  0.00    +0.000 A 
ATOM     27  C   UNL     1      -1.426  11.881  20.621  0.00  0.00    +0.000 A 
ATOM     28  C   UNL     1      -0.555  10.793  20.720  0.00  0.00    +0.000 A 
ATOM     29  C   UNL     1       0.225  10.345  19.578  0.00  0.00    +0.000 A 
ATOM     30  O   UNL     1       0.114  10.897  18.487  0.00  0.00    +0.000 OA
ENDBRANCH  19  20
ENDBRANCH   2  19
TORSDOF 5
ENDMDL
MODEL 3
REMARK VINA RESULT:      -8.1      2.356      4.064
REMARK  Name = 
REMARK  5 active torsions:
REMARK  status: ('A' for Active; 'I' for Inactive)
REMARK    1  A    between atoms: C_2  and  C_3
REMARK    2  A    between atoms: C_3  and  N_4
REMARK    3  A    between atoms: N_15  and  C_16
REMARK    4  A    between atoms: C_22  and  O_23
REMARK    5  A    between atoms: O_23  and  C_24
REMARK                            x       y       z     vdW  Elec       q    Type
REMARK                         _______ _______ _______ _____ _____    ______ ____
ROOT
ATOM      1  O   UNL     1       1.515   6.777  17.790  0.00  0.00    +0.000 OA
ATOM      2  C   UNL     1       2.096   7.310  18.739  0.00  0.00    +0.000 C 
ATOM      3  N   UNL     1       2.799   6.634  19.743  0.00  0.00    +0.000 N 
ATOM      4  H   UNL     1       3.038   7.140  20.591  0.00  0.00    +0.000 HD
ENDROOT
BRANCH   3   5
ATOM      5  C   UNL     1       3.065   5.228  19.735  0.00  0.00    +0.000 A 
ATOM      6  C   UNL     1       2.419   4.389  20.656  0.00  0.00    +0.000 A 
ATOM      7  C   UNL     1       2.692   3.024  20.736  0.00  0.00    +0.000 A 
ATOM      8 CL   UNL     1       1.862   2.045  21.879  0.00  0.00    +0.000 Cl
ATOM      9  C   UNL     1       3.641   2.461  19.906  0.00  0.00    +0.000 A 
ATOM     10  C   UNL     1       4.290   3.262  18.972  0.00  0.00    +0.000 A 
ATOM     11  C   UNL     1       3.956   4.631  18.809  0.00  0.00    +0.000 A 
BRANCH  11  12
ATOM     12  O   UNL     1       4.512   5.376  17.767  0.00  0.00    +0.000 OA
BRANCH  12  13
ATOM     13  C   UNL     1       5.792   5.897  17.958  0.00  0.00    +0.000 A 
ATOM     14  C   UNL     1       6.682   5.361  18.904  0.00  0.00    +0.000 A 
ATOM     15  C   UNL     1       7.872   6.028  19.210  0.00  0.00    +0.000 A 
ATOM     16  C   UNL     1       8.230   7.178  18.509  0.00  0.00    +0.000 A 
ATOM     17  C   UNL     1       7.402   7.649  17.488  0.00  0.00    +0.000 A 
ATOM     18  C   UNL     1       6.180   7.009  17.215  0.00  0.00    +0.000 A 
ENDBRANCH  12  13
ENDBRANCH  11  12
ENDBRANCH   3   5
BRANCH   2  19
ATOM     19  C   UNL     1       2.085   8.835  18.826  0.00  0.00    +0.000 C 
BRANCH  19  20
ATOM     20  N   UNL     1       1.177   9.283  19.859  0.00  0.00    +0.000 N 
ATOM     21  N   UNL     1       1.346   8.741  21.102  0.00  0.00    +0.000 NA
ATOM     22  N   UNL     1       0.649   9.112  22.071  0.00  0.00    +0.000 NA
ATOM     23  C   UNL     1      -0.251  10.172  21.914  0.00  0.00    +0.000 A 
ATOM     24  C   UNL     1      -0.898  10.695  23.038  0.00  0.00    +0.000 A 
ATOM     25  C   UNL     1      -1.767  11.784  22.920  0.00  0.00    +0.000 A 
ATOM     26  C   UNL     1      -2.020  12.348  21.670  0.00  0.00    +0.000 A 
ATOM     27  C   UNL     1      -1.396  11.829  20.541  0.00  0.00    +0.000 A 
ATOM     28  C   UNL     1      -0.514  10.754  20.684  0.00  0.00    +0.000 A 
ATOM     29  C   UNL     1       0.253  10.253  19.556  0.00  0.00    +0.000 A 
ATOM     30  O   UNL     1       0.122  10.745  18.439  0.00  0.00    +0.000 OA
ENDBRANCH  19  20
ENDBRANCH   2  19
TORSDOF 5
ENDMDL
MODEL 4
REMARK VINA RESULT:      -8.1      2.394      3.155
REMARK  Name = 
REMARK  5 active torsions:
REMARK  status: ('A' for Active; 'I' for Inactive)
REMARK    1  A    between atoms: C_2  and  C_3
REMARK    2  A    between atoms: C_3  and  N_4
REMARK    3  A    between atoms: N_15  and  C_16
REMARK    4  A    between atoms: C_22  and  O_23
REMARK    5  A    between atoms: O_23  and  C_24
REMARK                            x       y       z     vdW  Elec       q    Type
REMARK                         _______ _______ _______ _____ _____    ______ ____
ROOT
ATOM      1  O   UNL     1       2.085   8.169  19.721  0.00  0.00    +0.000 OA
ATOM      2  C   UNL     1       1.897   8.451  18.534  0.00  0.00    +0.000 C 
ATOM      3  N   UNL     1       2.659   7.979  17.459  0.00  0.00    +0.000 N 
ATOM      4  H   UNL     1       2.570   8.447  16.561  0.00  0.00    +0.000 HD
ENDROOT
BRANCH   3   5
ATOM      5  C   UNL     1       3.680   6.983  17.569  0.00  0.00    +0.000 A 
ATOM      6  C   UNL     1       5.031   7.366  17.570  0.00  0.00    +0.000 A 
ATOM      7  C   UNL     1       6.067   6.433  17.606  0.00  0.00    +0.000 A 
ATOM      8 CL   UNL     1       7.702   6.962  17.614  0.00  0.00    +0.000 Cl
ATOM      9  C   UNL     1       5.779   5.083  17.622  0.00  0.00    +0.000 A 
ATOM     10  C   UNL     1       4.450   4.670  17.635  0.00  0.00    +0.000 A 
ATOM     11  C   UNL     1       3.384   5.604  17.697  0.00  0.00    +0.000 A 
BRANCH  11  12
ATOM     12  O   UNL     1       2.068   5.166  17.862  0.00  0.00    +0.000 OA
BRANCH  12  13
ATOM     13  C   UNL     1       1.783   4.385  18.982  0.00  0.00    +0.000 A 
ATOM     14  C   UNL     1       2.067   4.822  20.287  0.00  0.00    +0.000 A 
ATOM     15  C   UNL     1       1.957   3.940  21.366  0.00  0.00    +0.000 A 
ATOM     16  C   UNL     1       1.472   2.648  21.167  0.00  0.00    +0.000 A 
ATOM     17  C   UNL     1       1.080   2.248  19.888  0.00  0.00    +0.000 A 
ATOM     18  C   UNL     1       1.240   3.117  18.794  0.00  0.00    +0.000 A 
ENDBRANCH  12  13
ENDBRANCH  11  12
ENDBRANCH   3   5
BRANCH   2  19
ATOM     19  C   UNL     1       0.725   9.366  18.188  0.00  0.00    +0.000 C 
BRANCH  19  20
ATOM     20  N   UNL     1       1.071  10.751  18.413  0.00  0.00    +0.000 N 
ATOM     21  N   UNL     1       2.312  11.149  18.001  0.00  0.00    +0.000 NA
ATOM     22  N   UNL     1       2.676  12.342  18.098  0.00  0.00    +0.000 NA
ATOM     23  C   UNL     1       1.769  13.311  18.540  0.00  0.00    +0.000 A 
ATOM     24  C   UNL     1       2.127  14.661  18.482  0.00  0.00    +0.000 A 
ATOM     25  C   UNL     1       1.225  15.657  18.874  0.00  0.00    +0.000 A 
ATOM     26  C   UNL     1      -0.038  15.311  19.352  0.00  0.00    +0.000 A 
ATOM     27  C   UNL     1      -0.402  13.971  19.431  0.00  0.00    +0.000 A 
ATOM     28  C   UNL     1       0.506  12.994  19.015  0.00  0.00    +0.000 A 
ATOM     29  C   UNL     1       0.132  11.590  18.963  0.00  0.00    +0.000 A 
ATOM     30  O   UNL     1      -0.986  11.225  19.315  0.00  0.00    +0.000 OA
ENDBRANCH  19  20
ENDBRANCH   2  19
TORSDOF 5
ENDMDL
MODEL 5
REMARK VINA RESULT:      -8.0      2.218      4.177
REMARK  Name = 
REMARK  5 active torsions:
REMARK  status: ('A' for Active; 'I' for Inactive)
REMARK    1  A    between atoms: C_2  and  C_3
REMARK    2  A    between atoms: C_3  and  N_4
REMARK    3  A    between atoms: N_15  and  C_16
REMARK    4  A    between atoms: C_22  and  O_23
REMARK    5  A    between atoms: O_23  and  C_24
REMARK                            x       y       z     vdW  Elec       q    Type
REMARK                         _______ _______ _______ _____ _____    ______ ____
ROOT
ATOM      1  O   UNL     1       4.171   6.916  18.664  0.00  0.00    +0.000 OA
ATOM      2  C   UNL     1       2.977   6.935  18.353  0.00  0.00    +0.000 C 
ATOM      3  N   UNL     1       2.153   5.810  18.232  0.00  0.00    +0.000 N 
ATOM      4  H   UNL     1       1.262   5.912  17.753  0.00  0.00    +0.000 HD
ENDROOT
BRANCH   3   5
ATOM      5  C   UNL     1       2.544   4.481  18.590  0.00  0.00    +0.000 A 
ATOM      6  C   UNL     1       2.155   3.949  19.829  0.00  0.00    +0.000 A 
ATOM      7  C   UNL     1       2.565   2.687  20.256  0.00  0.00    +0.000 A 
ATOM      8 CL   UNL     1       2.049   2.084  21.780  0.00  0.00    +0.000 Cl
ATOM      9  C   UNL     1       3.398   1.926  19.460  0.00  0.00    +0.000 A 
ATOM     10  C   UNL     1       3.791   2.418  18.220  0.00  0.00    +0.000 A 
ATOM     11  C   UNL     1       3.306   3.657  17.726  0.00  0.00    +0.000 A 
BRANCH  11  12
ATOM     12  O   UNL     1       3.594   4.059  16.420  0.00  0.00    +0.000 OA
BRANCH  12  13
ATOM     13  C   UNL     1       4.930   4.298  16.098  0.00  0.00    +0.000 A 
ATOM     14  C   UNL     1       5.861   4.741  17.054  0.00  0.00    +0.000 A 
ATOM     15  C   UNL     1       7.133   5.162  16.658  0.00  0.00    +0.000 A 
ATOM     16  C   UNL     1       7.522   5.055  15.324  0.00  0.00    +0.000 A 
ATOM     17  C   UNL     1       6.639   4.508  14.390  0.00  0.00    +0.000 A 
ATOM     18  C   UNL     1       5.341   4.133  14.778  0.00  0.00    +0.000 A 
ENDBRANCH  12  13
ENDBRANCH  11  12
ENDBRANCH   3   5
BRANCH   2  19
ATOM     19  C   UNL     1       2.318   8.291  18.108  0.00  0.00    +0.000 C 
BRANCH  19  20
ATOM     20  N   UNL     1       1.547   8.702  19.260  0.00  0.00    +0.000 N 
ATOM     21  N   UNL     1       1.808   8.056  20.436  0.00  0.00    +0.000 NA
ATOM     22  N   UNL     1       1.236   8.385  21.498  0.00  0.00    +0.000 NA
ATOM     23  C   UNL     1       0.389   9.500  21.515  0.00  0.00    +0.000 A 
ATOM     24  C   UNL     1      -0.108   9.965  22.735  0.00  0.00    +0.000 A 
ATOM     25  C   UNL     1      -0.919  11.103  22.789  0.00  0.00    +0.000 A 
ATOM     26  C   UNL     1      -1.262  11.777  21.617  0.00  0.00    +0.000 A 
ATOM     27  C   UNL     1      -0.788  11.316  20.394  0.00  0.00    +0.000 A 
ATOM     28  C   UNL     1       0.038  10.190  20.365  0.00  0.00    +0.000 A 
ATOM     29  C   UNL     1       0.657   9.740  19.128  0.00  0.00    +0.000 A 
ATOM     30  O   UNL     1       0.443  10.325  18.071  0.00  0.00    +0.000 OA
ENDBRANCH  19  20
ENDBRANCH   2  19
TORSDOF 5
ENDMDL
MODEL 6
REMARK VINA RESULT:      -8.0      3.315      8.091
REMARK  Name = 
REMARK  5 active torsions:
REMARK  status: ('A' for Active; 'I' for Inactive)
REMARK    1  A    between atoms: C_2  and  C_3
REMARK    2  A    between atoms: C_3  and  N_4
REMARK    3  A    between atoms: N_15  and  C_16
REMARK    4  A    between atoms: C_22  and  O_23
REMARK    5  A    between atoms: O_23  and  C_24
REMARK                            x       y       z     vdW  Elec       q    Type
REMARK                         _______ _______ _______ _____ _____    ______ ____
ROOT
ATOM      1  O   UNL     1       1.472  10.049  21.762  0.00  0.00    +0.000 OA
ATOM      2  C   UNL     1       1.020   9.338  20.860  0.00  0.00    +0.000 C 
ATOM      3  N   UNL     1       0.467   9.805  19.661  0.00  0.00    +0.000 N 
ATOM      4  H   UNL     1      -0.080   9.160  19.098  0.00  0.00    +0.000 HD
ENDROOT
BRANCH   3   5
ATOM      5  C   UNL     1       0.477  11.174  19.247  0.00  0.00    +0.000 A 
ATOM      6  C   UNL     1       1.695  11.806  18.953  0.00  0.00    +0.000 A 
ATOM      7  C   UNL     1       1.768  13.156  18.612  0.00  0.00    +0.000 A 
ATOM      8 CL   UNL     1       3.288  13.872  18.253  0.00  0.00    +0.000 Cl
ATOM      9  C   UNL     1       0.619  13.921  18.575  0.00  0.00    +0.000 A 
ATOM     10  C   UNL     1      -0.607  13.322  18.848  0.00  0.00    +0.000 A 
ATOM     11  C   UNL     1      -0.712  11.930  19.102  0.00  0.00    +0.000 A 
BRANCH  11  12
ATOM     12  O   UNL     1      -1.965  11.327  19.224  0.00  0.00    +0.000 OA
BRANCH  12  13
ATOM     13  C   UNL     1      -2.636  10.987  18.048  0.00  0.00    +0.000 A 
ATOM     14  C   UNL     1      -2.056  10.159  17.072  0.00  0.00    +0.000 A 
ATOM     15  C   UNL     1      -2.667  10.004  15.825  0.00  0.00    +0.000 A 
ATOM     16  C   UNL     1      -3.906  10.592  15.575  0.00  0.00    +0.000 A 
ATOM     17  C   UNL     1      -4.540  11.321  16.584  0.00  0.00    +0.000 A 
ATOM     18  C   UNL     1      -3.901  11.521  17.820  0.00  0.00    +0.000 A 
ENDBRANCH  12  13
ENDBRANCH  11  12
ENDBRANCH   3   5
BRANCH   2  19
ATOM     19  C   UNL     1       1.087   7.823  21.034  0.00  0.00    +0.000 C 
BRANCH  19  20
ATOM     20  N   UNL     1       1.856   7.218  19.968  0.00  0.00    +0.000 N 
ATOM     21  N   UNL     1       2.236   8.039  18.944  0.00  0.00    +0.000 NA
ATOM     22  N   UNL     1       2.955   7.620  18.010  0.00  0.00    +0.000 NA
ATOM     23  C   UNL     1       3.468   6.319  18.058  0.00  0.00    +0.000 A 
ATOM     24  C   UNL     1       4.406   5.917  17.103  0.00  0.00    +0.000 A 
ATOM     25  C   UNL     1       4.972   4.639  17.153  0.00  0.00    +0.000 A 
ATOM     26  C   UNL     1       4.587   3.738  18.145  0.00  0.00    +0.000 A 
ATOM     27  C   UNL     1       3.642   4.118  19.091  0.00  0.00    +0.000 A 
ATOM     28  C   UNL     1       3.105   5.407  19.037  0.00  0.00    +0.000 A 
ATOM     29  C   UNL     1       2.207   5.894  20.071  0.00  0.00    +0.000 A 
ATOM     30  O   UNL     1       1.874   5.171  21.005  0.00  0.00    +0.000 OA
ENDBRANCH  19  20
ENDBRANCH   2  19
TORSDOF 5
ENDMDL
MODEL 7
REMARK VINA RESULT:      -7.9      2.140      3.976
REMARK  Name = 
REMARK  5 active torsions:
REMARK  status: ('A' for Active; 'I' for Inactive)
REMARK    1  A    between atoms: C_2  and  C_3
REMARK    2  A    between atoms: C_3  and  N_4
REMARK    3  A    between atoms: N_15  and  C_16
REMARK    4  A    between atoms: C_22  and  O_23
REMARK    5  A    between atoms: O_23  and  C_24
REMARK                            x       y       z     vdW  Elec       q    Type
REMARK                         _______ _______ _______ _____ _____    ______ ____
ROOT
ATOM      1  O   UNL     1       1.486   7.908  17.721  0.00  0.00    +0.000 OA
ATOM      2  C   UNL     1       1.863   8.361  18.807  0.00  0.00    +0.000 C 
ATOM      3  N   UNL     1       2.376   7.603  19.866  0.00  0.00    +0.000 N 
ATOM      4  H   UNL     1       2.437   8.035  20.784  0.00  0.00    +0.000 HD
ENDROOT
BRANCH   3   5
ATOM      5  C   UNL     1       2.670   6.205  19.790  0.00  0.00    +0.000 A 
ATOM      6  C   UNL     1       1.856   5.282  20.466  0.00  0.00    +0.000 A 
ATOM      7  C   UNL     1       2.137   3.916  20.482  0.00  0.00    +0.000 A 
ATOM      8 CL   UNL     1       1.098   2.834  21.319  0.00  0.00    +0.000 Cl
ATOM      9  C   UNL     1       3.258   3.435  19.836  0.00  0.00    +0.000 A 
ATOM     10  C   UNL     1       4.079   4.321  19.145  0.00  0.00    +0.000 A 
ATOM     11  C   UNL     1       3.757   5.699  19.036  0.00  0.00    +0.000 A 
BRANCH  11  12
ATOM     12  O   UNL     1       4.511   6.539  18.214  0.00  0.00    +0.000 OA
BRANCH  12  13
ATOM     13  C   UNL     1       5.383   5.939  17.304  0.00  0.00    +0.000 A 
ATOM     14  C   UNL     1       5.082   5.845  15.935  0.00  0.00    +0.000 A 
ATOM     15  C   UNL     1       5.876   5.065  15.089  0.00  0.00    +0.000 A 
ATOM     16  C   UNL     1       7.028   4.454  15.581  0.00  0.00    +0.000 A 
ATOM     17  C   UNL     1       7.393   4.639  16.916  0.00  0.00    +0.000 A 
ATOM     18  C   UNL     1       6.566   5.380  17.779  0.00  0.00    +0.000 A 
ENDBRANCH  12  13
ENDBRANCH  11  12
ENDBRANCH   3   5
BRANCH   2  19
ATOM     19  C   UNL     1       1.801   9.871  19.018  0.00  0.00    +0.000 C 
BRANCH  19  20
ATOM     20  N   UNL     1       0.835  10.207  20.039  0.00  0.00    +0.000 N 
ATOM     21  N   UNL     1       1.107   9.776  21.307  0.00  0.00    +0.000 NA
ATOM     22  N   UNL     1       0.361  10.072  22.267  0.00  0.00    +0.000 NA
ATOM     23  C   UNL     1      -0.717  10.942  22.067  0.00  0.00    +0.000 A 
ATOM     24  C   UNL     1      -1.440  11.403  23.171  0.00  0.00    +0.000 A 
ATOM     25  C   UNL     1      -2.492  12.309  23.008  0.00  0.00    +0.000 A 
ATOM     26  C   UNL     1      -2.851  12.747  21.733  0.00  0.00    +0.000 A 
ATOM     27  C   UNL     1      -2.152  12.284  20.624  0.00  0.00    +0.000 A 
ATOM     28  C   UNL     1      -1.089  11.396  20.811  0.00  0.00    +0.000 A 
ATOM     29  C   UNL     1      -0.251  10.977  19.699  0.00  0.00    +0.000 A 
ATOM     30  O   UNL     1      -0.477  11.373  18.560  0.00  0.00    +0.000 OA
ENDBRANCH  19  20
ENDBRANCH   2  19
TORSDOF 5
ENDMDL
MODEL 8
REMARK VINA RESULT:      -7.9      1.865      2.395
REMARK  Name = 
REMARK  5 active torsions:
REMARK  status: ('A' for Active; 'I' for Inactive)
REMARK    1  A    between atoms: C_2  and  C_3
REMARK    2  A    between atoms: C_3  and  N_4
REMARK    3  A    between atoms: N_15  and  C_16
REMARK    4  A    between atoms: C_22  and  O_23
REMARK    5  A    between atoms: O_23  and  C_24
REMARK                            x       y       z     vdW  Elec       q    Type
REMARK                         _______ _______ _______ _____ _____    ______ ____
ROOT
ATOM      1  O   UNL     1       2.168   8.073  19.704  0.00  0.00    +0.000 OA
ATOM      2  C   UNL     1       2.034   8.431  18.530  0.00  0.00    +0.000 C 
ATOM      3  N   UNL     1       2.808   7.985  17.452  0.00  0.00    +0.000 N 
ATOM      4  H   UNL     1       2.771   8.507  16.581  0.00  0.00    +0.000 HD
ENDROOT
BRANCH   3   5
ATOM      5  C   UNL     1       3.779   6.938  17.536  0.00  0.00    +0.000 A 
ATOM      6  C   UNL     1       5.147   7.252  17.523  0.00  0.00    +0.000 A 
ATOM      7  C   UNL     1       6.135   6.267  17.532  0.00  0.00    +0.000 A 
ATOM      8 CL   UNL     1       7.795   6.713  17.525  0.00  0.00    +0.000 Cl
ATOM      9  C   UNL     1       5.779   4.933  17.535  0.00  0.00    +0.000 A 
ATOM     10  C   UNL     1       4.431   4.588  17.561  0.00  0.00    +0.000 A 
ATOM     11  C   UNL     1       3.415   5.574  17.650  0.00  0.00    +0.000 A 
BRANCH  11  12
ATOM     12  O   UNL     1       2.081   5.201  17.827  0.00  0.00    +0.000 OA
BRANCH  12  13
ATOM     13  C   UNL     1       1.778   4.385  18.917  0.00  0.00    +0.000 A 
ATOM     14  C   UNL     1       1.983   4.804  20.242  0.00  0.00    +0.000 A 
ATOM     15  C   UNL     1       1.861   3.895  21.297  0.00  0.00    +0.000 A 
ATOM     16  C   UNL     1       1.440   2.589  21.050  0.00  0.00    +0.000 A 
ATOM     17  C   UNL     1       1.125   2.201  19.746  0.00  0.00    +0.000 A 
ATOM     18  C   UNL     1       1.299   3.099  18.678  0.00  0.00    +0.000 A 
ENDBRANCH  12  13
ENDBRANCH  11  12
ENDBRANCH   3   5
BRANCH   2  19
ATOM     19  C   UNL     1       0.916   9.418  18.201  0.00  0.00    +0.000 C 
BRANCH  19  20
ATOM     20  N   UNL     1       0.934  10.537  19.117  0.00  0.00    +0.000 N 
ATOM     21  N   UNL     1       1.751  11.584  18.791  0.00  0.00    +0.000 NA
ATOM     22  N   UNL     1       1.786  12.620  19.490  0.00  0.00    +0.000 NA
ATOM     23  C   UNL     1       0.905  12.763  20.568  0.00  0.00    +0.000 A 
ATOM     24  C   UNL     1       0.830  13.988  21.235  0.00  0.00    +0.000 A 
ATOM     25  C   UNL     1      -0.074  14.176  22.286  0.00  0.00    +0.000 A 
ATOM     26  C   UNL     1      -0.898  13.129  22.698  0.00  0.00    +0.000 A 
ATOM     27  C   UNL     1      -0.823  11.898  22.055  0.00  0.00    +0.000 A 
ATOM     28  C   UNL     1       0.071  11.739  20.993  0.00  0.00    +0.000 A 
ATOM     29  C   UNL     1       0.103  10.515  20.210  0.00  0.00    +0.000 A 
ATOM     30  O   UNL     1      -0.639   9.576  20.484  0.00  0.00    +0.000 OA
ENDBRANCH  19  20
ENDBRANCH   2  19
TORSDOF 5
ENDMDL
MODEL 9
REMARK VINA RESULT:      -7.9      3.302      7.895
REMARK  Name = 
REMARK  5 active torsions:
REMARK  status: ('A' for Active; 'I' for Inactive)
REMARK    1  A    between atoms: C_2  and  C_3
REMARK    2  A    between atoms: C_3  and  N_4
REMARK    3  A    between atoms: N_15  and  C_16
REMARK    4  A    between atoms: C_22  and  O_23
REMARK    5  A    between atoms: O_23  and  C_24
REMARK                            x       y       z     vdW  Elec       q    Type
REMARK                         _______ _______ _______ _____ _____    ______ ____
ROOT
ATOM      1  O   UNL     1       5.719   7.296  17.614  0.00  0.00    +0.000 OA
ATOM      2  C   UNL     1       5.499   6.140  17.991  0.00  0.00    +0.000 C 
ATOM      3  N   UNL     1       4.399   5.732  18.755  0.00  0.00    +0.000 N 
ATOM      4  H   UNL     1       4.432   4.820  19.201  0.00  0.00    +0.000 HD
ENDROOT
BRANCH   3   5
ATOM      5  C   UNL     1       3.293   6.575  19.091  0.00  0.00    +0.000 A 
ATOM      6  C   UNL     1       3.013   7.705  18.307  0.00  0.00    +0.000 A 
ATOM      7  C   UNL     1       1.990   8.598  18.629  0.00  0.00    +0.000 A 
ATOM      8 CL   UNL     1       1.689   9.960  17.626  0.00  0.00    +0.000 Cl
ATOM      9  C   UNL     1       1.228   8.393  19.762  0.00  0.00    +0.000 A 
ATOM     10  C   UNL     1       1.470   7.274  20.553  0.00  0.00    +0.000 A 
ATOM     11  C   UNL     1       2.440   6.305  20.190  0.00  0.00    +0.000 A 
BRANCH  11  12
ATOM     12  O   UNL     1       2.561   5.118  20.916  0.00  0.00    +0.000 OA
BRANCH  12  13
ATOM     13  C   UNL     1       2.229   3.928  20.268  0.00  0.00    +0.000 A 
ATOM     14  C   UNL     1       3.194   2.960  19.944  0.00  0.00    +0.000 A 
ATOM     15  C   UNL     1       2.863   1.880  19.122  0.00  0.00    +0.000 A 
ATOM     16  C   UNL     1       1.548   1.703  18.696  0.00  0.00    +0.000 A 
ATOM     17  C   UNL     1       0.561   2.601  19.110  0.00  0.00    +0.000 A 
ATOM     18  C   UNL     1       0.904   3.717  19.894  0.00  0.00    +0.000 A 
ENDBRANCH  12  13
ENDBRANCH  11  12
ENDBRANCH   3   5
BRANCH   2  19
ATOM     19  C   UNL     1       6.480   5.048  17.572  0.00  0.00    +0.000 C 
BRANCH  19  20
ATOM     20  N   UNL     1       6.580   4.973  16.132  0.00  0.00    +0.000 N 
ATOM     21  N   UNL     1       7.682   5.546  15.562  0.00  0.00    +0.000 NA
ATOM     22  N   UNL     1       7.885   5.477  14.330  0.00  0.00    +0.000 NA
ATOM     23  C   UNL     1       7.029   4.715  13.526  0.00  0.00    +0.000 A 
ATOM     24  C   UNL     1       7.359   4.502  12.185  0.00  0.00    +0.000 A 
ATOM     25  C   UNL     1       6.548   3.706  11.368  0.00  0.00    +0.000 A 
ATOM     26  C   UNL     1       5.383   3.135  11.879  0.00  0.00    +0.000 A 
ATOM     27  C   UNL     1       5.033   3.353  13.207  0.00  0.00    +0.000 A 
ATOM     28  C   UNL     1       5.869   4.132  14.011  0.00  0.00    +0.000 A 
ATOM     29  C   UNL     1       5.613   4.291  15.433  0.00  0.00    +0.000 A 
ATOM     30  O   UNL     1       4.636   3.765  15.958  0.00  0.00    +0.000 OA
ENDBRANCH  19  20
ENDBRANCH   2  19
TORSDOF 5
ENDMDL
