MODEL 1
REMARK VINA RESULT:      -8.4      0.000      0.000
REMARK  Name = 
REMARK  5 active torsions:
REMARK  status: ('A' for Active; 'I' for Inactive)
REMARK    1  A    between atoms: C_2  and  C_4
REMARK    2  A    between atoms: C_8  and  C_9
REMARK    3  A    between atoms: C_9  and  N_10
REMARK    4  A    between atoms: N_10  and  C_11
REMARK    5  A    between atoms: C_16  and  N_17
REMARK                            x       y       z     vdW  Elec       q    Type
REMARK                         _______ _______ _______ _____ _____    ______ ____
ROOT
ATOM      1  N   UNL     1       4.748   5.499  16.245  0.00  0.00    +0.000 N 
ATOM      2  H   UNL     1       4.185   5.208  15.447  0.00  0.00    +0.000 HD
ENDROOT
BRANCH   1   3
ATOM      3  C   UNL     1       3.975   5.482  17.413  0.00  0.00    +0.000 A 
ATOM      4  C   UNL     1       3.553   6.634  18.068  0.00  0.00    +0.000 A 
ATOM      5  C   UNL     1       2.858   6.506  19.256  0.00  0.00    +0.000 A 
ATOM      6  N   UNL     1       2.567   5.325  19.836  0.00  0.00    +0.000 NA
ATOM      7  C   UNL     1       2.901   4.188  19.190  0.00  0.00    +0.000 A 
ATOM      8  C   UNL     1       2.600   2.923  19.699  0.00  0.00    +0.000 A 
ATOM      9  C   UNL     1       2.784   1.724  18.995  0.00  0.00    +0.000 A 
ATOM     10  C   UNL     1       3.330   1.779  17.725  0.00  0.00    +0.000 A 
ATOM     11  C   UNL     1       3.731   3.010  17.215  0.00  0.00    +0.000 A 
ATOM     12  C   UNL     1       3.552   4.224  17.934  0.00  0.00    +0.000 A 
BRANCH   8  13
ATOM     13  N   UNL     1       2.096   2.822  21.050  0.00  0.00    +0.000 N 
ATOM     14  O   UNL     1       0.885   3.020  21.223  0.00  0.00    +0.000 OA
ATOM     15  O   UNL     1       2.934   2.664  21.950  0.00  0.00    +0.000 OA
ENDBRANCH   8  13
ENDBRANCH   1   3
BRANCH   1  16
ATOM     16  C   UNL     1       6.125   5.031  16.122  0.00  0.00    +0.000 C 
BRANCH  16  21
ATOM     17  C   UNL     1       6.122   3.650  12.553  0.00  0.00    +0.000 A 
ATOM     18  C   UNL     1       7.211   4.318  11.981  0.00  0.00    +0.000 A 
ATOM     19  C   UNL     1       7.962   5.202  12.749  0.00  0.00    +0.000 A 
ATOM     20  C   UNL     1       7.628   5.431  14.086  0.00  0.00    +0.000 A 
ATOM     21  C   UNL     1       6.536   4.785  14.684  0.00  0.00    +0.000 A 
ATOM     22  C   UNL     1       5.786   3.891  13.896  0.00  0.00    +0.000 A 
BRANCH  17  24
ATOM     23  N   UNL     1       4.052   3.175  11.353  0.00  0.00    +0.000 N 
ATOM     24  C   UNL     1       5.276   2.720  11.759  0.00  0.00    +0.000 C 
ATOM     25  O   UNL     1       5.663   1.600  11.454  0.00  0.00    +0.000 OA
ATOM     26  H   UNL     1       3.516   2.562  10.750  0.00  0.00    +0.000 HD
ATOM     27  H   UNL     1       3.788   4.149  11.383  0.00  0.00    +0.000 HD
ENDBRANCH  17  24
ENDBRANCH  16  21
ENDBRANCH   1  16
TORSDOF 5
ENDMDL
MODEL 2
REMARK VINA RESULT:      -8.4      1.823      2.825
REMARK  Name = 
REMARK  5 active torsions:
REMARK  status: ('A' for Active; 'I' for Inactive)
REMARK    1  A    between atoms: C_2  and  C_4
REMARK    2  A    between atoms: C_8  and  C_9
REMARK    3  A    between atoms: C_9  and  N_10
REMARK    4  A    between atoms: N_10  and  C_11
REMARK    5  A    between atoms: C_16  and  N_17
REMARK                            x       y       z     vdW  Elec       q    Type
REMARK                         _______ _______ _______ _____ _____    ______ ____
ROOT
ATOM      1  N   UNL     1       2.951   7.067  17.459  0.00  0.00    +0.000 N 
ATOM      2  H   UNL     1       2.603   6.501  16.687  0.00  0.00    +0.000 HD
ENDROOT
BRANCH   1   3
ATOM      3  C   UNL     1       2.528   6.530  18.681  0.00  0.00    +0.000 A 
ATOM      4  C   UNL     1       2.089   7.307  19.748  0.00  0.00    +0.000 A 
ATOM      5  C   UNL     1       1.764   6.681  20.936  0.00  0.00    +0.000 A 
ATOM      6  N   UNL     1       1.854   5.352  21.138  0.00  0.00    +0.000 NA
ATOM      7  C   UNL     1       2.209   4.563  20.100  0.00  0.00    +0.000 A 
ATOM      8  C   UNL     1       2.286   3.173  20.211  0.00  0.00    +0.000 A 
ATOM      9  C   UNL     1       2.494   2.305  19.129  0.00  0.00    +0.000 A 
ATOM     10  C   UNL     1       2.669   2.849  17.869  0.00  0.00    +0.000 A 
ATOM     11  C   UNL     1       2.693   4.233  17.728  0.00  0.00    +0.000 A 
ATOM     12  C   UNL     1       2.491   5.112  18.828  0.00  0.00    +0.000 A 
BRANCH   8  13
ATOM     13  N   UNL     1       2.180   2.575  21.523  0.00  0.00    +0.000 N 
ATOM     14  O   UNL     1       3.215   2.113  22.024  0.00  0.00    +0.000 OA
ATOM     15  O   UNL     1       1.040   2.462  21.997  0.00  0.00    +0.000 OA
ENDBRANCH   8  13
ENDBRANCH   1   3
BRANCH   1  16
ATOM     16  C   UNL     1       4.280   7.597  17.171  0.00  0.00    +0.000 C 
BRANCH  16  21
ATOM     17  C   UNL     1       6.571   5.054  15.459  0.00  0.00    +0.000 A 
ATOM     18  C   UNL     1       7.281   4.524  16.543  0.00  0.00    +0.000 A 
ATOM     19  C   UNL     1       7.010   4.972  17.833  0.00  0.00    +0.000 A 
ATOM     20  C   UNL     1       6.039   5.952  18.047  0.00  0.00    +0.000 A 
ATOM     21  C   UNL     1       5.319   6.509  16.980  0.00  0.00    +0.000 A 
ATOM     22  C   UNL     1       5.601   6.047  15.681  0.00  0.00    +0.000 A 
BRANCH  17  24
ATOM     23  N   UNL     1       6.250   3.477  13.626  0.00  0.00    +0.000 N 
ATOM     24  C   UNL     1       6.850   4.625  14.063  0.00  0.00    +0.000 C 
ATOM     25  O   UNL     1       7.567   5.282  13.319  0.00  0.00    +0.000 OA
ATOM     26  H   UNL     1       6.386   3.234  12.651  0.00  0.00    +0.000 HD
ATOM     27  H   UNL     1       5.487   3.033  14.116  0.00  0.00    +0.000 HD
ENDBRANCH  17  24
ENDBRANCH  16  21
ENDBRANCH   1  16
TORSDOF 5
ENDMDL
MODEL 3
REMARK VINA RESULT:      -8.2      1.080      1.118
REMARK  Name = 
REMARK  5 active torsions:
REMARK  status: ('A' for Active; 'I' for Inactive)
REMARK    1  A    between atoms: C_2  and  C_4
REMARK    2  A    between atoms: C_8  and  C_9
REMARK    3  A    between atoms: C_9  and  N_10
REMARK    4  A    between atoms: N_10  and  C_11
REMARK    5  A    between atoms: C_16  and  N_17
REMARK                            x       y       z     vdW  Elec       q    Type
REMARK                         _______ _______ _______ _____ _____    ______ ____
ROOT
ATOM      1  N   UNL     1       5.875   4.022  16.573  0.00  0.00    +0.000 N 
ATOM      2  H   UNL     1       6.075   3.052  16.812  0.00  0.00    +0.000 HD
ENDROOT
BRANCH   1   3
ATOM      3  C   UNL     1       4.971   4.570  17.493  0.00  0.00    +0.000 A 
ATOM      4  C   UNL     1       4.937   5.921  17.820  0.00  0.00    +0.000 A 
ATOM      5  C   UNL     1       4.055   6.345  18.796  0.00  0.00    +0.000 A 
ATOM      6  N   UNL     1       3.222   5.527  19.468  0.00  0.00    +0.000 NA
ATOM      7  C   UNL     1       3.182   4.222  19.124  0.00  0.00    +0.000 A 
ATOM      8  C   UNL     1       2.319   3.313  19.740  0.00  0.00    +0.000 A 
ATOM      9  C   UNL     1       2.129   1.991  19.313  0.00  0.00    +0.000 A 
ATOM     10  C   UNL     1       2.861   1.533  18.233  0.00  0.00    +0.000 A 
ATOM     11  C   UNL     1       3.801   2.375  17.647  0.00  0.00    +0.000 A 
ATOM     12  C   UNL     1       3.999   3.713  18.088  0.00  0.00    +0.000 A 
BRANCH   8  13
ATOM     13  N   UNL     1       1.592   3.736  20.916  0.00  0.00    +0.000 N 
ATOM     14  O   UNL     1       0.563   4.403  20.741  0.00  0.00    +0.000 OA
ATOM     15  O   UNL     1       2.119   3.503  22.014  0.00  0.00    +0.000 OA
ENDBRANCH   8  13
ENDBRANCH   1   3
BRANCH   1  16
ATOM     16  C   UNL     1       7.054   4.690  16.030  0.00  0.00    +0.000 C 
BRANCH  16  21
ATOM     17  C   UNL     1       6.306   3.659  12.421  0.00  0.00    +0.000 A 
ATOM     18  C   UNL     1       7.135   4.520  11.693  0.00  0.00    +0.000 A 
ATOM     19  C   UNL     1       7.952   5.425  12.365  0.00  0.00    +0.000 A 
ATOM     20  C   UNL     1       7.942   5.480  13.760  0.00  0.00    +0.000 A 
ATOM     21  C   UNL     1       7.115   4.637  14.516  0.00  0.00    +0.000 A 
ATOM     22  C   UNL     1       6.294   3.725  13.825  0.00  0.00    +0.000 A 
BRANCH  17  24
ATOM     23  N   UNL     1       5.864   1.433  11.526  0.00  0.00    +0.000 N 
ATOM     24  C   UNL     1       5.395   2.699  11.742  0.00  0.00    +0.000 C 
ATOM     25  O   UNL     1       4.260   3.014  11.410  0.00  0.00    +0.000 OA
ATOM     26  H   UNL     1       5.211   0.766  11.132  0.00  0.00    +0.000 HD
ATOM     27  H   UNL     1       6.691   1.067  11.976  0.00  0.00    +0.000 HD
ENDBRANCH  17  24
ENDBRANCH  16  21
ENDBRANCH   1  16
TORSDOF 5
ENDMDL
MODEL 4
REMARK VINA RESULT:      -8.2      3.485      5.111
REMARK  Name = 
REMARK  5 active torsions:
REMARK  status: ('A' for Active; 'I' for Inactive)
REMARK    1  A    between atoms: C_2  and  C_4
REMARK    2  A    between atoms: C_8  and  C_9
REMARK    3  A    between atoms: C_9  and  N_10
REMARK    4  A    between atoms: N_10  and  C_11
REMARK    5  A    between atoms: C_16  and  N_17
REMARK                            x       y       z     vdW  Elec       q    Type
REMARK                         _______ _______ _______ _____ _____    ______ ____
ROOT
ATOM      1  N   UNL     1       2.853   3.681  17.713  0.00  0.00    +0.000 N 
ATOM      2  H   UNL     1       2.058   3.143  17.373  0.00  0.00    +0.000 HD
ENDROOT
BRANCH   1   3
ATOM      3  C   UNL     1       2.545   4.273  18.944  0.00  0.00    +0.000 A 
ATOM      4  C   UNL     1       2.451   3.559  20.135  0.00  0.00    +0.000 A 
ATOM      5  C   UNL     1       2.068   4.229  21.281  0.00  0.00    +0.000 A 
ATOM      6  N   UNL     1       1.764   5.541  21.323  0.00  0.00    +0.000 NA
ATOM      7  C   UNL     1       1.914   6.275  20.200  0.00  0.00    +0.000 A 
ATOM      8  C   UNL     1       1.662   7.648  20.166  0.00  0.00    +0.000 A 
ATOM      9  C   UNL     1       1.953   8.478  19.072  0.00  0.00    +0.000 A 
ATOM     10  C   UNL     1       2.493   7.907  17.935  0.00  0.00    +0.000 A 
ATOM     11  C   UNL     1       2.674   6.528  17.891  0.00  0.00    +0.000 A 
ATOM     12  C   UNL     1       2.370   5.687  18.997  0.00  0.00    +0.000 A 
BRANCH   8  13
ATOM     13  N   UNL     1       1.030   8.266  21.311  0.00  0.00    +0.000 N 
ATOM     14  O   UNL     1      -0.208   8.287  21.335  0.00  0.00    +0.000 OA
ATOM     15  O   UNL     1       1.776   8.834  22.123  0.00  0.00    +0.000 OA
ENDBRANCH   8  13
ENDBRANCH   1   3
BRANCH   1  16
ATOM     16  C   UNL     1       4.117   3.038  17.364  0.00  0.00    +0.000 C 
BRANCH  16  21
ATOM     17  C   UNL     1       6.973   5.571  17.632  0.00  0.00    +0.000 A 
ATOM     18  C   UNL     1       7.244   5.850  16.288  0.00  0.00    +0.000 A 
ATOM     19  C   UNL     1       6.493   5.236  15.289  0.00  0.00    +0.000 A 
ATOM     20  C   UNL     1       5.477   4.338  15.625  0.00  0.00    +0.000 A 
ATOM     21  C   UNL     1       5.190   4.031  16.963  0.00  0.00    +0.000 A 
ATOM     22  C   UNL     1       5.956   4.660  17.964  0.00  0.00    +0.000 A 
BRANCH  17  24
ATOM     23  N   UNL     1       7.921   5.456  19.877  0.00  0.00    +0.000 N 
ATOM     24  C   UNL     1       7.772   6.182  18.728  0.00  0.00    +0.000 C 
ATOM     25  O   UNL     1       8.298   7.280  18.605  0.00  0.00    +0.000 OA
ATOM     26  H   UNL     1       8.528   5.848  20.588  0.00  0.00    +0.000 HD
ATOM     27  H   UNL     1       7.703   4.472  19.940  0.00  0.00    +0.000 HD
ENDBRANCH  17  24
ENDBRANCH  16  21
ENDBRANCH   1  16
TORSDOF 5
ENDMDL
MODEL 5
REMARK VINA RESULT:      -8.2      2.826      3.807
REMARK  Name = 
REMARK  5 active torsions:
REMARK  status: ('A' for Active; 'I' for Inactive)
REMARK    1  A    between atoms: C_2  and  C_4
REMARK    2  A    between atoms: C_8  and  C_9
REMARK    3  A    between atoms: C_9  and  N_10
REMARK    4  A    between atoms: N_10  and  C_11
REMARK    5  A    between atoms: C_16  and  N_17
REMARK                            x       y       z     vdW  Elec       q    Type
REMARK                         _______ _______ _______ _____ _____    ______ ____
ROOT
ATOM      1  N   UNL     1       2.803   7.181  17.398  0.00  0.00    +0.000 N 
ATOM      2  H   UNL     1       2.442   6.606  16.639  0.00  0.00    +0.000 HD
ENDROOT
BRANCH   1   3
ATOM      3  C   UNL     1       2.430   6.638  18.635  0.00  0.00    +0.000 A 
ATOM      4  C   UNL     1       2.033   7.411  19.721  0.00  0.00    +0.000 A 
ATOM      5  C   UNL     1       1.758   6.780  20.919  0.00  0.00    +0.000 A 
ATOM      6  N   UNL     1       1.858   5.450  21.112  0.00  0.00    +0.000 NA
ATOM      7  C   UNL     1       2.173   4.666  20.059  0.00  0.00    +0.000 A 
ATOM      8  C   UNL     1       2.257   3.276  20.162  0.00  0.00    +0.000 A 
ATOM      9  C   UNL     1       2.423   2.412  19.069  0.00  0.00    +0.000 A 
ATOM     10  C   UNL     1       2.547   2.961  17.805  0.00  0.00    +0.000 A 
ATOM     11  C   UNL     1       2.562   4.345  17.668  0.00  0.00    +0.000 A 
ATOM     12  C   UNL     1       2.403   5.220  18.778  0.00  0.00    +0.000 A 
BRANCH   8  13
ATOM     13  N   UNL     1       2.205   2.673  21.475  0.00  0.00    +0.000 N 
ATOM     14  O   UNL     1       3.262   2.220  21.936  0.00  0.00    +0.000 OA
ATOM     15  O   UNL     1       1.084   2.548  21.990  0.00  0.00    +0.000 OA
ENDBRANCH   8  13
ENDBRANCH   1   3
BRANCH   1  16
ATOM     16  C   UNL     1       4.111   7.737  17.068  0.00  0.00    +0.000 C 
BRANCH  16  21
ATOM     17  C   UNL     1       7.021   5.258  17.264  0.00  0.00    +0.000 A 
ATOM     18  C   UNL     1       6.985   4.664  15.998  0.00  0.00    +0.000 A 
ATOM     19  C   UNL     1       6.034   5.073  15.068  0.00  0.00    +0.000 A 
ATOM     20  C   UNL     1       5.112   6.069  15.398  0.00  0.00    +0.000 A 
ATOM     21  C   UNL     1       5.117   6.675  16.663  0.00  0.00    +0.000 A 
ATOM     22  C   UNL     1       6.085   6.254  17.594  0.00  0.00    +0.000 A 
BRANCH  17  24
ATOM     23  N   UNL     1       7.948   5.452  19.513  0.00  0.00    +0.000 N 
ATOM     24  C   UNL     1       8.002   4.829  18.297  0.00  0.00    +0.000 C 
ATOM     25  O   UNL     1       8.811   3.936  18.083  0.00  0.00    +0.000 OA
ATOM     26  H   UNL     1       8.569   5.100  20.232  0.00  0.00    +0.000 HD
ATOM     27  H   UNL     1       7.168   6.021  19.806  0.00  0.00    +0.000 HD
ENDBRANCH  17  24
ENDBRANCH  16  21
ENDBRANCH   1  16
TORSDOF 5
ENDMDL
MODEL 6
REMARK VINA RESULT:      -8.2      4.233      7.878
REMARK  Name = 
REMARK  5 active torsions:
REMARK  status: ('A' for Active; 'I' for Inactive)
REMARK    1  A    between atoms: C_2  and  C_4
REMARK    2  A    between atoms: C_8  and  C_9
REMARK    3  A    between atoms: C_9  and  N_10
REMARK    4  A    between atoms: N_10  and  C_11
REMARK    5  A    between atoms: C_16  and  N_17
REMARK                            x       y       z     vdW  Elec       q    Type
REMARK                         _______ _______ _______ _____ _____    ______ ____
ROOT
ATOM      1  N   UNL     1       1.983   7.328  18.084  0.00  0.00    +0.000 N 
ATOM      2  H   UNL     1       1.297   7.069  17.377  0.00  0.00    +0.000 HD
ENDROOT
BRANCH   1   3
ATOM      3  C   UNL     1       2.988   6.355  18.161  0.00  0.00    +0.000 A 
ATOM      4  C   UNL     1       4.183   6.432  17.452  0.00  0.00    +0.000 A 
ATOM      5  C   UNL     1       5.076   5.382  17.542  0.00  0.00    +0.000 A 
ATOM      6  N   UNL     1       4.862   4.268  18.270  0.00  0.00    +0.000 NA
ATOM      7  C   UNL     1       3.744   4.195  19.024  0.00  0.00    +0.000 A 
ATOM      8  C   UNL     1       3.465   3.097  19.840  0.00  0.00    +0.000 A 
ATOM      9  C   UNL     1       2.404   3.043  20.756  0.00  0.00    +0.000 A 
ATOM     10  C   UNL     1       1.551   4.129  20.844  0.00  0.00    +0.000 A 
ATOM     11  C   UNL     1       1.737   5.206  19.984  0.00  0.00    +0.000 A 
ATOM     12  C   UNL     1       2.808   5.255  19.049  0.00  0.00    +0.000 A 
BRANCH   8  13
ATOM     13  N   UNL     1       4.292   1.917  19.721  0.00  0.00    +0.000 N 
ATOM     14  O   UNL     1       3.980   1.087  18.856  0.00  0.00    +0.000 OA
ATOM     15  O   UNL     1       5.179   1.767  20.574  0.00  0.00    +0.000 OA
ENDBRANCH   8  13
ENDBRANCH   1   3
BRANCH   1  16
ATOM     16  C   UNL     1       2.184   8.772  18.126  0.00  0.00    +0.000 C 
BRANCH  16  21
ATOM     17  C   UNL     1      -0.388  11.268  19.467  0.00  0.00    +0.000 A 
ATOM     18  C   UNL     1      -0.606  10.794  20.766  0.00  0.00    +0.000 A 
ATOM     19  C   UNL     1       0.090   9.678  21.221  0.00  0.00    +0.000 A 
ATOM     20  C   UNL     1       0.998   9.027  20.384  0.00  0.00    +0.000 A 
ATOM     21  C   UNL     1       1.230   9.473  19.074  0.00  0.00    +0.000 A 
ATOM     22  C   UNL     1       0.521  10.604  18.626  0.00  0.00    +0.000 A 
BRANCH  17  24
ATOM     23  N   UNL     1      -1.155  12.604  17.575  0.00  0.00    +0.000 N 
ATOM     24  C   UNL     1      -1.133  12.439  18.932  0.00  0.00    +0.000 C 
ATOM     25  O   UNL     1      -1.727  13.215  19.670  0.00  0.00    +0.000 OA
ATOM     26  H   UNL     1      -1.727  13.360  17.217  0.00  0.00    +0.000 HD
ATOM     27  H   UNL     1      -0.879  11.880  16.928  0.00  0.00    +0.000 HD
ENDBRANCH  17  24
ENDBRANCH  16  21
ENDBRANCH   1  16
TORSDOF 5
ENDMDL
MODEL 7
REMARK VINA RESULT:      -8.2      4.105      7.429
REMARK  Name = 
REMARK  5 active torsions:
REMARK  status: ('A' for Active; 'I' for Inactive)
REMARK    1  A    between atoms: C_2  and  C_4
REMARK    2  A    between atoms: C_8  and  C_9
REMARK    3  A    between atoms: C_9  and  N_10
REMARK    4  A    between atoms: N_10  and  C_11
REMARK    5  A    between atoms: C_16  and  N_17
REMARK                            x       y       z     vdW  Elec       q    Type
REMARK                         _______ _______ _______ _____ _____    ______ ____
ROOT
ATOM      1  N   UNL     1       2.129   7.309  18.044  0.00  0.00    +0.000 N 
ATOM      2  H   UNL     1       1.504   7.110  17.265  0.00  0.00    +0.000 HD
ENDROOT
BRANCH   1   3
ATOM      3  C   UNL     1       3.106   6.310  18.147  0.00  0.00    +0.000 A 
ATOM      4  C   UNL     1       4.311   6.344  17.454  0.00  0.00    +0.000 A 
ATOM      5  C   UNL     1       5.173   5.270  17.569  0.00  0.00    +0.000 A 
ATOM      6  N   UNL     1       4.917   4.173  18.308  0.00  0.00    +0.000 NA
ATOM      7  C   UNL     1       3.788   4.141  19.047  0.00  0.00    +0.000 A 
ATOM      8  C   UNL     1       3.467   3.061  19.873  0.00  0.00    +0.000 A 
ATOM      9  C   UNL     1       2.392   3.049  20.775  0.00  0.00    +0.000 A 
ATOM     10  C   UNL     1       1.569   4.159  20.837  0.00  0.00    +0.000 A 
ATOM     11  C   UNL     1       1.797   5.220  19.966  0.00  0.00    +0.000 A 
ATOM     12  C   UNL     1       2.882   5.226  19.046  0.00  0.00    +0.000 A 
BRANCH   8  13
ATOM     13  N   UNL     1       4.262   1.857  19.781  0.00  0.00    +0.000 N 
ATOM     14  O   UNL     1       5.210   1.739  20.570  0.00  0.00    +0.000 OA
ATOM     15  O   UNL     1       4.010   1.090  18.840  0.00  0.00    +0.000 OA
ENDBRANCH   8  13
ENDBRANCH   1   3
BRANCH   1  16
ATOM     16  C   UNL     1       2.353   8.743  18.193  0.00  0.00    +0.000 C 
BRANCH  16  21
ATOM     17  C   UNL     1      -1.083  10.428  18.262  0.00  0.00    +0.000 A 
ATOM     18  C   UNL     1      -1.200  10.798  19.606  0.00  0.00    +0.000 A 
ATOM     19  C   UNL     1      -0.163  10.523  20.493  0.00  0.00    +0.000 A 
ATOM     20  C   UNL     1       0.989   9.872  20.046  0.00  0.00    +0.000 A 
ATOM     21  C   UNL     1       1.131   9.480  18.707  0.00  0.00    +0.000 A 
ATOM     22  C   UNL     1       0.076   9.766  17.820  0.00  0.00    +0.000 A 
BRANCH  17  24
ATOM     23  N   UNL     1      -2.179  11.877  16.634  0.00  0.00    +0.000 N 
ATOM     24  C   UNL     1      -2.180  10.677  17.288  0.00  0.00    +0.000 C 
ATOM     25  O   UNL     1      -3.038   9.835  17.058  0.00  0.00    +0.000 OA
ATOM     26  H   UNL     1      -2.886  12.007  15.919  0.00  0.00    +0.000 HD
ATOM     27  H   UNL     1      -1.383  12.498  16.621  0.00  0.00    +0.000 HD
ENDBRANCH  17  24
ENDBRANCH  16  21
ENDBRANCH   1  16
TORSDOF 5
ENDMDL
MODEL 8
REMARK VINA RESULT:      -8.1      4.693      7.325
REMARK  Name = 
REMARK  5 active torsions:
REMARK  status: ('A' for Active; 'I' for Inactive)
REMARK    1  A    between atoms: C_2  and  C_4
REMARK    2  A    between atoms: C_8  and  C_9
REMARK    3  A    between atoms: C_9  and  N_10
REMARK    4  A    between atoms: N_10  and  C_11
REMARK    5  A    between atoms: C_16  and  N_17
REMARK                            x       y       z     vdW  Elec       q    Type
REMARK                         _______ _______ _______ _____ _____    ______ ____
ROOT
ATOM      1  N   UNL     1       2.235   6.848  20.517  0.00  0.00    +0.000 N 
ATOM      2  H   UNL     1       3.209   6.934  20.802  0.00  0.00    +0.000 HD
ENDROOT
BRANCH   1   3
ATOM      3  C   UNL     1       1.805   8.032  19.903  0.00  0.00    +0.000 A 
ATOM      4  C   UNL     1       2.078   8.348  18.576  0.00  0.00    +0.000 A 
ATOM      5  C   UNL     1       1.671   9.576  18.090  0.00  0.00    +0.000 A 
ATOM      6  N   UNL     1       1.028  10.504  18.826  0.00  0.00    +0.000 NA
ATOM      7  C   UNL     1       0.687  10.199  20.096  0.00  0.00    +0.000 A 
ATOM      8  C   UNL     1      -0.016  11.086  20.914  0.00  0.00    +0.000 A 
ATOM      9  C   UNL     1      -0.529  10.757  22.178  0.00  0.00    +0.000 A 
ATOM     10  C   UNL     1      -0.302   9.485  22.673  0.00  0.00    +0.000 A 
ATOM     11  C   UNL     1       0.474   8.600  21.932  0.00  0.00    +0.000 A 
ATOM     12  C   UNL     1       1.001   8.938  20.655  0.00  0.00    +0.000 A 
BRANCH   8  13
ATOM     13  N   UNL     1      -0.209  12.444  20.459  0.00  0.00    +0.000 N 
ATOM     14  O   UNL     1       0.667  13.272  20.750  0.00  0.00    +0.000 OA
ATOM     15  O   UNL     1      -1.293  12.705  19.916  0.00  0.00    +0.000 OA
ENDBRANCH   8  13
ENDBRANCH   1   3
BRANCH   1  16
ATOM     16  C   UNL     1       1.929   5.493  20.072  0.00  0.00    +0.000 C 
BRANCH  16  21
ATOM     17  C   UNL     1       5.303   4.642  18.479  0.00  0.00    +0.000 A 
ATOM     18  C   UNL     1       4.917   3.919  17.344  0.00  0.00    +0.000 A 
ATOM     19  C   UNL     1       3.565   3.720  17.078  0.00  0.00    +0.000 A 
ATOM     20  C   UNL     1       2.595   4.231  17.943  0.00  0.00    +0.000 A 
ATOM     21  C   UNL     1       2.953   4.950  19.093  0.00  0.00    +0.000 A 
ATOM     22  C   UNL     1       4.323   5.147  19.350  0.00  0.00    +0.000 A 
BRANCH  17  24
ATOM     23  N   UNL     1       7.664   4.439  17.900  0.00  0.00    +0.000 N 
ATOM     24  C   UNL     1       6.737   4.852  18.815  0.00  0.00    +0.000 C 
ATOM     25  O   UNL     1       7.079   5.396  19.857  0.00  0.00    +0.000 OA
ATOM     26  H   UNL     1       8.633   4.655  18.104  0.00  0.00    +0.000 HD
ATOM     27  H   UNL     1       7.430   4.198  16.947  0.00  0.00    +0.000 HD
ENDBRANCH  17  24
ENDBRANCH  16  21
ENDBRANCH   1  16
TORSDOF 5
ENDMDL
MODEL 9
REMARK VINA RESULT:      -8.0      4.002      8.253
REMARK  Name = 
REMARK  5 active torsions:
REMARK  status: ('A' for Active; 'I' for Inactive)
REMARK    1  A    between atoms: C_2  and  C_4
REMARK    2  A    between atoms: C_8  and  C_9
REMARK    3  A    between atoms: C_9  and  N_10
REMARK    4  A    between atoms: N_10  and  C_11
REMARK    5  A    between atoms: C_16  and  N_17
REMARK                            x       y       z     vdW  Elec       q    Type
REMARK                         _______ _______ _______ _____ _____    ______ ____
ROOT
ATOM      1  N   UNL     1       2.001   7.435  19.207  0.00  0.00    +0.000 N 
ATOM      2  H   UNL     1       1.078   7.031  19.358  0.00  0.00    +0.000 HD
ENDROOT
BRANCH   1   3
ATOM      3  C   UNL     1       2.934   6.423  18.946  0.00  0.00    +0.000 A 
ATOM      4  C   UNL     1       3.983   6.564  18.043  0.00  0.00    +0.000 A 
ATOM      5  C   UNL     1       4.803   5.478  17.803  0.00  0.00    +0.000 A 
ATOM      6  N   UNL     1       4.647   4.272  18.384  0.00  0.00    +0.000 NA
ATOM      7  C   UNL     1       3.682   4.124  19.316  0.00  0.00    +0.000 A 
ATOM      8  C   UNL     1       3.479   2.921  19.997  0.00  0.00    +0.000 A 
ATOM      9  C   UNL     1       2.601   2.765  21.079  0.00  0.00    +0.000 A 
ATOM     10  C   UNL     1       1.855   3.855  21.489  0.00  0.00    +0.000 A 
ATOM     11  C   UNL     1       1.957   5.048  20.780  0.00  0.00    +0.000 A 
ATOM     12  C   UNL     1       2.841   5.203  19.677  0.00  0.00    +0.000 A 
BRANCH   8  13
ATOM     13  N   UNL     1       4.188   1.743  19.548  0.00  0.00    +0.000 N 
ATOM     14  O   UNL     1       5.217   1.429  20.163  0.00  0.00    +0.000 OA
ATOM     15  O   UNL     1       3.779   1.206  18.508  0.00  0.00    +0.000 OA
ENDBRANCH   8  13
ENDBRANCH   1   3
BRANCH   1  16
ATOM     16  C   UNL     1       1.914   8.718  18.518  0.00  0.00    +0.000 C 
BRANCH  16  21
ATOM     17  C   UNL     1      -0.341  10.480  21.059  0.00  0.00    +0.000 A 
ATOM     18  C   UNL     1      -1.098  11.325  20.241  0.00  0.00    +0.000 A 
ATOM     19  C   UNL     1      -0.898  11.317  18.864  0.00  0.00    +0.000 A 
ATOM     20  C   UNL     1       0.061  10.474  18.298  0.00  0.00    +0.000 A 
ATOM     21  C   UNL     1       0.842   9.624  19.094  0.00  0.00    +0.000 A 
ATOM     22  C   UNL     1       0.629   9.640  20.485  0.00  0.00    +0.000 A 
BRANCH  17  24
ATOM     23  N   UNL     1      -0.548   9.265  23.165  0.00  0.00    +0.000 N 
ATOM     24  C   UNL     1      -0.503  10.479  22.538  0.00  0.00    +0.000 C 
ATOM     25  O   UNL     1      -0.568  11.520  23.178  0.00  0.00    +0.000 OA
ATOM     26  H   UNL     1      -0.582   9.276  24.178  0.00  0.00    +0.000 HD
ATOM     27  H   UNL     1      -0.275   8.402  22.717  0.00  0.00    +0.000 HD
ENDBRANCH  17  24
ENDBRANCH  16  21
ENDBRANCH   1  16
TORSDOF 5
ENDMDL
