MODEL 1
REMARK VINA RESULT:      -8.1      0.000      0.000
REMARK  Name = 
REMARK  2 active torsions:
REMARK  status: ('A' for Active; 'I' for Inactive)
REMARK    1  A    between atoms: C_13  and  C_14
REMARK    2  A    between atoms: N_17  and  C_18
REMARK                            x       y       z     vdW  Elec       q    Type
REMARK                         _______ _______ _______ _____ _____    ______ ____
ROOT
ATOM      1  O   UNL     1       1.506   8.371  17.670  0.00  0.00    +0.000 OA
ATOM      2  C   UNL     1       1.462   9.083  18.665  0.00  0.00    +0.000 C 
ATOM      3  N   UNL     1       1.544  10.444  18.554  0.00  0.00    +0.000 N 
ATOM      4  C   UNL     1       0.911  11.344  19.370  0.00  0.00    +0.000 C 
ATOM      5  O   UNL     1       0.722  12.504  19.012  0.00  0.00    +0.000 OA
ATOM      6  C   UNL     1       0.409  10.844  20.670  0.00  0.00    +0.000 A 
ATOM      7  C   UNL     1      -0.264  11.741  21.515  0.00  0.00    +0.000 A 
ATOM      8  C   UNL     1      -0.762  11.306  22.739  0.00  0.00    +0.000 A 
ATOM      9  C   UNL     1      -0.594   9.979  23.117  0.00  0.00    +0.000 A 
ATOM     10  C   UNL     1       0.068   9.081  22.270  0.00  0.00    +0.000 A 
ATOM     11  C   UNL     1       0.589   9.499  21.032  0.00  0.00    +0.000 A 
ATOM     12  C   UNL     1       1.253   8.585  20.067  0.00  0.00    +0.000 C 
ATOM     13  C   UNL     1       1.710   7.362  20.414  0.00  0.00    +0.000 C 
ATOM     14  H   UNL     1       1.712  10.781  17.616  0.00  0.00    +0.000 HD
ENDROOT
BRANCH  13  15
ATOM     15  C   UNL     1       2.351   6.409  19.579  0.00  0.00    +0.000 A 
ATOM     16  C   UNL     1       1.879   5.190  19.073  0.00  0.00    +0.000 A 
ATOM     17  N   UNL     1       2.770   4.596  18.275  0.00  0.00    +0.000 NA
ATOM     18  N   UNL     1       3.868   5.401  18.328  0.00  0.00    +0.000 N 
ATOM     19  C   UNL     1       3.615   6.542  19.061  0.00  0.00    +0.000 A 
BRANCH  18  20
ATOM     20  C   UNL     1       5.081   5.046  17.673  0.00  0.00    +0.000 A 
ATOM     21  C   UNL     1       6.291   5.086  18.381  0.00  0.00    +0.000 A 
ATOM     22  C   UNL     1       7.488   4.754  17.740  0.00  0.00    +0.000 A 
ATOM     23  C   UNL     1       7.486   4.392  16.394  0.00  0.00    +0.000 A 
ATOM     24  C   UNL     1       6.287   4.350  15.686  0.00  0.00    +0.000 A 
ATOM     25  C   UNL     1       5.085   4.672  16.321  0.00  0.00    +0.000 A 
ENDBRANCH  18  20
ENDBRANCH  13  15
TORSDOF 2
ENDMDL
MODEL 2
REMARK VINA RESULT:      -8.1      2.610      8.317
REMARK  Name = 
REMARK  2 active torsions:
REMARK  status: ('A' for Active; 'I' for Inactive)
REMARK    1  A    between atoms: C_13  and  C_14
REMARK    2  A    between atoms: N_17  and  C_18
REMARK                            x       y       z     vdW  Elec       q    Type
REMARK                         _______ _______ _______ _____ _____    ______ ____
ROOT
ATOM      1  O   UNL     1       1.752   6.028  19.498  0.00  0.00    +0.000 OA
ATOM      2  C   UNL     1       2.912   5.908  19.122  0.00  0.00    +0.000 C 
ATOM      3  N   UNL     1       3.752   5.014  19.726  0.00  0.00    +0.000 N 
ATOM      4  C   UNL     1       4.754   4.322  19.099  0.00  0.00    +0.000 C 
ATOM      5  O   UNL     1       5.218   3.294  19.584  0.00  0.00    +0.000 OA
ATOM      6  C   UNL     1       5.209   4.831  17.785  0.00  0.00    +0.000 A 
ATOM      7  C   UNL     1       6.219   4.127  17.111  0.00  0.00    +0.000 A 
ATOM      8  C   UNL     1       6.664   4.565  15.868  0.00  0.00    +0.000 A 
ATOM      9  C   UNL     1       6.100   5.700  15.297  0.00  0.00    +0.000 A 
ATOM     10  C   UNL     1       5.084   6.396  15.964  0.00  0.00    +0.000 A 
ATOM     11  C   UNL     1       4.625   5.979  17.225  0.00  0.00    +0.000 A 
ATOM     12  C   UNL     1       3.516   6.642  17.959  0.00  0.00    +0.000 C 
ATOM     13  C   UNL     1       3.073   7.881  17.651  0.00  0.00    +0.000 C 
ATOM     14  H   UNL     1       3.357   4.539  20.526  0.00  0.00    +0.000 HD
ENDROOT
BRANCH  13  15
ATOM     15  C   UNL     1       2.025   8.606  18.277  0.00  0.00    +0.000 A 
ATOM     16  C   UNL     1       1.867   8.986  19.618  0.00  0.00    +0.000 A 
ATOM     17  N   UNL     1       0.761   9.709  19.810  0.00  0.00    +0.000 NA
ATOM     18  N   UNL     1       0.148   9.729  18.592  0.00  0.00    +0.000 N 
ATOM     19  C   UNL     1       0.930   9.121  17.631  0.00  0.00    +0.000 A 
BRANCH  18  20
ATOM     20  C   UNL     1      -1.129  10.330  18.413  0.00  0.00    +0.000 A 
ATOM     21  C   UNL     1      -1.950   9.919  17.353  0.00  0.00    +0.000 A 
ATOM     22  C   UNL     1      -3.199  10.516  17.161  0.00  0.00    +0.000 A 
ATOM     23  C   UNL     1      -3.631  11.527  18.018  0.00  0.00    +0.000 A 
ATOM     24  C   UNL     1      -2.821  11.940  19.073  0.00  0.00    +0.000 A 
ATOM     25  C   UNL     1      -1.574  11.342  19.276  0.00  0.00    +0.000 A 
ENDBRANCH  18  20
ENDBRANCH  13  15
TORSDOF 2
ENDMDL
MODEL 3
REMARK VINA RESULT:      -8.0      2.613      8.270
REMARK  Name = 
REMARK  2 active torsions:
REMARK  status: ('A' for Active; 'I' for Inactive)
REMARK    1  A    between atoms: C_13  and  C_14
REMARK    2  A    between atoms: N_17  and  C_18
REMARK                            x       y       z     vdW  Elec       q    Type
REMARK                         _______ _______ _______ _____ _____    ______ ____
ROOT
ATOM      1  O   UNL     1       1.748   6.233  19.688  0.00  0.00    +0.000 OA
ATOM      2  C   UNL     1       2.890   6.123  19.261  0.00  0.00    +0.000 C 
ATOM      3  N   UNL     1       3.777   5.268  19.855  0.00  0.00    +0.000 N 
ATOM      4  C   UNL     1       4.763   4.573  19.206  0.00  0.00    +0.000 C 
ATOM      5  O   UNL     1       5.271   3.572  19.704  0.00  0.00    +0.000 OA
ATOM      6  C   UNL     1       5.144   5.042  17.854  0.00  0.00    +0.000 A 
ATOM      7  C   UNL     1       6.136   4.334  17.157  0.00  0.00    +0.000 A 
ATOM      8  C   UNL     1       6.512   4.735  15.879  0.00  0.00    +0.000 A 
ATOM      9  C   UNL     1       5.896   5.837  15.296  0.00  0.00    +0.000 A 
ATOM     10  C   UNL     1       4.899   6.537  15.986  0.00  0.00    +0.000 A 
ATOM     11  C   UNL     1       4.509   6.157  17.283  0.00  0.00    +0.000 A 
ATOM     12  C   UNL     1       3.423   6.825  18.045  0.00  0.00    +0.000 C 
ATOM     13  C   UNL     1       2.940   8.043  17.714  0.00  0.00    +0.000 C 
ATOM     14  H   UNL     1       3.431   4.814  20.690  0.00  0.00    +0.000 HD
ENDROOT
BRANCH  13  15
ATOM     15  C   UNL     1       1.907   8.769  18.364  0.00  0.00    +0.000 A 
ATOM     16  C   UNL     1       1.800   9.186  19.699  0.00  0.00    +0.000 A 
ATOM     17  N   UNL     1       0.690   9.897  19.917  0.00  0.00    +0.000 NA
ATOM     18  N   UNL     1       0.027   9.872  18.727  0.00  0.00    +0.000 N 
ATOM     19  C   UNL     1       0.777   9.249  17.751  0.00  0.00    +0.000 A 
BRANCH  18  20
ATOM     20  C   UNL     1      -1.267  10.448  18.587  0.00  0.00    +0.000 A 
ATOM     21  C   UNL     1      -1.635  11.538  19.389  0.00  0.00    +0.000 A 
ATOM     22  C   UNL     1      -2.909  12.099  19.268  0.00  0.00    +0.000 A 
ATOM     23  C   UNL     1      -3.822  11.572  18.355  0.00  0.00    +0.000 A 
ATOM     24  C   UNL     1      -3.463  10.491  17.555  0.00  0.00    +0.000 A 
ATOM     25  C   UNL     1      -2.188   9.930  17.664  0.00  0.00    +0.000 A 
ENDBRANCH  18  20
ENDBRANCH  13  15
TORSDOF 2
ENDMDL
MODEL 4
REMARK VINA RESULT:      -7.9      2.344      8.389
REMARK  Name = 
REMARK  2 active torsions:
REMARK  status: ('A' for Active; 'I' for Inactive)
REMARK    1  A    between atoms: C_13  and  C_14
REMARK    2  A    between atoms: N_17  and  C_18
REMARK                            x       y       z     vdW  Elec       q    Type
REMARK                         _______ _______ _______ _____ _____    ______ ____
ROOT
ATOM      1  O   UNL     1       1.253   5.340  18.525  0.00  0.00    +0.000 OA
ATOM      2  C   UNL     1       2.410   5.042  18.260  0.00  0.00    +0.000 C 
ATOM      3  N   UNL     1       2.873   3.775  18.482  0.00  0.00    +0.000 N 
ATOM      4  C   UNL     1       3.812   3.130  17.721  0.00  0.00    +0.000 C 
ATOM      5  O   UNL     1       3.914   1.907  17.737  0.00  0.00    +0.000 OA
ATOM      6  C   UNL     1       4.652   3.964  16.831  0.00  0.00    +0.000 A 
ATOM      7  C   UNL     1       5.606   3.326  16.023  0.00  0.00    +0.000 A 
ATOM      8  C   UNL     1       6.405   4.074  15.165  0.00  0.00    +0.000 A 
ATOM      9  C   UNL     1       6.250   5.454  15.109  0.00  0.00    +0.000 A 
ATOM     10  C   UNL     1       5.291   6.090  15.906  0.00  0.00    +0.000 A 
ATOM     11  C   UNL     1       4.478   5.358  16.790  0.00  0.00    +0.000 A 
ATOM     12  C   UNL     1       3.408   5.966  17.622  0.00  0.00    +0.000 C 
ATOM     13  C   UNL     1       3.333   7.294  17.858  0.00  0.00    +0.000 C 
ATOM     14  H   UNL     1       2.213   3.159  18.936  0.00  0.00    +0.000 HD
ENDROOT
BRANCH  13  15
ATOM     15  C   UNL     1       2.358   7.981  18.629  0.00  0.00    +0.000 A 
ATOM     16  C   UNL     1       2.074   7.905  20.000  0.00  0.00    +0.000 A 
ATOM     17  N   UNL     1       1.108   8.752  20.364  0.00  0.00    +0.000 NA
ATOM     18  N   UNL     1       0.701   9.329  19.198  0.00  0.00    +0.000 N 
ATOM     19  C   UNL     1       1.490   8.925  18.140  0.00  0.00    +0.000 A 
BRANCH  18  20
ATOM     20  C   UNL     1      -0.398  10.232  19.160  0.00  0.00    +0.000 A 
ATOM     21  C   UNL     1      -1.239  10.259  18.038  0.00  0.00    +0.000 A 
ATOM     22  C   UNL     1      -2.311  11.154  17.987  0.00  0.00    +0.000 A 
ATOM     23  C   UNL     1      -2.543  12.030  19.046  0.00  0.00    +0.000 A 
ATOM     24  C   UNL     1      -1.712  12.009  20.163  0.00  0.00    +0.000 A 
ATOM     25  C   UNL     1      -0.643  11.110  20.226  0.00  0.00    +0.000 A 
ENDBRANCH  18  20
ENDBRANCH  13  15
TORSDOF 2
ENDMDL
MODEL 5
REMARK VINA RESULT:      -7.9      1.962      8.207
REMARK  Name = 
REMARK  2 active torsions:
REMARK  status: ('A' for Active; 'I' for Inactive)
REMARK    1  A    between atoms: C_13  and  C_14
REMARK    2  A    between atoms: N_17  and  C_18
REMARK                            x       y       z     vdW  Elec       q    Type
REMARK                         _______ _______ _______ _____ _____    ______ ____
ROOT
ATOM      1  O   UNL     1       1.165   5.725  17.930  0.00  0.00    +0.000 OA
ATOM      2  C   UNL     1       2.335   5.363  17.911  0.00  0.00    +0.000 C 
ATOM      3  N   UNL     1       2.673   4.079  18.241  0.00  0.00    +0.000 N 
ATOM      4  C   UNL     1       3.711   3.369  17.697  0.00  0.00    +0.000 C 
ATOM      5  O   UNL     1       3.741   2.143  17.750  0.00  0.00    +0.000 OA
ATOM      6  C   UNL     1       4.759   4.138  16.987  0.00  0.00    +0.000 A 
ATOM      7  C   UNL     1       5.822   3.433  16.401  0.00  0.00    +0.000 A 
ATOM      8  C   UNL     1       6.819   4.119  15.715  0.00  0.00    +0.000 A 
ATOM      9  C   UNL     1       6.753   5.503  15.609  0.00  0.00    +0.000 A 
ATOM     10  C   UNL     1       5.688   6.206  16.185  0.00  0.00    +0.000 A 
ATOM     11  C   UNL     1       4.673   5.537  16.892  0.00  0.00    +0.000 A 
ATOM     12  C   UNL     1       3.491   6.219  17.479  0.00  0.00    +0.000 C 
ATOM     13  C   UNL     1       3.441   7.555  17.678  0.00  0.00    +0.000 C 
ATOM     14  H   UNL     1       1.902   3.508  18.558  0.00  0.00    +0.000 HD
ENDROOT
BRANCH  13  15
ATOM     15  C   UNL     1       2.368   8.308  18.223  0.00  0.00    +0.000 A 
ATOM     16  C   UNL     1       1.399   9.092  17.581  0.00  0.00    +0.000 A 
ATOM     17  N   UNL     1       0.517   9.609  18.441  0.00  0.00    +0.000 NA
ATOM     18  N   UNL     1       0.968   9.222  19.668  0.00  0.00    +0.000 N 
ATOM     19  C   UNL     1       2.053   8.377  19.557  0.00  0.00    +0.000 A 
BRANCH  18  20
ATOM     20  C   UNL     1       0.339   9.666  20.864  0.00  0.00    +0.000 A 
ATOM     21  C   UNL     1      -0.422  10.845  20.855  0.00  0.00    +0.000 A 
ATOM     22  C   UNL     1      -1.030  11.296  22.030  0.00  0.00    +0.000 A 
ATOM     23  C   UNL     1      -0.876  10.582  23.217  0.00  0.00    +0.000 A 
ATOM     24  C   UNL     1      -0.123   9.411  23.233  0.00  0.00    +0.000 A 
ATOM     25  C   UNL     1       0.481   8.949  22.061  0.00  0.00    +0.000 A 
ENDBRANCH  18  20
ENDBRANCH  13  15
TORSDOF 2
ENDMDL
MODEL 6
REMARK VINA RESULT:      -7.9      2.419      8.326
REMARK  Name = 
REMARK  2 active torsions:
REMARK  status: ('A' for Active; 'I' for Inactive)
REMARK    1  A    between atoms: C_13  and  C_14
REMARK    2  A    between atoms: N_17  and  C_18
REMARK                            x       y       z     vdW  Elec       q    Type
REMARK                         _______ _______ _______ _____ _____    ______ ____
ROOT
ATOM      1  O   UNL     1       1.230   5.538  18.116  0.00  0.00    +0.000 OA
ATOM      2  C   UNL     1       2.405   5.221  17.982  0.00  0.00    +0.000 C 
ATOM      3  N   UNL     1       2.814   3.940  18.227  0.00  0.00    +0.000 N 
ATOM      4  C   UNL     1       3.824   3.292  17.566  0.00  0.00    +0.000 C 
ATOM      5  O   UNL     1       3.901   2.066  17.565  0.00  0.00    +0.000 OA
ATOM      6  C   UNL     1       4.779   4.127  16.803  0.00  0.00    +0.000 A 
ATOM      7  C   UNL     1       5.810   3.486  16.098  0.00  0.00    +0.000 A 
ATOM      8  C   UNL     1       6.719   4.235  15.358  0.00  0.00    +0.000 A 
ATOM      9  C   UNL     1       6.598   5.619  15.317  0.00  0.00    +0.000 A 
ATOM     10  C   UNL     1       5.563   6.258  16.012  0.00  0.00    +0.000 A 
ATOM     11  C   UNL     1       4.638   5.524  16.775  0.00  0.00    +0.000 A 
ATOM     12  C   UNL     1       3.488   6.137  17.489  0.00  0.00    +0.000 C 
ATOM     13  C   UNL     1       3.411   7.461  17.748  0.00  0.00    +0.000 C 
ATOM     14  H   UNL     1       2.093   3.328  18.585  0.00  0.00    +0.000 HD
ENDROOT
BRANCH  13  15
ATOM     15  C   UNL     1       2.364   8.152  18.415  0.00  0.00    +0.000 A 
ATOM     16  C   UNL     1       2.037   8.195  19.777  0.00  0.00    +0.000 A 
ATOM     17  N   UNL     1       1.003   9.004  20.022  0.00  0.00    +0.000 NA
ATOM     18  N   UNL     1       0.601   9.429  18.791  0.00  0.00    +0.000 N 
ATOM     19  C   UNL     1       1.453   8.977  17.805  0.00  0.00    +0.000 A 
BRANCH  18  20
ATOM     20  C   UNL     1      -0.554  10.244  18.628  0.00  0.00    +0.000 A 
ATOM     21  C   UNL     1      -0.852  11.230  19.581  0.00  0.00    +0.000 A 
ATOM     22  C   UNL     1      -1.993  12.023  19.436  0.00  0.00    +0.000 A 
ATOM     23  C   UNL     1      -2.845  11.832  18.349  0.00  0.00    +0.000 A 
ATOM     24  C   UNL     1      -2.556  10.856  17.400  0.00  0.00    +0.000 A 
ATOM     25  C   UNL     1      -1.412  10.064  17.533  0.00  0.00    +0.000 A 
ENDBRANCH  18  20
ENDBRANCH  13  15
TORSDOF 2
ENDMDL
MODEL 7
REMARK VINA RESULT:      -7.8      1.866      8.131
REMARK  Name = 
REMARK  2 active torsions:
REMARK  status: ('A' for Active; 'I' for Inactive)
REMARK    1  A    between atoms: C_13  and  C_14
REMARK    2  A    between atoms: N_17  and  C_18
REMARK                            x       y       z     vdW  Elec       q    Type
REMARK                         _______ _______ _______ _____ _____    ______ ____
ROOT
ATOM      1  O   UNL     1       1.710   5.955  19.346  0.00  0.00    +0.000 OA
ATOM      2  C   UNL     1       2.897   5.851  19.061  0.00  0.00    +0.000 C 
ATOM      3  N   UNL     1       3.695   4.952  19.712  0.00  0.00    +0.000 N 
ATOM      4  C   UNL     1       4.749   4.280  19.154  0.00  0.00    +0.000 C 
ATOM      5  O   UNL     1       5.182   3.245  19.654  0.00  0.00    +0.000 OA
ATOM      6  C   UNL     1       5.301   4.817  17.889  0.00  0.00    +0.000 A 
ATOM      7  C   UNL     1       6.368   4.133  17.283  0.00  0.00    +0.000 A 
ATOM      8  C   UNL     1       6.905   4.599  16.088  0.00  0.00    +0.000 A 
ATOM      9  C   UNL     1       6.377   5.741  15.495  0.00  0.00    +0.000 A 
ATOM     10  C   UNL     1       5.307   6.416  16.093  0.00  0.00    +0.000 A 
ATOM     11  C   UNL     1       4.753   5.971  17.307  0.00  0.00    +0.000 A 
ATOM     12  C   UNL     1       3.584   6.612  17.963  0.00  0.00    +0.000 C 
ATOM     13  C   UNL     1       3.156   7.854  17.644  0.00  0.00    +0.000 C 
ATOM     14  H   UNL     1       3.242   4.458  20.470  0.00  0.00    +0.000 HD
ENDROOT
BRANCH  13  15
ATOM     15  C   UNL     1       2.055   8.558  18.200  0.00  0.00    +0.000 A 
ATOM     16  C   UNL     1       0.995   9.220  17.564  0.00  0.00    +0.000 A 
ATOM     17  N   UNL     1       0.120   9.725  18.438  0.00  0.00    +0.000 NA
ATOM     18  N   UNL     1       0.662   9.457  19.659  0.00  0.00    +0.000 N 
ATOM     19  C   UNL     1       1.804   8.692  19.542  0.00  0.00    +0.000 A 
BRANCH  18  20
ATOM     20  C   UNL     1       0.060   9.932  20.859  0.00  0.00    +0.000 A 
ATOM     21  C   UNL     1      -0.642  11.147  20.853  0.00  0.00    +0.000 A 
ATOM     22  C   UNL     1      -1.222  11.627  22.029  0.00  0.00    +0.000 A 
ATOM     23  C   UNL     1      -1.098  10.906  23.216  0.00  0.00    +0.000 A 
ATOM     24  C   UNL     1      -0.403   9.699  23.229  0.00  0.00    +0.000 A 
ATOM     25  C   UNL     1       0.173   9.208  22.055  0.00  0.00    +0.000 A 
ENDBRANCH  18  20
ENDBRANCH  13  15
TORSDOF 2
ENDMDL
MODEL 8
REMARK VINA RESULT:      -7.6      2.513      8.340
REMARK  Name = 
REMARK  2 active torsions:
REMARK  status: ('A' for Active; 'I' for Inactive)
REMARK    1  A    between atoms: C_13  and  C_14
REMARK    2  A    between atoms: N_17  and  C_18
REMARK                            x       y       z     vdW  Elec       q    Type
REMARK                         _______ _______ _______ _____ _____    ______ ____
ROOT
ATOM      1  O   UNL     1       4.691   4.885  20.106  0.00  0.00    +0.000 OA
ATOM      2  C   UNL     1       5.265   5.100  19.045  0.00  0.00    +0.000 C 
ATOM      3  N   UNL     1       6.628   5.030  18.963  0.00  0.00    +0.000 N 
ATOM      4  C   UNL     1       7.335   4.615  17.865  0.00  0.00    +0.000 C 
ATOM      5  O   UNL     1       8.495   4.227  17.963  0.00  0.00    +0.000 OA
ATOM      6  C   UNL     1       6.620   4.593  16.568  0.00  0.00    +0.000 A 
ATOM      7  C   UNL     1       7.314   4.151  15.431  0.00  0.00    +0.000 A 
ATOM      8  C   UNL     1       6.673   4.103  14.198  0.00  0.00    +0.000 A 
ATOM      9  C   UNL     1       5.342   4.492  14.099  0.00  0.00    +0.000 A 
ATOM     10  C   UNL     1       4.646   4.923  15.235  0.00  0.00    +0.000 A 
ATOM     11  C   UNL     1       5.274   4.990  16.491  0.00  0.00    +0.000 A 
ATOM     12  C   UNL     1       4.577   5.387  17.742  0.00  0.00    +0.000 C 
ATOM     13  C   UNL     1       3.388   6.030  17.743  0.00  0.00    +0.000 C 
ATOM     14  H   UNL     1       7.096   4.864  19.844  0.00  0.00    +0.000 HD
ENDROOT
BRANCH  13  15
ATOM     15  C   UNL     1       2.634   6.450  18.871  0.00  0.00    +0.000 A 
ATOM     16  C   UNL     1       2.125   5.706  19.944  0.00  0.00    +0.000 A 
ATOM     17  N   UNL     1       1.506   6.475  20.843  0.00  0.00    +0.000 NA
ATOM     18  N   UNL     1       1.542   7.727  20.305  0.00  0.00    +0.000 N 
ATOM     19  C   UNL     1       2.279   7.748  19.139  0.00  0.00    +0.000 A 
BRANCH  18  20
ATOM     20  C   UNL     1       0.888   8.824  20.933  0.00  0.00    +0.000 A 
ATOM     21  C   UNL     1       0.571   9.967  20.185  0.00  0.00    +0.000 A 
ATOM     22  C   UNL     1      -0.058  11.054  20.798  0.00  0.00    +0.000 A 
ATOM     23  C   UNL     1      -0.364  11.011  22.158  0.00  0.00    +0.000 A 
ATOM     24  C   UNL     1      -0.052   9.879  22.906  0.00  0.00    +0.000 A 
ATOM     25  C   UNL     1       0.568   8.784  22.299  0.00  0.00    +0.000 A 
ENDBRANCH  18  20
ENDBRANCH  13  15
TORSDOF 2
ENDMDL
MODEL 9
REMARK VINA RESULT:      -7.5      3.137      4.932
REMARK  Name = 
REMARK  2 active torsions:
REMARK  status: ('A' for Active; 'I' for Inactive)
REMARK    1  A    between atoms: C_13  and  C_14
REMARK    2  A    between atoms: N_17  and  C_18
REMARK                            x       y       z     vdW  Elec       q    Type
REMARK                         _______ _______ _______ _____ _____    ______ ____
ROOT
ATOM      1  O   UNL     1       5.169   4.500  18.886  0.00  0.00    +0.000 OA
ATOM      2  C   UNL     1       4.045   4.947  19.077  0.00  0.00    +0.000 C 
ATOM      3  N   UNL     1       3.108   4.216  19.754  0.00  0.00    +0.000 N 
ATOM      4  C   UNL     1       2.135   4.735  20.567  0.00  0.00    +0.000 C 
ATOM      5  O   UNL     1       1.578   4.043  21.415  0.00  0.00    +0.000 OA
ATOM      6  C   UNL     1       1.831   6.177  20.423  0.00  0.00    +0.000 A 
ATOM      7  C   UNL     1       0.853   6.738  21.260  0.00  0.00    +0.000 A 
ATOM      8  C   UNL     1       0.548   8.092  21.164  0.00  0.00    +0.000 A 
ATOM      9  C   UNL     1       1.219   8.884  20.240  0.00  0.00    +0.000 A 
ATOM     10  C   UNL     1       2.202   8.327  19.413  0.00  0.00    +0.000 A 
ATOM     11  C   UNL     1       2.521   6.959  19.483  0.00  0.00    +0.000 A 
ATOM     12  C   UNL     1       3.589   6.319  18.672  0.00  0.00    +0.000 C 
ATOM     13  C   UNL     1       4.119   6.901  17.573  0.00  0.00    +0.000 C 
ATOM     14  H   UNL     1       3.403   3.282  20.004  0.00  0.00    +0.000 HD
ENDROOT
BRANCH  13  15
ATOM     15  C   UNL     1       5.140   6.386  16.730  0.00  0.00    +0.000 A 
ATOM     16  C   UNL     1       6.534   6.476  16.844  0.00  0.00    +0.000 A 
ATOM     17  N   UNL     1       7.164   5.813  15.871  0.00  0.00    +0.000 NA
ATOM     18  N   UNL     1       6.164   5.355  15.066  0.00  0.00    +0.000 N 
ATOM     19  C   UNL     1       4.924   5.634  15.603  0.00  0.00    +0.000 A 
BRANCH  18  20
ATOM     20  C   UNL     1       6.445   4.673  13.849  0.00  0.00    +0.000 A 
ATOM     21  C   UNL     1       7.530   5.078  13.058  0.00  0.00    +0.000 A 
ATOM     22  C   UNL     1       7.802   4.423  11.854  0.00  0.00    +0.000 A 
ATOM     23  C   UNL     1       6.991   3.372  11.429  0.00  0.00    +0.000 A 
ATOM     24  C   UNL     1       5.912   2.965  12.209  0.00  0.00    +0.000 A 
ATOM     25  C   UNL     1       5.639   3.608  13.419  0.00  0.00    +0.000 A 
ENDBRANCH  18  20
ENDBRANCH  13  15
TORSDOF 2
ENDMDL
