MODEL 1
REMARK VINA RESULT:      -9.0      0.000      0.000
REMARK  Name = 
REMARK  5 active torsions:
REMARK  status: ('A' for Active; 'I' for Inactive)
REMARK    1  A    between atoms: C_1  and  N_2
REMARK    2  A    between atoms: C_6  and  C_7
REMARK    3  A    between atoms: C_10  and  N_11
REMARK    4  A    between atoms: N_11  and  S_12
REMARK    5  A    between atoms: S_12  and  C_15
REMARK                            x       y       z     vdW  Elec       q    Type
REMARK                         _______ _______ _______ _____ _____    ______ ____
ROOT
ATOM      1  S   UNL     1       3.036   4.777  19.106  0.00  0.00    +0.000 S 
ATOM      2  O   UNL     1       3.475   3.673  19.935  0.00  0.00    +0.000 OA
ATOM      3  O   UNL     1       1.776   4.726  18.396  0.00  0.00    +0.000 OA
ENDROOT
BRANCH   1   4
ATOM      4  C   UNL     1       4.340   5.110  17.949  0.00  0.00    +0.000 A 
ATOM      5  C   UNL     1       5.451   5.860  18.346  0.00  0.00    +0.000 A 
ATOM      6  C   UNL     1       6.491   6.071  17.441  0.00  0.00    +0.000 A 
ATOM      7  C   UNL     1       6.424   5.516  16.157  0.00  0.00    +0.000 A 
ATOM      8  C   UNL     1       5.318   4.766  15.757  0.00  0.00    +0.000 A 
ATOM      9  C   UNL     1       4.257   4.585  16.655  0.00  0.00    +0.000 A 
ATOM     10  C   UNL     1       5.223   4.215  14.366  0.00  0.00    +0.000 C 
ATOM     11  C   UNL     1       6.524   4.218  13.575  0.00  0.00    +0.000 C 
ATOM     12  C   UNL     1       7.580   5.196  14.026  0.00  0.00    +0.000 C 
ATOM     13  O   UNL     1       8.557   5.453  13.323  0.00  0.00    +0.000 OA
ATOM     14  N   UNL     1       7.479   5.730  15.274  0.00  0.00    +0.000 N 
ATOM     15  H   UNL     1       8.255   6.320  15.549  0.00  0.00    +0.000 HD
ENDBRANCH   1   4
BRANCH   1  16
ATOM     16  N   UNL     1       3.052   6.148  20.095  0.00  0.00    +0.000 N 
ATOM     17  H   UNL     1       3.045   5.900  21.083  0.00  0.00    +0.000 HD
BRANCH  16  21
ATOM     18  C   UNL     1       0.891   9.598  18.923  0.00  0.00    +0.000 A 
ATOM     19  C   UNL     1       1.681   8.897  17.999  0.00  0.00    +0.000 A 
ATOM     20  C   UNL     1       2.403   7.759  18.380  0.00  0.00    +0.000 A 
ATOM     21  C   UNL     1       2.310   7.285  19.684  0.00  0.00    +0.000 A 
ATOM     22  C   UNL     1       1.504   7.942  20.607  0.00  0.00    +0.000 A 
ATOM     23  C   UNL     1       0.800   9.087  20.228  0.00  0.00    +0.000 A 
BRANCH  18  29
ATOM     24  C   UNL     1       1.744  12.635  19.376  0.00  0.00    +0.000 C 
ATOM     25  N   UNL     1       0.527  12.128  18.801  0.00  0.00    +0.000 N 
ATOM     26  C   UNL     1      -0.526  12.905  18.421  0.00  0.00    +0.000 A 
ATOM     27  N   UNL     1      -1.501  12.144  17.989  0.00  0.00    +0.000 NA
ATOM     28  N   UNL     1      -1.084  10.842  18.107  0.00  0.00    +0.000 NA
ATOM     29  C   UNL     1       0.146  10.821  18.596  0.00  0.00    +0.000 A 
ENDBRANCH  18  29
ENDBRANCH  16  21
ENDBRANCH   1  16
TORSDOF 4
ENDMDL
MODEL 2
REMARK VINA RESULT:      -8.9      0.630      1.191
REMARK  Name = 
REMARK  5 active torsions:
REMARK  status: ('A' for Active; 'I' for Inactive)
REMARK    1  A    between atoms: C_1  and  N_2
REMARK    2  A    between atoms: C_6  and  C_7
REMARK    3  A    between atoms: C_10  and  N_11
REMARK    4  A    between atoms: N_11  and  S_12
REMARK    5  A    between atoms: S_12  and  C_15
REMARK                            x       y       z     vdW  Elec       q    Type
REMARK                         _______ _______ _______ _____ _____    ______ ____
ROOT
ATOM      1  S   UNL     1       2.854   4.664  19.379  0.00  0.00    +0.000 S 
ATOM      2  O   UNL     1       3.263   3.530  20.182  0.00  0.00    +0.000 OA
ATOM      3  O   UNL     1       1.606   4.652  18.647  0.00  0.00    +0.000 OA
ENDROOT
BRANCH   1   4
ATOM      4  C   UNL     1       4.182   5.011  18.254  0.00  0.00    +0.000 A 
ATOM      5  C   UNL     1       5.323   5.680  18.707  0.00  0.00    +0.000 A 
ATOM      6  C   UNL     1       6.380   5.900  17.824  0.00  0.00    +0.000 A 
ATOM      7  C   UNL     1       6.299   5.436  16.506  0.00  0.00    +0.000 A 
ATOM      8  C   UNL     1       5.163   4.767  16.050  0.00  0.00    +0.000 A 
ATOM      9  C   UNL     1       4.086   4.577  16.928  0.00  0.00    +0.000 A 
ATOM     10  C   UNL     1       5.054   4.315  14.624  0.00  0.00    +0.000 C 
ATOM     11  C   UNL     1       6.361   4.308  13.843  0.00  0.00    +0.000 C 
ATOM     12  C   UNL     1       7.458   5.203  14.365  0.00  0.00    +0.000 C 
ATOM     13  O   UNL     1       8.453   5.460  13.686  0.00  0.00    +0.000 OA
ATOM     14  N   UNL     1       7.371   5.658  15.645  0.00  0.00    +0.000 N 
ATOM     15  H   UNL     1       8.171   6.191  15.963  0.00  0.00    +0.000 HD
ENDBRANCH   1   4
BRANCH   1  16
ATOM     16  N   UNL     1       2.873   6.006  20.407  0.00  0.00    +0.000 N 
ATOM     17  H   UNL     1       2.791   5.731  21.385  0.00  0.00    +0.000 HD
BRANCH  16  21
ATOM     18  C   UNL     1       0.960   9.588  19.205  0.00  0.00    +0.000 A 
ATOM     19  C   UNL     1       1.728   8.845  18.295  0.00  0.00    +0.000 A 
ATOM     20  C   UNL     1       2.368   7.662  18.687  0.00  0.00    +0.000 A 
ATOM     21  C   UNL     1       2.213   7.188  19.985  0.00  0.00    +0.000 A 
ATOM     22  C   UNL     1       1.426   7.890  20.892  0.00  0.00    +0.000 A 
ATOM     23  C   UNL     1       0.804   9.078  20.503  0.00  0.00    +0.000 A 
BRANCH  18  29
ATOM     24  C   UNL     1      -1.985  10.073  18.088  0.00  0.00    +0.000 C 
ATOM     25  N   UNL     1      -0.973  11.051  18.382  0.00  0.00    +0.000 N 
ATOM     26  C   UNL     1      -1.099  12.386  18.139  0.00  0.00    +0.000 A 
ATOM     27  N   UNL     1       0.012  12.999  18.464  0.00  0.00    +0.000 NA
ATOM     28  N   UNL     1       0.890  12.043  18.910  0.00  0.00    +0.000 NA
ATOM     29  C   UNL     1       0.301  10.858  18.867  0.00  0.00    +0.000 A 
ENDBRANCH  18  29
ENDBRANCH  16  21
ENDBRANCH   1  16
TORSDOF 4
ENDMDL
MODEL 3
REMARK VINA RESULT:      -8.9      1.878      2.682
REMARK  Name = 
REMARK  5 active torsions:
REMARK  status: ('A' for Active; 'I' for Inactive)
REMARK    1  A    between atoms: C_1  and  N_2
REMARK    2  A    between atoms: C_6  and  C_7
REMARK    3  A    between atoms: C_10  and  N_11
REMARK    4  A    between atoms: N_11  and  S_12
REMARK    5  A    between atoms: S_12  and  C_15
REMARK                            x       y       z     vdW  Elec       q    Type
REMARK                         _______ _______ _______ _____ _____    ______ ____
ROOT
ATOM      1  S   UNL     1       4.057   2.919  18.670  0.00  0.00    +0.000 S 
ATOM      2  O   UNL     1       4.461   3.345  19.994  0.00  0.00    +0.000 OA
ATOM      3  O   UNL     1       3.980   1.516  18.326  0.00  0.00    +0.000 OA
ENDROOT
BRANCH   1   4
ATOM      4  C   UNL     1       5.120   3.742  17.511  0.00  0.00    +0.000 A 
ATOM      5  C   UNL     1       6.146   4.572  17.972  0.00  0.00    +0.000 A 
ATOM      6  C   UNL     1       7.005   5.171  17.051  0.00  0.00    +0.000 A 
ATOM      7  C   UNL     1       6.847   4.922  15.683  0.00  0.00    +0.000 A 
ATOM      8  C   UNL     1       5.825   4.094  15.218  0.00  0.00    +0.000 A 
ATOM      9  C   UNL     1       4.940   3.521  16.142  0.00  0.00    +0.000 A 
ATOM     10  C   UNL     1       5.624   3.868  13.749  0.00  0.00    +0.000 C 
ATOM     11  C   UNL     1       6.786   4.291  12.861  0.00  0.00    +0.000 C 
ATOM     12  C   UNL     1       7.731   5.316  13.437  0.00  0.00    +0.000 C 
ATOM     13  O   UNL     1       8.550   5.902  12.728  0.00  0.00    +0.000 OA
ATOM     14  N   UNL     1       7.724   5.523  14.782  0.00  0.00    +0.000 N 
ATOM     15  H   UNL     1       8.429   6.166  15.118  0.00  0.00    +0.000 HD
ENDBRANCH   1   4
BRANCH   1  16
ATOM     16  N   UNL     1       2.555   3.638  18.377  0.00  0.00    +0.000 N 
ATOM     17  H   UNL     1       2.260   3.513  17.410  0.00  0.00    +0.000 HD
BRANCH  16  21
ATOM     18  C   UNL     1       1.616   7.340  20.208  0.00  0.00    +0.000 A 
ATOM     19  C   UNL     1       1.259   6.127  20.817  0.00  0.00    +0.000 A 
ATOM     20  C   UNL     1       1.561   4.899  20.215  0.00  0.00    +0.000 A 
ATOM     21  C   UNL     1       2.261   4.870  19.014  0.00  0.00    +0.000 A 
ATOM     22  C   UNL     1       2.658   6.060  18.412  0.00  0.00    +0.000 A 
ATOM     23  C   UNL     1       2.339   7.283  19.006  0.00  0.00    +0.000 A 
BRANCH  18  29
ATOM     24  C   UNL     1       0.608   9.956  18.692  0.00  0.00    +0.000 C 
ATOM     25  N   UNL     1       0.858   9.782  20.098  0.00  0.00    +0.000 N 
ATOM     26  C   UNL     1       0.775  10.779  21.023  0.00  0.00    +0.000 A 
ATOM     27  N   UNL     1       1.115  10.316  22.200  0.00  0.00    +0.000 NA
ATOM     28  N   UNL     1       1.445   8.994  22.038  0.00  0.00    +0.000 NA
ATOM     29  C   UNL     1       1.290   8.659  20.767  0.00  0.00    +0.000 A 
ENDBRANCH  18  29
ENDBRANCH  16  21
ENDBRANCH   1  16
TORSDOF 4
ENDMDL
MODEL 4
REMARK VINA RESULT:      -8.6      1.489      2.406
REMARK  Name = 
REMARK  5 active torsions:
REMARK  status: ('A' for Active; 'I' for Inactive)
REMARK    1  A    between atoms: C_1  and  N_2
REMARK    2  A    between atoms: C_6  and  C_7
REMARK    3  A    between atoms: C_10  and  N_11
REMARK    4  A    between atoms: N_11  and  S_12
REMARK    5  A    between atoms: S_12  and  C_15
REMARK                            x       y       z     vdW  Elec       q    Type
REMARK                         _______ _______ _______ _____ _____    ______ ____
ROOT
ATOM      1  S   UNL     1       1.920   4.712  20.636  0.00  0.00    +0.000 S 
ATOM      2  O   UNL     1       2.324   3.760  21.649  0.00  0.00    +0.000 OA
ATOM      3  O   UNL     1       0.569   4.723  20.115  0.00  0.00    +0.000 OA
ENDROOT
BRANCH   1   4
ATOM      4  C   UNL     1       3.060   4.552  19.286  0.00  0.00    +0.000 A 
ATOM      5  C   UNL     1       2.677   3.871  18.126  0.00  0.00    +0.000 A 
ATOM      6  C   UNL     1       3.566   3.798  17.054  0.00  0.00    +0.000 A 
ATOM      7  C   UNL     1       4.817   4.420  17.138  0.00  0.00    +0.000 A 
ATOM      8  C   UNL     1       5.202   5.102  18.293  0.00  0.00    +0.000 A 
ATOM      9  C   UNL     1       4.323   5.144  19.384  0.00  0.00    +0.000 A 
ATOM     10  C   UNL     1       6.562   5.725  18.402  0.00  0.00    +0.000 C 
ATOM     11  C   UNL     1       7.318   5.872  17.089  0.00  0.00    +0.000 C 
ATOM     12  C   UNL     1       6.896   4.956  15.967  0.00  0.00    +0.000 C 
ATOM     13  O   UNL     1       7.587   4.819  14.957  0.00  0.00    +0.000 OA
ATOM     14  N   UNL     1       5.683   4.343  16.050  0.00  0.00    +0.000 N 
ATOM     15  H   UNL     1       5.423   3.801  15.236  0.00  0.00    +0.000 HD
ENDBRANCH   1   4
BRANCH   1  16
ATOM     16  N   UNL     1       2.281   6.244  21.253  0.00  0.00    +0.000 N 
ATOM     17  H   UNL     1       2.366   6.230  22.268  0.00  0.00    +0.000 HD
BRANCH  16  21
ATOM     18  C   UNL     1       0.523   9.678  19.505  0.00  0.00    +0.000 A 
ATOM     19  C   UNL     1       1.480   8.927  18.806  0.00  0.00    +0.000 A 
ATOM     20  C   UNL     1       2.070   7.794  19.380  0.00  0.00    +0.000 A 
ATOM     21  C   UNL     1       1.678   7.375  20.646  0.00  0.00    +0.000 A 
ATOM     22  C   UNL     1       0.704   8.083  21.342  0.00  0.00    +0.000 A 
ATOM     23  C   UNL     1       0.131   9.223  20.774  0.00  0.00    +0.000 A 
BRANCH  18  29
ATOM     24  C   UNL     1      -2.162   9.980  17.815  0.00  0.00    +0.000 C 
ATOM     25  N   UNL     1      -1.259  11.014  18.244  0.00  0.00    +0.000 N 
ATOM     26  C   UNL     1      -1.379  12.329  17.907  0.00  0.00    +0.000 A 
ATOM     27  N   UNL     1      -0.374  13.005  18.406  0.00  0.00    +0.000 NA
ATOM     28  N   UNL     1       0.430  12.110  19.067  0.00  0.00    +0.000 NA
ATOM     29  C   UNL     1      -0.099  10.900  18.976  0.00  0.00    +0.000 A 
ENDBRANCH  18  29
ENDBRANCH  16  21
ENDBRANCH   1  16
TORSDOF 4
ENDMDL
MODEL 5
REMARK VINA RESULT:      -8.6      1.377      2.104
REMARK  Name = 
REMARK  5 active torsions:
REMARK  status: ('A' for Active; 'I' for Inactive)
REMARK    1  A    between atoms: C_1  and  N_2
REMARK    2  A    between atoms: C_6  and  C_7
REMARK    3  A    between atoms: C_10  and  N_11
REMARK    4  A    between atoms: N_11  and  S_12
REMARK    5  A    between atoms: S_12  and  C_15
REMARK                            x       y       z     vdW  Elec       q    Type
REMARK                         _______ _______ _______ _____ _____    ______ ____
ROOT
ATOM      1  S   UNL     1       1.917   4.721  20.657  0.00  0.00    +0.000 S 
ATOM      2  O   UNL     1       2.323   3.778  21.677  0.00  0.00    +0.000 OA
ATOM      3  O   UNL     1       0.567   4.727  20.136  0.00  0.00    +0.000 OA
ENDROOT
BRANCH   1   4
ATOM      4  C   UNL     1       3.058   4.552  19.307  0.00  0.00    +0.000 A 
ATOM      5  C   UNL     1       2.664   3.891  18.140  0.00  0.00    +0.000 A 
ATOM      6  C   UNL     1       3.554   3.811  17.069  0.00  0.00    +0.000 A 
ATOM      7  C   UNL     1       4.817   4.406  17.163  0.00  0.00    +0.000 A 
ATOM      8  C   UNL     1       5.213   5.068  18.325  0.00  0.00    +0.000 A 
ATOM      9  C   UNL     1       4.333   5.117  19.415  0.00  0.00    +0.000 A 
ATOM     10  C   UNL     1       6.585   5.661  18.445  0.00  0.00    +0.000 C 
ATOM     11  C   UNL     1       7.347   5.807  17.135  0.00  0.00    +0.000 C 
ATOM     12  C   UNL     1       6.909   4.912  16.002  0.00  0.00    +0.000 C 
ATOM     13  O   UNL     1       7.600   4.771  14.992  0.00  0.00    +0.000 OA
ATOM     14  N   UNL     1       5.684   4.323  16.076  0.00  0.00    +0.000 N 
ATOM     15  H   UNL     1       5.415   3.795  15.255  0.00  0.00    +0.000 HD
ENDBRANCH   1   4
BRANCH   1  16
ATOM     16  N   UNL     1       2.277   6.259  21.261  0.00  0.00    +0.000 N 
ATOM     17  H   UNL     1       2.340   6.258  22.278  0.00  0.00    +0.000 HD
BRANCH  16  21
ATOM     18  C   UNL     1       0.588   9.683  19.428  0.00  0.00    +0.000 A 
ATOM     19  C   UNL     1       1.525   8.892  18.745  0.00  0.00    +0.000 A 
ATOM     20  C   UNL     1       2.093   7.762  19.347  0.00  0.00    +0.000 A 
ATOM     21  C   UNL     1       1.696   7.386  20.626  0.00  0.00    +0.000 A 
ATOM     22  C   UNL     1       0.741   8.134  21.306  0.00  0.00    +0.000 A 
ATOM     23  C   UNL     1       0.191   9.271  20.710  0.00  0.00    +0.000 A 
BRANCH  18  29
ATOM     24  C   UNL     1       1.604  12.694  19.668  0.00  0.00    +0.000 C 
ATOM     25  N   UNL     1       0.440  12.200  18.983  0.00  0.00    +0.000 N 
ATOM     26  C   UNL     1      -0.489  12.990  18.375  0.00  0.00    +0.000 A 
ATOM     27  N   UNL     1      -1.452  12.245  17.894  0.00  0.00    +0.000 NA
ATOM     28  N   UNL     1      -1.157  10.942  18.209  0.00  0.00    +0.000 NA
ATOM     29  C   UNL     1      -0.009  10.904  18.868  0.00  0.00    +0.000 A 
ENDBRANCH  18  29
ENDBRANCH  16  21
ENDBRANCH   1  16
TORSDOF 4
ENDMDL
MODEL 6
REMARK VINA RESULT:      -8.4      1.714      2.195
REMARK  Name = 
REMARK  5 active torsions:
REMARK  status: ('A' for Active; 'I' for Inactive)
REMARK    1  A    between atoms: C_1  and  N_2
REMARK    2  A    between atoms: C_6  and  C_7
REMARK    3  A    between atoms: C_10  and  N_11
REMARK    4  A    between atoms: N_11  and  S_12
REMARK    5  A    between atoms: S_12  and  C_15
REMARK                            x       y       z     vdW  Elec       q    Type
REMARK                         _______ _______ _______ _____ _____    ______ ____
ROOT
ATOM      1  S   UNL     1       4.742   4.357  19.123  0.00  0.00    +0.000 S 
ATOM      2  O   UNL     1       5.145   5.415  20.027  0.00  0.00    +0.000 OA
ATOM      3  O   UNL     1       4.920   2.964  19.474  0.00  0.00    +0.000 OA
ENDROOT
BRANCH   1   4
ATOM      4  C   UNL     1       5.538   4.669  17.568  0.00  0.00    +0.000 A 
ATOM      5  C   UNL     1       6.698   5.448  17.522  0.00  0.00    +0.000 A 
ATOM      6  C   UNL     1       7.341   5.642  16.299  0.00  0.00    +0.000 A 
ATOM      7  C   UNL     1       6.835   5.042  15.140  0.00  0.00    +0.000 A 
ATOM      8  C   UNL     1       5.679   4.262  15.182  0.00  0.00    +0.000 A 
ATOM      9  C   UNL     1       5.013   4.098  16.405  0.00  0.00    +0.000 A 
ATOM     10  C   UNL     1       5.108   3.662  13.932  0.00  0.00    +0.000 C 
ATOM     11  C   UNL     1       6.041   3.656  12.729  0.00  0.00    +0.000 C 
ATOM     12  C   UNL     1       7.163   4.664  12.746  0.00  0.00    +0.000 C 
ATOM     13  O   UNL     1       7.819   4.911  11.734  0.00  0.00    +0.000 OA
ATOM     14  N   UNL     1       7.500   5.240  13.933  0.00  0.00    +0.000 N 
ATOM     15  H   UNL     1       8.307   5.850  13.896  0.00  0.00    +0.000 HD
ENDBRANCH   1   4
BRANCH   1  16
ATOM     16  N   UNL     1       3.111   4.629  18.771  0.00  0.00    +0.000 N 
ATOM     17  H   UNL     1       2.854   4.249  17.862  0.00  0.00    +0.000 HD
BRANCH  16  21
ATOM     18  C   UNL     1       1.442   8.309  20.040  0.00  0.00    +0.000 A 
ATOM     19  C   UNL     1       2.081   8.202  18.795  0.00  0.00    +0.000 A 
ATOM     20  C   UNL     1       2.640   6.990  18.371  0.00  0.00    +0.000 A 
ATOM     21  C   UNL     1       2.530   5.859  19.173  0.00  0.00    +0.000 A 
ATOM     22  C   UNL     1       1.869   5.934  20.393  0.00  0.00    +0.000 A 
ATOM     23  C   UNL     1       1.328   7.149  20.821  0.00  0.00    +0.000 A 
BRANCH  18  29
ATOM     24  C   UNL     1      -0.587  10.319  18.625  0.00  0.00    +0.000 C 
ATOM     25  N   UNL     1      -0.000  10.422  19.934  0.00  0.00    +0.000 N 
ATOM     26  C   UNL     1      -0.167  11.484  20.771  0.00  0.00    +0.000 A 
ATOM     27  N   UNL     1       0.539  11.301  21.860  0.00  0.00    +0.000 NA
ATOM     28  N   UNL     1       1.196  10.104  21.723  0.00  0.00    +0.000 NA
ATOM     29  C   UNL     1       0.874   9.561  20.559  0.00  0.00    +0.000 A 
ENDBRANCH  18  29
ENDBRANCH  16  21
ENDBRANCH   1  16
TORSDOF 4
ENDMDL
MODEL 7
REMARK VINA RESULT:      -8.4      1.699      2.339
REMARK  Name = 
REMARK  5 active torsions:
REMARK  status: ('A' for Active; 'I' for Inactive)
REMARK    1  A    between atoms: C_1  and  N_2
REMARK    2  A    between atoms: C_6  and  C_7
REMARK    3  A    between atoms: C_10  and  N_11
REMARK    4  A    between atoms: N_11  and  S_12
REMARK    5  A    between atoms: S_12  and  C_15
REMARK                            x       y       z     vdW  Elec       q    Type
REMARK                         _______ _______ _______ _____ _____    ______ ____
ROOT
ATOM      1  S   UNL     1       4.003   3.171  18.977  0.00  0.00    +0.000 S 
ATOM      2  O   UNL     1       4.386   3.702  20.269  0.00  0.00    +0.000 OA
ATOM      3  O   UNL     1       3.946   1.745  18.740  0.00  0.00    +0.000 OA
ENDROOT
BRANCH   1   4
ATOM      4  C   UNL     1       5.071   3.917  17.771  0.00  0.00    +0.000 A 
ATOM      5  C   UNL     1       6.139   4.718  18.185  0.00  0.00    +0.000 A 
ATOM      6  C   UNL     1       7.000   5.254  17.227  0.00  0.00    +0.000 A 
ATOM      7  C   UNL     1       6.800   4.973  15.871  0.00  0.00    +0.000 A 
ATOM      8  C   UNL     1       5.736   4.173  15.454  0.00  0.00    +0.000 A 
ATOM      9  C   UNL     1       4.850   3.664  16.413  0.00  0.00    +0.000 A 
ATOM     10  C   UNL     1       5.492   3.914  13.997  0.00  0.00    +0.000 C 
ATOM     11  C   UNL     1       6.649   4.263  13.072  0.00  0.00    +0.000 C 
ATOM     12  C   UNL     1       7.647   5.265  13.595  0.00  0.00    +0.000 C 
ATOM     13  O   UNL     1       8.472   5.797  12.852  0.00  0.00    +0.000 OA
ATOM     14  N   UNL     1       7.679   5.511  14.934  0.00  0.00    +0.000 N 
ATOM     15  H   UNL     1       8.417   6.135  15.235  0.00  0.00    +0.000 HD
ENDBRANCH   1   4
BRANCH   1  16
ATOM     16  N   UNL     1       2.497   3.847  18.614  0.00  0.00    +0.000 N 
ATOM     17  H   UNL     1       2.150   3.529  17.710  0.00  0.00    +0.000 HD
BRANCH  16  21
ATOM     18  C   UNL     1       1.691   7.867  19.679  0.00  0.00    +0.000 A 
ATOM     19  C   UNL     1       1.546   6.833  20.617  0.00  0.00    +0.000 A 
ATOM     20  C   UNL     1       1.805   5.501  20.270  0.00  0.00    +0.000 A 
ATOM     21  C   UNL     1       2.252   5.192  18.990  0.00  0.00    +0.000 A 
ATOM     22  C   UNL     1       2.438   6.206  18.056  0.00  0.00    +0.000 A 
ATOM     23  C   UNL     1       2.162   7.531  18.400  0.00  0.00    +0.000 A 
BRANCH  18  29
ATOM     24  C   UNL     1       1.005   9.229  22.477  0.00  0.00    +0.000 C 
ATOM     25  N   UNL     1       1.095   9.850  21.183  0.00  0.00    +0.000 N 
ATOM     26  C   UNL     1       0.808  11.159  20.936  0.00  0.00    +0.000 A 
ATOM     27  N   UNL     1       0.931  11.402  19.655  0.00  0.00    +0.000 NA
ATOM     28  N   UNL     1       1.288  10.224  19.049  0.00  0.00    +0.000 NA
ATOM     29  C   UNL     1       1.393   9.276  19.968  0.00  0.00    +0.000 A 
ENDBRANCH  18  29
ENDBRANCH  16  21
ENDBRANCH   1  16
TORSDOF 4
ENDMDL
MODEL 8
REMARK VINA RESULT:      -8.3      2.224      8.561
REMARK  Name = 
REMARK  5 active torsions:
REMARK  status: ('A' for Active; 'I' for Inactive)
REMARK    1  A    between atoms: C_1  and  N_2
REMARK    2  A    between atoms: C_6  and  C_7
REMARK    3  A    between atoms: C_10  and  N_11
REMARK    4  A    between atoms: N_11  and  S_12
REMARK    5  A    between atoms: S_12  and  C_15
REMARK                            x       y       z     vdW  Elec       q    Type
REMARK                         _______ _______ _______ _____ _____    ______ ____
ROOT
ATOM      1  S   UNL     1       2.460   5.342  19.578  0.00  0.00    +0.000 S 
ATOM      2  O   UNL     1       2.033   4.899  18.267  0.00  0.00    +0.000 OA
ATOM      3  O   UNL     1       2.089   4.614  20.772  0.00  0.00    +0.000 OA
ENDROOT
BRANCH   1   4
ATOM      4  C   UNL     1       1.949   7.033  19.749  0.00  0.00    +0.000 A 
ATOM      5  C   UNL     1       2.040   7.903  18.658  0.00  0.00    +0.000 A 
ATOM      6  C   UNL     1       1.587   9.215  18.793  0.00  0.00    +0.000 A 
ATOM      7  C   UNL     1       1.029   9.642  20.003  0.00  0.00    +0.000 A 
ATOM      8  C   UNL     1       0.934   8.777  21.094  0.00  0.00    +0.000 A 
ATOM      9  C   UNL     1       1.423   7.469  20.969  0.00  0.00    +0.000 A 
ATOM     10  C   UNL     1       0.383   9.248  22.406  0.00  0.00    +0.000 C 
ATOM     11  C   UNL     1      -0.371  10.569  22.358  0.00  0.00    +0.000 C 
ATOM     12  C   UNL     1      -0.052  11.481  21.199  0.00  0.00    +0.000 C 
ATOM     13  O   UNL     1      -0.414  12.658  21.191  0.00  0.00    +0.000 OA
ATOM     14  N   UNL     1       0.573  10.954  20.111  0.00  0.00    +0.000 N 
ATOM     15  H   UNL     1       0.693  11.594  19.337  0.00  0.00    +0.000 HD
ENDBRANCH   1   4
BRANCH   1  16
ATOM     16  N   UNL     1       4.145   5.465  19.512  0.00  0.00    +0.000 N 
ATOM     17  H   UNL     1       4.497   6.164  20.165  0.00  0.00    +0.000 HD
BRANCH  16  21
ATOM     18  C   UNL     1       6.124   5.148  15.781  0.00  0.00    +0.000 A 
ATOM     19  C   UNL     1       5.839   4.003  16.542  0.00  0.00    +0.000 A 
ATOM     20  C   UNL     1       5.191   4.101  17.779  0.00  0.00    +0.000 A 
ATOM     21  C   UNL     1       4.781   5.343  18.251  0.00  0.00    +0.000 A 
ATOM     22  C   UNL     1       5.020   6.486  17.495  0.00  0.00    +0.000 A 
ATOM     23  C   UNL     1       5.683   6.387  16.271  0.00  0.00    +0.000 A 
BRANCH  18  29
ATOM     24  C   UNL     1       5.398   3.533  13.130  0.00  0.00    +0.000 C 
ATOM     25  N   UNL     1       6.515   4.410  13.361  0.00  0.00    +0.000 N 
ATOM     26  C   UNL     1       7.520   4.627  12.467  0.00  0.00    +0.000 A 
ATOM     27  N   UNL     1       8.412   5.429  12.995  0.00  0.00    +0.000 NA
ATOM     28  N   UNL     1       7.991   5.727  14.267  0.00  0.00    +0.000 NA
ATOM     29  C   UNL     1       6.839   5.116  14.498  0.00  0.00    +0.000 A 
ENDBRANCH  18  29
ENDBRANCH  16  21
ENDBRANCH   1  16
TORSDOF 4
ENDMDL
MODEL 9
REMARK VINA RESULT:      -8.2      2.484      8.722
REMARK  Name = 
REMARK  5 active torsions:
REMARK  status: ('A' for Active; 'I' for Inactive)
REMARK    1  A    between atoms: C_1  and  N_2
REMARK    2  A    between atoms: C_6  and  C_7
REMARK    3  A    between atoms: C_10  and  N_11
REMARK    4  A    between atoms: N_11  and  S_12
REMARK    5  A    between atoms: S_12  and  C_15
REMARK                            x       y       z     vdW  Elec       q    Type
REMARK                         _______ _______ _______ _____ _____    ______ ____
ROOT
ATOM      1  S   UNL     1       2.815   5.594  19.294  0.00  0.00    +0.000 S 
ATOM      2  O   UNL     1       2.168   5.049  18.119  0.00  0.00    +0.000 OA
ATOM      3  O   UNL     1       2.820   4.874  20.549  0.00  0.00    +0.000 OA
ENDROOT
BRANCH   1   4
ATOM      4  C   UNL     1       2.138   7.213  19.558  0.00  0.00    +0.000 A 
ATOM      5  C   UNL     1       2.098   8.132  18.506  0.00  0.00    +0.000 A 
ATOM      6  C   UNL     1       1.516   9.383  18.714  0.00  0.00    +0.000 A 
ATOM      7  C   UNL     1       0.962   9.697  19.960  0.00  0.00    +0.000 A 
ATOM      8  C   UNL     1       0.998   8.782  21.013  0.00  0.00    +0.000 A 
ATOM      9  C   UNL     1       1.615   7.539  20.813  0.00  0.00    +0.000 A 
ATOM     10  C   UNL     1       0.451   9.138  22.363  0.00  0.00    +0.000 C 
ATOM     11  C   UNL     1      -0.439  10.373  22.399  0.00  0.00    +0.000 C 
ATOM     12  C   UNL     1      -0.260  11.360  21.273  0.00  0.00    +0.000 C 
ATOM     13  O   UNL     1      -0.742  12.492  21.330  0.00  0.00    +0.000 OA
ATOM     14  N   UNL     1       0.376  10.948  20.142  0.00  0.00    +0.000 N 
ATOM     15  H   UNL     1       0.399  11.629  19.394  0.00  0.00    +0.000 HD
ENDBRANCH   1   4
BRANCH   1  16
ATOM     16  N   UNL     1       4.412   5.924  18.847  0.00  0.00    +0.000 N 
ATOM     17  H   UNL     1       4.719   6.833  19.190  0.00  0.00    +0.000 HD
BRANCH  16  21
ATOM     18  C   UNL     1       5.653   4.622  15.012  0.00  0.00    +0.000 A 
ATOM     19  C   UNL     1       5.301   5.962  15.236  0.00  0.00    +0.000 A 
ATOM     20  C   UNL     1       4.884   6.399  16.500  0.00  0.00    +0.000 A 
ATOM     21  C   UNL     1       4.854   5.506  17.566  0.00  0.00    +0.000 A 
ATOM     22  C   UNL     1       5.235   4.182  17.375  0.00  0.00    +0.000 A 
ATOM     23  C   UNL     1       5.632   3.746  16.109  0.00  0.00    +0.000 A 
BRANCH  18  29
ATOM     24  C   UNL     1       8.128   5.472  13.193  0.00  0.00    +0.000 C 
ATOM     25  N   UNL     1       7.128   4.474  12.925  0.00  0.00    +0.000 N 
ATOM     26  C   UNL     1       7.037   3.767  11.764  0.00  0.00    +0.000 A 
ATOM     27  N   UNL     1       5.990   2.981  11.808  0.00  0.00    +0.000 NA
ATOM     28  N   UNL     1       5.372   3.192  13.015  0.00  0.00    +0.000 NA
ATOM     29  C   UNL     1       6.056   4.094  13.701  0.00  0.00    +0.000 A 
ENDBRANCH  18  29
ENDBRANCH  16  21
ENDBRANCH   1  16
TORSDOF 4
ENDMDL
