MODEL 1
REMARK VINA RESULT:      -9.2      0.000      0.000
REMARK  Name = 
REMARK  5 active torsions:
REMARK  status: ('A' for Active; 'I' for Inactive)
REMARK    1  A    between atoms: C_1  and  C_2
REMARK    2  A    between atoms: C_5  and  N_6
REMARK    3  A    between atoms: C_7  and  C_9
REMARK    4  A    between atoms: C_21  and  S_22
REMARK    5  A    between atoms: S_22  and  N_25
REMARK                            x       y       z     vdW  Elec       q    Type
REMARK                         _______ _______ _______ _____ _____    ______ ____
ROOT
ATOM      1  C   UNL     1      -1.348  11.321  22.820  0.00  0.00    +0.000 C 
ATOM      2  C   UNL     1      -0.400  10.528  21.964  0.00  0.00    +0.000 A 
ATOM      3  C   UNL     1       0.228   9.448  22.595  0.00  0.00    +0.000 A 
ATOM      4  C   UNL     1       1.063   8.579  21.895  0.00  0.00    +0.000 A 
ATOM      5  C   UNL     1       1.301   8.744  20.538  0.00  0.00    +0.000 A 
ATOM      6  C   UNL     1       0.695   9.830  19.886  0.00  0.00    +0.000 A 
ATOM      7  C   UNL     1      -0.134  10.741  20.595  0.00  0.00    +0.000 A 
ENDROOT
BRANCH   5   8
ATOM      8  N   UNL     1       2.096   7.826  19.796  0.00  0.00    +0.000 N 
ATOM      9  C   UNL     1       2.060   6.446  19.928  0.00  0.00    +0.000 C 
ATOM     10  O   UNL     1       1.419   5.808  20.756  0.00  0.00    +0.000 OA
ATOM     11  H   UNL     1       2.724   8.209  19.101  0.00  0.00    +0.000 HD
BRANCH   9  12
ATOM     12  C   UNL     1       2.911   5.703  18.941  0.00  0.00    +0.000 A 
ATOM     13  C   UNL     1       2.480   4.482  18.589  0.00  0.00    +0.000 A 
ATOM     14  C   UNL     1       3.247   3.701  17.614  0.00  0.00    +0.000 A 
ATOM     15  O   UNL     1       2.889   2.582  17.277  0.00  0.00    +0.000 OA
ATOM     16  C   UNL     1       4.451   4.343  17.072  0.00  0.00    +0.000 A 
ATOM     17  C   UNL     1       5.230   3.686  16.120  0.00  0.00    +0.000 A 
ATOM     18  C   UNL     1       6.365   4.316  15.613  0.00  0.00    +0.000 A 
ATOM     19  C   UNL     1       6.715   5.593  16.060  0.00  0.00    +0.000 A 
ATOM     20  C   UNL     1       5.932   6.244  17.016  0.00  0.00    +0.000 A 
ATOM     21  C   UNL     1       4.795   5.620  17.522  0.00  0.00    +0.000 A 
ATOM     22  O   UNL     1       4.059   6.306  18.457  0.00  0.00    +0.000 OA
ENDBRANCH   9  12
ENDBRANCH   5   8
BRANCH   7  23
ATOM     23  S   UNL     1      -0.956  12.035  19.632  0.00  0.00    +0.000 S 
ATOM     24  O   UNL     1      -1.535  12.959  20.589  0.00  0.00    +0.000 OA
ATOM     25  O   UNL     1      -0.030  12.509  18.627  0.00  0.00    +0.000 OA
BRANCH  23  26
ATOM     26  N   UNL     1      -2.257  11.247  18.818  0.00  0.00    +0.000 NA
ATOM     27  C   UNL     1      -3.561  11.942  18.912  0.00  0.00    +0.000 C 
ATOM     28  C   UNL     1      -4.679  11.319  18.092  0.00  0.00    +0.000 C 
ATOM     29  C   UNL     1      -4.224  10.969  16.690  0.00  0.00    +0.000 C 
ATOM     30  C   UNL     1      -3.073   9.985  16.785  0.00  0.00    +0.000 C 
ATOM     31  C   UNL     1      -1.892  10.553  17.562  0.00  0.00    +0.000 C 
ENDBRANCH  23  26
ENDBRANCH   7  23
TORSDOF 4
ENDMDL
MODEL 2
REMARK VINA RESULT:      -9.1      3.020      9.049
REMARK  Name = 
REMARK  5 active torsions:
REMARK  status: ('A' for Active; 'I' for Inactive)
REMARK    1  A    between atoms: C_1  and  C_2
REMARK    2  A    between atoms: C_5  and  N_6
REMARK    3  A    between atoms: C_7  and  C_9
REMARK    4  A    between atoms: C_21  and  S_22
REMARK    5  A    between atoms: S_22  and  N_25
REMARK                            x       y       z     vdW  Elec       q    Type
REMARK                         _______ _______ _______ _____ _____    ______ ____
ROOT
ATOM      1  C   UNL     1       5.669   3.924  15.688  0.00  0.00    +0.000 C 
ATOM      2  C   UNL     1       4.862   4.803  16.602  0.00  0.00    +0.000 A 
ATOM      3  C   UNL     1       5.164   6.169  16.554  0.00  0.00    +0.000 A 
ATOM      4  C   UNL     1       4.433   7.104  17.283  0.00  0.00    +0.000 A 
ATOM      5  C   UNL     1       3.367   6.722  18.085  0.00  0.00    +0.000 A 
ATOM      6  C   UNL     1       3.054   5.355  18.163  0.00  0.00    +0.000 A 
ATOM      7  C   UNL     1       3.811   4.388  17.447  0.00  0.00    +0.000 A 
ENDROOT
BRANCH   5   8
ATOM      8  N   UNL     1       2.570   7.672  18.781  0.00  0.00    +0.000 N 
ATOM      9  C   UNL     1       2.040   8.831  18.232  0.00  0.00    +0.000 C 
ATOM     10  O   UNL     1       2.248   9.265  17.105  0.00  0.00    +0.000 OA
ATOM     11  H   UNL     1       2.353   7.477  19.750  0.00  0.00    +0.000 HD
BRANCH   9  12
ATOM     12  C   UNL     1       1.135   9.598  19.150  0.00  0.00    +0.000 A 
ATOM     13  C   UNL     1       0.439  10.600  18.591  0.00  0.00    +0.000 A 
ATOM     14  C   UNL     1      -0.482  11.385  19.419  0.00  0.00    +0.000 A 
ATOM     15  O   UNL     1      -1.125  12.311  18.946  0.00  0.00    +0.000 OA
ATOM     16  C   UNL     1      -0.586  10.988  20.828  0.00  0.00    +0.000 A 
ATOM     17  C   UNL     1      -1.457  11.661  21.686  0.00  0.00    +0.000 A 
ATOM     18  C   UNL     1      -1.546  11.263  23.019  0.00  0.00    +0.000 A 
ATOM     19  C   UNL     1      -0.766  10.203  23.486  0.00  0.00    +0.000 A 
ATOM     20  C   UNL     1       0.105   9.534  22.623  0.00  0.00    +0.000 A 
ATOM     21  C   UNL     1       0.194   9.926  21.289  0.00  0.00    +0.000 A 
ATOM     22  O   UNL     1       1.065   9.233  20.483  0.00  0.00    +0.000 OA
ENDBRANCH   9  12
ENDBRANCH   5   8
BRANCH   7  23
ATOM     23  S   UNL     1       3.247   2.669  17.528  0.00  0.00    +0.000 S 
ATOM     24  O   UNL     1       2.165   2.542  16.570  0.00  0.00    +0.000 OA
ATOM     25  O   UNL     1       4.406   1.808  17.439  0.00  0.00    +0.000 OA
BRANCH  23  26
ATOM     26  N   UNL     1       2.572   2.480  19.104  0.00  0.00    +0.000 NA
ATOM     27  C   UNL     1       3.556   2.517  20.209  0.00  0.00    +0.000 C 
ATOM     28  C   UNL     1       2.953   2.478  21.605  0.00  0.00    +0.000 C 
ATOM     29  C   UNL     1       1.780   3.429  21.740  0.00  0.00    +0.000 C 
ATOM     30  C   UNL     1       0.718   3.036  20.731  0.00  0.00    +0.000 C 
ATOM     31  C   UNL     1       1.236   3.088  19.299  0.00  0.00    +0.000 C 
ENDBRANCH  23  26
ENDBRANCH   7  23
TORSDOF 4
ENDMDL
MODEL 3
REMARK VINA RESULT:      -9.0      1.277      1.514
REMARK  Name = 
REMARK  5 active torsions:
REMARK  status: ('A' for Active; 'I' for Inactive)
REMARK    1  A    between atoms: C_1  and  C_2
REMARK    2  A    between atoms: C_5  and  N_6
REMARK    3  A    between atoms: C_7  and  C_9
REMARK    4  A    between atoms: C_21  and  S_22
REMARK    5  A    between atoms: S_22  and  N_25
REMARK                            x       y       z     vdW  Elec       q    Type
REMARK                         _______ _______ _______ _____ _____    ______ ____
ROOT
ATOM      1  C   UNL     1      -1.971  12.093  23.065  0.00  0.00    +0.000 C 
ATOM      2  C   UNL     1      -1.057  11.208  22.263  0.00  0.00    +0.000 A 
ATOM      3  C   UNL     1      -0.500  10.127  22.955  0.00  0.00    +0.000 A 
ATOM      4  C   UNL     1       0.293   9.179  22.311  0.00  0.00    +0.000 A 
ATOM      5  C   UNL     1       0.559   9.264  20.952  0.00  0.00    +0.000 A 
ATOM      6  C   UNL     1       0.024  10.350  20.239  0.00  0.00    +0.000 A 
ATOM      7  C   UNL     1      -0.761  11.339  20.890  0.00  0.00    +0.000 A 
ENDROOT
BRANCH   5   8
ATOM      8  N   UNL     1       1.310   8.268  20.268  0.00  0.00    +0.000 N 
ATOM      9  C   UNL     1       1.858   8.405  19.001  0.00  0.00    +0.000 C 
ATOM     10  O   UNL     1       1.706   9.353  18.239  0.00  0.00    +0.000 OA
ATOM     11  H   UNL     1       1.476   7.396  20.754  0.00  0.00    +0.000 HD
BRANCH   9  12
ATOM     12  C   UNL     1       2.706   7.249  18.561  0.00  0.00    +0.000 A 
ATOM     13  C   UNL     1       2.557   6.109  19.254  0.00  0.00    +0.000 A 
ATOM     14  C   UNL     1       3.337   4.927  18.873  0.00  0.00    +0.000 A 
ATOM     15  O   UNL     1       3.235   3.876  19.488  0.00  0.00    +0.000 OA
ATOM     16  C   UNL     1       4.231   5.086  17.719  0.00  0.00    +0.000 A 
ATOM     17  C   UNL     1       4.993   4.008  17.267  0.00  0.00    +0.000 A 
ATOM     18  C   UNL     1       5.829   4.177  16.165  0.00  0.00    +0.000 A 
ATOM     19  C   UNL     1       5.901   5.417  15.525  0.00  0.00    +0.000 A 
ATOM     20  C   UNL     1       5.137   6.492  15.983  0.00  0.00    +0.000 A 
ATOM     21  C   UNL     1       4.296   6.326  17.082  0.00  0.00    +0.000 A 
ATOM     22  O   UNL     1       3.565   7.416  17.489  0.00  0.00    +0.000 OA
ENDBRANCH   9  12
ENDBRANCH   5   8
BRANCH   7  23
ATOM     23  S   UNL     1      -1.496  12.629  19.853  0.00  0.00    +0.000 S 
ATOM     24  O   UNL     1      -1.933  13.682  20.750  0.00  0.00    +0.000 OA
ATOM     25  O   UNL     1      -0.577  12.921  18.775  0.00  0.00    +0.000 OA
BRANCH  23  26
ATOM     26  N   UNL     1      -2.907  11.915  19.162  0.00  0.00    +0.000 NA
ATOM     27  C   UNL     1      -4.188  12.461  19.665  0.00  0.00    +0.000 C 
ATOM     28  C   UNL     1      -5.429  11.926  18.968  0.00  0.00    +0.000 C 
ATOM     29  C   UNL     1      -5.269  11.914  17.461  0.00  0.00    +0.000 C 
ATOM     30  C   UNL     1      -4.085  11.035  17.106  0.00  0.00    +0.000 C 
ATOM     31  C   UNL     1      -2.790  11.530  17.737  0.00  0.00    +0.000 C 
ENDBRANCH  23  26
ENDBRANCH   7  23
TORSDOF 4
ENDMDL
MODEL 4
REMARK VINA RESULT:      -9.0      3.280      8.882
REMARK  Name = 
REMARK  5 active torsions:
REMARK  status: ('A' for Active; 'I' for Inactive)
REMARK    1  A    between atoms: C_1  and  C_2
REMARK    2  A    between atoms: C_5  and  N_6
REMARK    3  A    between atoms: C_7  and  C_9
REMARK    4  A    between atoms: C_21  and  S_22
REMARK    5  A    between atoms: S_22  and  N_25
REMARK                            x       y       z     vdW  Elec       q    Type
REMARK                         _______ _______ _______ _____ _____    ______ ____
ROOT
ATOM      1  C   UNL     1       3.042   2.620  20.441  0.00  0.00    +0.000 C 
ATOM      2  C   UNL     1       2.821   4.065  20.087  0.00  0.00    +0.000 A 
ATOM      3  C   UNL     1       1.573   4.592  20.438  0.00  0.00    +0.000 A 
ATOM      4  C   UNL     1       1.269   5.938  20.248  0.00  0.00    +0.000 A 
ATOM      5  C   UNL     1       2.197   6.818  19.707  0.00  0.00    +0.000 A 
ATOM      6  C   UNL     1       3.451   6.310  19.332  0.00  0.00    +0.000 A 
ATOM      7  C   UNL     1       3.762   4.932  19.493  0.00  0.00    +0.000 A 
ENDROOT
BRANCH   5   8
ATOM      8  N   UNL     1       1.925   8.207  19.571  0.00  0.00    +0.000 N 
ATOM      9  C   UNL     1       1.957   8.918  18.380  0.00  0.00    +0.000 C 
ATOM     10  O   UNL     1       2.310   8.493  17.286  0.00  0.00    +0.000 OA
ATOM     11  H   UNL     1       1.668   8.716  20.407  0.00  0.00    +0.000 HD
BRANCH   9  12
ATOM     12  C   UNL     1       1.512  10.346  18.494  0.00  0.00    +0.000 A 
ATOM     13  C   UNL     1       0.230  10.539  18.842  0.00  0.00    +0.000 A 
ATOM     14  C   UNL     1      -0.276  11.907  18.994  0.00  0.00    +0.000 A 
ATOM     15  O   UNL     1      -1.440  12.121  19.300  0.00  0.00    +0.000 OA
ATOM     16  C   UNL     1       0.693  12.986  18.764  0.00  0.00    +0.000 A 
ATOM     17  C   UNL     1       0.308  14.319  18.911  0.00  0.00    +0.000 A 
ATOM     18  C   UNL     1       1.246  15.328  18.695  0.00  0.00    +0.000 A 
ATOM     19  C   UNL     1       2.555  15.001  18.333  0.00  0.00    +0.000 A 
ATOM     20  C   UNL     1       2.933  13.664  18.186  0.00  0.00    +0.000 A 
ATOM     21  C   UNL     1       2.000  12.653  18.405  0.00  0.00    +0.000 A 
ATOM     22  O   UNL     1       2.426  11.356  18.249  0.00  0.00    +0.000 OA
ENDBRANCH   9  12
ENDBRANCH   5   8
BRANCH   7  23
ATOM     23  S   UNL     1       5.447   4.410  19.085  0.00  0.00    +0.000 S 
ATOM     24  O   UNL     1       6.341   5.269  19.837  0.00  0.00    +0.000 OA
ATOM     25  O   UNL     1       5.522   2.972  19.228  0.00  0.00    +0.000 OA
BRANCH  23  26
ATOM     26  N   UNL     1       5.651   4.782  17.412  0.00  0.00    +0.000 NA
ATOM     27  C   UNL     1       7.059   4.882  16.966  0.00  0.00    +0.000 C 
ATOM     28  C   UNL     1       7.244   5.083  15.471  0.00  0.00    +0.000 C 
ATOM     29  C   UNL     1       6.366   4.150  14.662  0.00  0.00    +0.000 C 
ATOM     30  C   UNL     1       4.916   4.415  15.022  0.00  0.00    +0.000 C 
ATOM     31  C   UNL     1       4.640   4.196  16.504  0.00  0.00    +0.000 C 
ENDBRANCH  23  26
ENDBRANCH   7  23
TORSDOF 4
ENDMDL
MODEL 5
REMARK VINA RESULT:      -8.9      3.038      9.031
REMARK  Name = 
REMARK  5 active torsions:
REMARK  status: ('A' for Active; 'I' for Inactive)
REMARK    1  A    between atoms: C_1  and  C_2
REMARK    2  A    between atoms: C_5  and  N_6
REMARK    3  A    between atoms: C_7  and  C_9
REMARK    4  A    between atoms: C_21  and  S_22
REMARK    5  A    between atoms: S_22  and  N_25
REMARK                            x       y       z     vdW  Elec       q    Type
REMARK                         _______ _______ _______ _____ _____    ______ ____
ROOT
ATOM      1  C   UNL     1       5.922   3.812  15.898  0.00  0.00    +0.000 C 
ATOM      2  C   UNL     1       5.026   4.744  16.666  0.00  0.00    +0.000 A 
ATOM      3  C   UNL     1       5.356   6.102  16.592  0.00  0.00    +0.000 A 
ATOM      4  C   UNL     1       4.560   7.080  17.183  0.00  0.00    +0.000 A 
ATOM      5  C   UNL     1       3.398   6.749  17.866  0.00  0.00    +0.000 A 
ATOM      6  C   UNL     1       3.053   5.391  17.967  0.00  0.00    +0.000 A 
ATOM      7  C   UNL     1       3.874   4.382  17.394  0.00  0.00    +0.000 A 
ENDROOT
BRANCH   5   8
ATOM      8  N   UNL     1       2.539   7.741  18.415  0.00  0.00    +0.000 N 
ATOM      9  C   UNL     1       1.961   7.694  19.675  0.00  0.00    +0.000 C 
ATOM     10  O   UNL     1       2.017   6.761  20.469  0.00  0.00    +0.000 OA
ATOM     11  H   UNL     1       2.350   8.559  17.849  0.00  0.00    +0.000 HD
BRANCH   9  12
ATOM     12  C   UNL     1       1.195   8.925  20.056  0.00  0.00    +0.000 A 
ATOM     13  C   UNL     1       1.119   9.886  19.122  0.00  0.00    +0.000 A 
ATOM     14  C   UNL     1       0.370  11.114  19.411  0.00  0.00    +0.000 A 
ATOM     15  O   UNL     1       0.288  12.014  18.588  0.00  0.00    +0.000 OA
ATOM     16  C   UNL     1      -0.270  11.186  20.731  0.00  0.00    +0.000 A 
ATOM     17  C   UNL     1      -1.024  12.306  21.085  0.00  0.00    +0.000 A 
ATOM     18  C   UNL     1      -1.630  12.352  22.340  0.00  0.00    +0.000 A 
ATOM     19  C   UNL     1      -1.476  11.286  23.230  0.00  0.00    +0.000 A 
ATOM     20  C   UNL     1      -0.717  10.170  22.870  0.00  0.00    +0.000 A 
ATOM     21  C   UNL     1      -0.114  10.118  21.616  0.00  0.00    +0.000 A 
ATOM     22  O   UNL     1       0.618   8.996  21.312  0.00  0.00    +0.000 OA
ENDBRANCH   9  12
ENDBRANCH   5   8
BRANCH   7  23
ATOM     23  S   UNL     1       3.274   2.676  17.485  0.00  0.00    +0.000 S 
ATOM     24  O   UNL     1       2.194   2.565  16.522  0.00  0.00    +0.000 OA
ATOM     25  O   UNL     1       4.415   1.791  17.409  0.00  0.00    +0.000 OA
BRANCH  23  26
ATOM     26  N   UNL     1       2.586   2.513  19.059  0.00  0.00    +0.000 NA
ATOM     27  C   UNL     1       3.565   2.526  20.168  0.00  0.00    +0.000 C 
ATOM     28  C   UNL     1       2.956   2.511  21.561  0.00  0.00    +0.000 C 
ATOM     29  C   UNL     1       1.810   3.496  21.686  0.00  0.00    +0.000 C 
ATOM     30  C   UNL     1       0.742   3.129  20.674  0.00  0.00    +0.000 C 
ATOM     31  C   UNL     1       1.267   3.160  19.245  0.00  0.00    +0.000 C 
ENDBRANCH  23  26
ENDBRANCH   7  23
TORSDOF 4
ENDMDL
MODEL 6
REMARK VINA RESULT:      -8.9      6.543      9.956
REMARK  Name = 
REMARK  5 active torsions:
REMARK  status: ('A' for Active; 'I' for Inactive)
REMARK    1  A    between atoms: C_1  and  C_2
REMARK    2  A    between atoms: C_5  and  N_6
REMARK    3  A    between atoms: C_7  and  C_9
REMARK    4  A    between atoms: C_21  and  S_22
REMARK    5  A    between atoms: S_22  and  N_25
REMARK                            x       y       z     vdW  Elec       q    Type
REMARK                         _______ _______ _______ _____ _____    ______ ____
ROOT
ATOM      1  C   UNL     1       6.845   4.277  18.365  0.00  0.00    +0.000 C 
ATOM      2  C   UNL     1       7.130   5.744  18.199  0.00  0.00    +0.000 A 
ATOM      3  C   UNL     1       8.103   6.274  19.054  0.00  0.00    +0.000 A 
ATOM      4  C   UNL     1       8.525   7.597  18.948  0.00  0.00    +0.000 A 
ATOM      5  C   UNL     1       8.004   8.446  17.981  0.00  0.00    +0.000 A 
ATOM      6  C   UNL     1       7.015   7.942  17.121  0.00  0.00    +0.000 A 
ATOM      7  C   UNL     1       6.554   6.603  17.239  0.00  0.00    +0.000 A 
ENDROOT
BRANCH   5   8
ATOM      8  N   UNL     1       8.475   9.778  17.817  0.00  0.00    +0.000 N 
ATOM      9  C   UNL     1       9.094  10.538  18.799  0.00  0.00    +0.000 C 
ATOM     10  O   UNL     1       9.248  10.225  19.974  0.00  0.00    +0.000 OA
ATOM     11  H   UNL     1       8.368  10.200  16.903  0.00  0.00    +0.000 HD
BRANCH   9  12
ATOM     12  C   UNL     1       9.603  11.868  18.329  0.00  0.00    +0.000 A 
ATOM     13  C   UNL     1      10.741  11.848  17.619  0.00  0.00    +0.000 A 
ATOM     14  C   UNL     1      11.293  13.107  17.107  0.00  0.00    +0.000 A 
ATOM     15  O   UNL     1      12.332  13.128  16.465  0.00  0.00    +0.000 OA
ATOM     16  C   UNL     1      10.523  14.321  17.407  0.00  0.00    +0.000 A 
ATOM     17  C   UNL     1      10.957  15.562  16.940  0.00  0.00    +0.000 A 
ATOM     18  C   UNL     1      10.208  16.701  17.229  0.00  0.00    +0.000 A 
ATOM     19  C   UNL     1       9.037  16.595  17.983  0.00  0.00    +0.000 A 
ATOM     20  C   UNL     1       8.609  15.350  18.450  0.00  0.00    +0.000 A 
ATOM     21  C   UNL     1       9.352  14.208  18.159  0.00  0.00    +0.000 A 
ATOM     22  O   UNL     1       8.885  13.010  18.641  0.00  0.00    +0.000 OA
ENDBRANCH   9  12
ENDBRANCH   5   8
BRANCH   7  23
ATOM     23  S   UNL     1       5.362   6.025  16.005  0.00  0.00    +0.000 S 
ATOM     24  O   UNL     1       5.031   7.172  15.180  0.00  0.00    +0.000 OA
ATOM     25  O   UNL     1       5.885   4.818  15.402  0.00  0.00    +0.000 OA
BRANCH  23  26
ATOM     26  N   UNL     1       3.948   5.598  16.895  0.00  0.00    +0.000 NA
ATOM     27  C   UNL     1       3.696   4.143  17.000  0.00  0.00    +0.000 C 
ATOM     28  C   UNL     1       2.524   3.759  17.889  0.00  0.00    +0.000 C 
ATOM     29  C   UNL     1       2.538   4.517  19.201  0.00  0.00    +0.000 C 
ATOM     30  C   UNL     1       2.467   6.002  18.904  0.00  0.00    +0.000 C 
ATOM     31  C   UNL     1       3.634   6.475  18.046  0.00  0.00    +0.000 C 
ENDBRANCH  23  26
ENDBRANCH   7  23
TORSDOF 4
ENDMDL
MODEL 7
REMARK VINA RESULT:      -8.9      2.040      2.757
REMARK  Name = 
REMARK  5 active torsions:
REMARK  status: ('A' for Active; 'I' for Inactive)
REMARK    1  A    between atoms: C_1  and  C_2
REMARK    2  A    between atoms: C_5  and  N_6
REMARK    3  A    between atoms: C_7  and  C_9
REMARK    4  A    between atoms: C_21  and  S_22
REMARK    5  A    between atoms: S_22  and  N_25
REMARK                            x       y       z     vdW  Elec       q    Type
REMARK                         _______ _______ _______ _____ _____    ______ ____
ROOT
ATOM      1  C   UNL     1      -1.231  11.271  22.818  0.00  0.00    +0.000 C 
ATOM      2  C   UNL     1      -0.317  10.468  21.935  0.00  0.00    +0.000 A 
ATOM      3  C   UNL     1       0.424   9.469  22.577  0.00  0.00    +0.000 A 
ATOM      4  C   UNL     1       1.241   8.595  21.864  0.00  0.00    +0.000 A 
ATOM      5  C   UNL     1       1.350   8.672  20.483  0.00  0.00    +0.000 A 
ATOM      6  C   UNL     1       0.629   9.676  19.817  0.00  0.00    +0.000 A 
ATOM      7  C   UNL     1      -0.185  10.593  20.536  0.00  0.00    +0.000 A 
ENDROOT
BRANCH   5   8
ATOM      8  N   UNL     1       2.127   7.744  19.736  0.00  0.00    +0.000 N 
ATOM      9  C   UNL     1       2.109   6.367  19.901  0.00  0.00    +0.000 C 
ATOM     10  O   UNL     1       1.503   5.743  20.766  0.00  0.00    +0.000 OA
ATOM     11  H   UNL     1       2.727   8.116  19.011  0.00  0.00    +0.000 HD
BRANCH   9  12
ATOM     12  C   UNL     1       2.933   5.609  18.903  0.00  0.00    +0.000 A 
ATOM     13  C   UNL     1       2.871   4.270  18.980  0.00  0.00    +0.000 A 
ATOM     14  C   UNL     1       3.633   3.458  18.026  0.00  0.00    +0.000 A 
ATOM     15  O   UNL     1       3.608   2.237  18.073  0.00  0.00    +0.000 OA
ATOM     16  C   UNL     1       4.411   4.196  17.024  0.00  0.00    +0.000 A 
ATOM     17  C   UNL     1       5.148   3.507  16.059  0.00  0.00    +0.000 A 
ATOM     18  C   UNL     1       5.873   4.227  15.111  0.00  0.00    +0.000 A 
ATOM     19  C   UNL     1       5.862   5.623  15.134  0.00  0.00    +0.000 A 
ATOM     20  C   UNL     1       5.124   6.307  16.103  0.00  0.00    +0.000 A 
ATOM     21  C   UNL     1       4.394   5.592  17.050  0.00  0.00    +0.000 A 
ATOM     22  O   UNL     1       3.685   6.314  17.979  0.00  0.00    +0.000 OA
ENDBRANCH   9  12
ENDBRANCH   5   8
BRANCH   7  23
ATOM     23  S   UNL     1      -1.161  11.771  19.567  0.00  0.00    +0.000 S 
ATOM     24  O   UNL     1      -1.049  11.360  18.180  0.00  0.00    +0.000 OA
ATOM     25  O   UNL     1      -2.460  11.902  20.188  0.00  0.00    +0.000 OA
BRANCH  23  26
ATOM     26  N   UNL     1      -0.347  13.284  19.727  0.00  0.00    +0.000 NA
ATOM     27  C   UNL     1       0.757  13.501  18.765  0.00  0.00    +0.000 C 
ATOM     28  C   UNL     1       1.392  14.881  18.819  0.00  0.00    +0.000 C 
ATOM     29  C   UNL     1       0.350  15.980  18.879  0.00  0.00    +0.000 C 
ATOM     30  C   UNL     1      -0.499  15.777  20.119  0.00  0.00    +0.000 C 
ATOM     31  C   UNL     1      -1.204  14.427  20.121  0.00  0.00    +0.000 C 
ENDBRANCH  23  26
ENDBRANCH   7  23
TORSDOF 4
ENDMDL
MODEL 8
REMARK VINA RESULT:      -8.8      3.346      9.426
REMARK  Name = 
REMARK  5 active torsions:
REMARK  status: ('A' for Active; 'I' for Inactive)
REMARK    1  A    between atoms: C_1  and  C_2
REMARK    2  A    between atoms: C_5  and  N_6
REMARK    3  A    between atoms: C_7  and  C_9
REMARK    4  A    between atoms: C_21  and  S_22
REMARK    5  A    between atoms: S_22  and  N_25
REMARK                            x       y       z     vdW  Elec       q    Type
REMARK                         _______ _______ _______ _____ _____    ______ ____
ROOT
ATOM      1  C   UNL     1       3.953   3.011  17.287  0.00  0.00    +0.000 C 
ATOM      2  C   UNL     1       3.452   4.374  17.677  0.00  0.00    +0.000 A 
ATOM      3  C   UNL     1       2.464   4.397  18.668  0.00  0.00    +0.000 A 
ATOM      4  C   UNL     1       1.976   5.595  19.184  0.00  0.00    +0.000 A 
ATOM      5  C   UNL     1       2.455   6.820  18.741  0.00  0.00    +0.000 A 
ATOM      6  C   UNL     1       3.435   6.824  17.736  0.00  0.00    +0.000 A 
ATOM      7  C   UNL     1       3.919   5.609  17.180  0.00  0.00    +0.000 A 
ENDROOT
BRANCH   5   8
ATOM      8  N   UNL     1       2.015   8.049  19.307  0.00  0.00    +0.000 N 
ATOM      9  C   UNL     1       1.673   9.186  18.589  0.00  0.00    +0.000 C 
ATOM     10  O   UNL     1       1.784   9.345  17.379  0.00  0.00    +0.000 OA
ATOM     11  H   UNL     1       1.924   8.092  20.314  0.00  0.00    +0.000 HD
BRANCH   9  12
ATOM     12  C   UNL     1       1.126  10.307  19.422  0.00  0.00    +0.000 A 
ATOM     13  C   UNL     1       1.353  11.548  18.964  0.00  0.00    +0.000 A 
ATOM     14  C   UNL     1       0.833  12.697  19.712  0.00  0.00    +0.000 A 
ATOM     15  O   UNL     1       1.029  13.842  19.330  0.00  0.00    +0.000 OA
ATOM     16  C   UNL     1       0.068  12.388  20.926  0.00  0.00    +0.000 A 
ATOM     17  C   UNL     1      -0.487  13.417  21.688  0.00  0.00    +0.000 A 
ATOM     18  C   UNL     1      -1.216  13.101  22.833  0.00  0.00    +0.000 A 
ATOM     19  C   UNL     1      -1.383  11.767  23.211  0.00  0.00    +0.000 A 
ATOM     20  C   UNL     1      -0.823  10.742  22.444  0.00  0.00    +0.000 A 
ATOM     21  C   UNL     1      -0.097  11.052  21.297  0.00  0.00    +0.000 A 
ATOM     22  O   UNL     1       0.430  10.006  20.580  0.00  0.00    +0.000 OA
ENDBRANCH   9  12
ENDBRANCH   5   8
BRANCH   7  23
ATOM     23  S   UNL     1       5.265   5.727  15.974  0.00  0.00    +0.000 S 
ATOM     24  O   UNL     1       5.324   4.448  15.293  0.00  0.00    +0.000 OA
ATOM     25  O   UNL     1       5.090   6.949  15.220  0.00  0.00    +0.000 OA
BRANCH  23  26
ATOM     26  N   UNL     1       6.707   5.887  16.908  0.00  0.00    +0.000 NA
ATOM     27  C   UNL     1       6.978   7.255  17.403  0.00  0.00    +0.000 C 
ATOM     28  C   UNL     1       8.176   7.375  18.330  0.00  0.00    +0.000 C 
ATOM     29  C   UNL     1       8.188   6.284  19.382  0.00  0.00    +0.000 C 
ATOM     30  C   UNL     1       8.234   4.938  18.684  0.00  0.00    +0.000 C 
ATOM     31  C   UNL     1       7.041   4.725  17.763  0.00  0.00    +0.000 C 
ENDBRANCH  23  26
ENDBRANCH   7  23
TORSDOF 4
ENDMDL
MODEL 9
REMARK VINA RESULT:      -8.8      2.251      2.939
REMARK  Name = 
REMARK  5 active torsions:
REMARK  status: ('A' for Active; 'I' for Inactive)
REMARK    1  A    between atoms: C_1  and  C_2
REMARK    2  A    between atoms: C_5  and  N_6
REMARK    3  A    between atoms: C_7  and  C_9
REMARK    4  A    between atoms: C_21  and  S_22
REMARK    5  A    between atoms: S_22  and  N_25
REMARK                            x       y       z     vdW  Elec       q    Type
REMARK                         _______ _______ _______ _____ _____    ______ ____
ROOT
ATOM      1  C   UNL     1      -1.467  11.694  23.092  0.00  0.00    +0.000 C 
ATOM      2  C   UNL     1      -0.658  10.820  22.175  0.00  0.00    +0.000 A 
ATOM      3  C   UNL     1       0.099   9.822  22.799  0.00  0.00    +0.000 A 
ATOM      4  C   UNL     1       0.824   8.888  22.063  0.00  0.00    +0.000 A 
ATOM      5  C   UNL     1       0.821   8.903  20.675  0.00  0.00    +0.000 A 
ATOM      6  C   UNL     1       0.082   9.905  20.025  0.00  0.00    +0.000 A 
ATOM      7  C   UNL     1      -0.638  10.881  20.766  0.00  0.00    +0.000 A 
ENDROOT
BRANCH   5   8
ATOM      8  N   UNL     1       1.501   7.916  19.910  0.00  0.00    +0.000 N 
ATOM      9  C   UNL     1       2.163   8.143  18.712  0.00  0.00    +0.000 C 
ATOM     10  O   UNL     1       2.187   9.193  18.080  0.00  0.00    +0.000 OA
ATOM     11  H   UNL     1       1.522   6.973  20.280  0.00  0.00    +0.000 HD
BRANCH   9  12
ATOM     12  C   UNL     1       2.900   6.954  18.172  0.00  0.00    +0.000 A 
ATOM     13  C   UNL     1       2.472   5.753  18.590  0.00  0.00    +0.000 A 
ATOM     14  C   UNL     1       3.129   4.540  18.092  0.00  0.00    +0.000 A 
ATOM     15  O   UNL     1       2.771   3.430  18.459  0.00  0.00    +0.000 OA
ATOM     16  C   UNL     1       4.223   4.743  17.134  0.00  0.00    +0.000 A 
ATOM     17  C   UNL     1       4.890   3.647  16.587  0.00  0.00    +0.000 A 
ATOM     18  C   UNL     1       5.921   3.861  15.673  0.00  0.00    +0.000 A 
ATOM     19  C   UNL     1       6.280   5.163  15.316  0.00  0.00    +0.000 A 
ATOM     20  C   UNL     1       5.609   6.256  15.870  0.00  0.00    +0.000 A 
ATOM     21  C   UNL     1       4.575   6.047  16.779  0.00  0.00    +0.000 A 
ATOM     22  O   UNL     1       3.948   7.157  17.291  0.00  0.00    +0.000 OA
ENDBRANCH   9  12
ENDBRANCH   5   8
BRANCH   7  23
ATOM     23  S   UNL     1      -1.650  12.053  19.827  0.00  0.00    +0.000 S 
ATOM     24  O   UNL     1      -1.609  11.621  18.443  0.00  0.00    +0.000 OA
ATOM     25  O   UNL     1      -2.917  12.204  20.508  0.00  0.00    +0.000 OA
BRANCH  23  26
ATOM     26  N   UNL     1      -0.817  13.561  19.925  0.00  0.00    +0.000 NA
ATOM     27  C   UNL     1       0.083  13.849  18.785  0.00  0.00    +0.000 C 
ATOM     28  C   UNL     1       0.719  15.229  18.804  0.00  0.00    +0.000 C 
ATOM     29  C   UNL     1      -0.290  16.312  19.132  0.00  0.00    +0.000 C 
ATOM     30  C   UNL     1      -0.886  16.023  20.496  0.00  0.00    +0.000 C 
ATOM     31  C   UNL     1      -1.580  14.668  20.546  0.00  0.00    +0.000 C 
ENDBRANCH  23  26
ENDBRANCH   7  23
TORSDOF 4
ENDMDL
