MODEL 1
REMARK VINA RESULT:      -8.5      0.000      0.000
REMARK  Name = 
REMARK  3 active torsions:
REMARK  status: ('A' for Active; 'I' for Inactive)
REMARK    1  A    between atoms: C_8  and  N_9
REMARK    2  A    between atoms: C_10  and  C_12
REMARK    3  A    between atoms: N_15  and  C_16
REMARK                            x       y       z     vdW  Elec       q    Type
REMARK                         _______ _______ _______ _____ _____    ______ ____
ROOT
ATOM      1  N   UNL     1       2.047   8.292  18.476  0.00  0.00    +0.000 N 
ATOM      2  C   UNL     1       1.571   8.507  19.759  0.00  0.00    +0.000 C 
ATOM      3  O   UNL     1       1.705   7.748  20.714  0.00  0.00    +0.000 OA
ATOM      4  H   UNL     1       1.923   9.078  17.843  0.00  0.00    +0.000 HD
ENDROOT
BRANCH   1  12
ATOM      5  O   UNL     1       7.672   5.533  15.104  0.00  0.00    +0.000 OA
ATOM      6  C   UNL     1       6.568   5.344  15.611  0.00  0.00    +0.000 C 
ATOM      7  C   UNL     1       5.826   4.033  15.464  0.00  0.00    +0.000 C 
ATOM      8  C   UNL     1       5.007   3.718  16.701  0.00  0.00    +0.000 C 
ATOM      9  C   UNL     1       4.176   4.904  17.101  0.00  0.00    +0.000 A 
ATOM     10  C   UNL     1       2.966   4.734  17.769  0.00  0.00    +0.000 A 
ATOM     11  C   UNL     1       2.251   5.847  18.212  0.00  0.00    +0.000 A 
ATOM     12  C   UNL     1       2.738   7.146  18.021  0.00  0.00    +0.000 A 
ATOM     13  C   UNL     1       3.955   7.317  17.346  0.00  0.00    +0.000 A 
ATOM     14  C   UNL     1       4.664   6.198  16.889  0.00  0.00    +0.000 A 
ATOM     15  N   UNL     1       5.894   6.359  16.239  0.00  0.00    +0.000 N 
ATOM     16  H   UNL     1       6.345   7.265  16.215  0.00  0.00    +0.000 HD
ENDBRANCH   1  12
BRANCH   2  17
ATOM     17  C   UNL     1       0.889   9.798  19.939  0.00  0.00    +0.000 A 
ATOM     18  C   UNL     1       1.210  10.980  19.239  0.00  0.00    +0.000 A 
ATOM     19  C   UNL     1       0.308  11.914  19.672  0.00  0.00    +0.000 A 
ATOM     20  N   UNL     1      -0.511  11.298  20.591  0.00  0.00    +0.000 N 
ATOM     21  N   UNL     1      -0.138   9.993  20.788  0.00  0.00    +0.000 NA
BRANCH  20  22
ATOM     22  C   UNL     1      -1.633  11.843  21.273  0.00  0.00    +0.000 A 
ATOM     23  C   UNL     1      -2.606  12.551  20.548  0.00  0.00    +0.000 A 
ATOM     24  C   UNL     1      -3.698  13.128  21.206  0.00  0.00    +0.000 A 
ATOM     25  C   UNL     1      -3.827  13.004  22.589  0.00  0.00    +0.000 A 
ATOM     26  C   UNL     1      -2.874  12.297  23.313  0.00  0.00    +0.000 A 
ATOM     27  C   UNL     1      -1.788  11.717  22.657  0.00  0.00    +0.000 A 
ATOM     28  F   UNL     1      -0.902  11.065  23.421  0.00  0.00    +0.000 F 
ENDBRANCH  20  22
ENDBRANCH   2  17
TORSDOF 3
ENDMDL
MODEL 2
REMARK VINA RESULT:      -8.5      1.558      1.964
REMARK  Name = 
REMARK  3 active torsions:
REMARK  status: ('A' for Active; 'I' for Inactive)
REMARK    1  A    between atoms: C_8  and  N_9
REMARK    2  A    between atoms: C_10  and  C_12
REMARK    3  A    between atoms: N_15  and  C_16
REMARK                            x       y       z     vdW  Elec       q    Type
REMARK                         _______ _______ _______ _____ _____    ______ ____
ROOT
ATOM      1  N   UNL     1       2.561   6.768  19.239  0.00  0.00    +0.000 N 
ATOM      2  C   UNL     1       2.041   8.018  18.943  0.00  0.00    +0.000 C 
ATOM      3  O   UNL     1       2.040   8.556  17.840  0.00  0.00    +0.000 OA
ATOM      4  H   UNL     1       2.383   6.451  20.187  0.00  0.00    +0.000 HD
ENDROOT
BRANCH   1  12
ATOM      5  O   UNL     1       7.897   5.673  14.661  0.00  0.00    +0.000 OA
ATOM      6  C   UNL     1       6.841   5.268  15.143  0.00  0.00    +0.000 C 
ATOM      7  C   UNL     1       6.096   4.081  14.573  0.00  0.00    +0.000 C 
ATOM      8  C   UNL     1       5.387   3.297  15.661  0.00  0.00    +0.000 C 
ATOM      9  C   UNL     1       4.586   4.218  16.537  0.00  0.00    +0.000 A 
ATOM     10  C   UNL     1       3.438   3.767  17.183  0.00  0.00    +0.000 A 
ATOM     11  C   UNL     1       2.756   4.608  18.064  0.00  0.00    +0.000 A 
ATOM     12  C   UNL     1       3.218   5.901  18.336  0.00  0.00    +0.000 A 
ATOM     13  C   UNL     1       4.372   6.355  17.684  0.00  0.00    +0.000 A 
ATOM     14  C   UNL     1       5.047   5.515  16.790  0.00  0.00    +0.000 A 
ATOM     15  N   UNL     1       6.217   5.951  16.155  0.00  0.00    +0.000 N 
ATOM     16  H   UNL     1       6.659   6.817  16.437  0.00  0.00    +0.000 HD
ENDBRANCH   1  12
BRANCH   2  17
ATOM     17  C   UNL     1       1.412   8.693  20.089  0.00  0.00    +0.000 A 
ATOM     18  C   UNL     1       1.223   8.110  21.359  0.00  0.00    +0.000 A 
ATOM     19  C   UNL     1       0.655   9.091  22.127  0.00  0.00    +0.000 A 
ATOM     20  N   UNL     1       0.519  10.207  21.333  0.00  0.00    +0.000 N 
ATOM     21  N   UNL     1       0.956   9.960  20.057  0.00  0.00    +0.000 NA
BRANCH  20  22
ATOM     22  C   UNL     1       0.034  11.493  21.698  0.00  0.00    +0.000 A 
ATOM     23  C   UNL     1       0.575  12.635  21.086  0.00  0.00    +0.000 A 
ATOM     24  C   UNL     1       0.139  13.912  21.458  0.00  0.00    +0.000 A 
ATOM     25  C   UNL     1      -0.837  14.057  22.442  0.00  0.00    +0.000 A 
ATOM     26  C   UNL     1      -1.386  12.931  23.046  0.00  0.00    +0.000 A 
ATOM     27  C   UNL     1      -0.955  11.659  22.672  0.00  0.00    +0.000 A 
ATOM     28  F   UNL     1      -1.517  10.623  23.308  0.00  0.00    +0.000 F 
ENDBRANCH  20  22
ENDBRANCH   2  17
TORSDOF 3
ENDMDL
MODEL 3
REMARK VINA RESULT:      -8.5      0.936      1.328
REMARK  Name = 
REMARK  3 active torsions:
REMARK  status: ('A' for Active; 'I' for Inactive)
REMARK    1  A    between atoms: C_8  and  N_9
REMARK    2  A    between atoms: C_10  and  C_12
REMARK    3  A    between atoms: N_15  and  C_16
REMARK                            x       y       z     vdW  Elec       q    Type
REMARK                         _______ _______ _______ _____ _____    ______ ____
ROOT
ATOM      1  N   UNL     1       1.990   8.330  18.558  0.00  0.00    +0.000 N 
ATOM      2  C   UNL     1       1.500   8.527  19.839  0.00  0.00    +0.000 C 
ATOM      3  O   UNL     1       1.612   7.749  20.780  0.00  0.00    +0.000 OA
ATOM      4  H   UNL     1       1.885   9.129  17.939  0.00  0.00    +0.000 HD
ENDROOT
BRANCH   1  12
ATOM      5  O   UNL     1       7.621   5.565  15.202  0.00  0.00    +0.000 OA
ATOM      6  C   UNL     1       6.509   5.379  15.692  0.00  0.00    +0.000 C 
ATOM      7  C   UNL     1       5.753   4.081  15.513  0.00  0.00    +0.000 C 
ATOM      8  C   UNL     1       4.917   3.754  16.735  0.00  0.00    +0.000 C 
ATOM      9  C   UNL     1       4.095   4.943  17.146  0.00  0.00    +0.000 A 
ATOM     10  C   UNL     1       2.876   4.775  17.797  0.00  0.00    +0.000 A 
ATOM     11  C   UNL     1       2.169   5.889  18.252  0.00  0.00    +0.000 A 
ATOM     12  C   UNL     1       2.673   7.185  18.090  0.00  0.00    +0.000 A 
ATOM     13  C   UNL     1       3.899   7.353  17.433  0.00  0.00    +0.000 A 
ATOM     14  C   UNL     1       4.601   6.234  16.964  0.00  0.00    +0.000 A 
ATOM     15  N   UNL     1       5.840   6.392  16.331  0.00  0.00    +0.000 N 
ATOM     16  H   UNL     1       6.303   7.292  16.328  0.00  0.00    +0.000 HD
ENDBRANCH   1  12
BRANCH   2  17
ATOM     17  C   UNL     1       0.832   9.823  20.034  0.00  0.00    +0.000 A 
ATOM     18  C   UNL     1       1.176  11.013  19.360  0.00  0.00    +0.000 A 
ATOM     19  C   UNL     1       0.281  11.951  19.799  0.00  0.00    +0.000 A 
ATOM     20  N   UNL     1      -0.557  11.329  20.697  0.00  0.00    +0.000 N 
ATOM     21  N   UNL     1      -0.203  10.016  20.874  0.00  0.00    +0.000 NA
BRANCH  20  22
ATOM     22  C   UNL     1      -1.680  11.875  21.376  0.00  0.00    +0.000 A 
ATOM     23  C   UNL     1      -1.739  11.812  22.778  0.00  0.00    +0.000 A 
ATOM     24  C   UNL     1      -2.852  12.309  23.464  0.00  0.00    +0.000 A 
ATOM     25  C   UNL     1      -3.915  12.871  22.757  0.00  0.00    +0.000 A 
ATOM     26  C   UNL     1      -3.861  12.947  21.369  0.00  0.00    +0.000 A 
ATOM     27  C   UNL     1      -2.749  12.457  20.686  0.00  0.00    +0.000 A 
ATOM     28  F   UNL     1      -2.775  12.549  19.350  0.00  0.00    +0.000 F 
ENDBRANCH  20  22
ENDBRANCH   2  17
TORSDOF 3
ENDMDL
MODEL 4
REMARK VINA RESULT:      -8.4      6.327      9.214
REMARK  Name = 
REMARK  3 active torsions:
REMARK  status: ('A' for Active; 'I' for Inactive)
REMARK    1  A    between atoms: C_8  and  N_9
REMARK    2  A    between atoms: C_10  and  C_12
REMARK    3  A    between atoms: N_15  and  C_16
REMARK                            x       y       z     vdW  Elec       q    Type
REMARK                         _______ _______ _______ _____ _____    ______ ____
ROOT
ATOM      1  N   UNL     1       7.713   8.876  17.857  0.00  0.00    +0.000 N 
ATOM      2  C   UNL     1       7.781   7.527  18.163  0.00  0.00    +0.000 C 
ATOM      3  O   UNL     1       8.573   7.002  18.939  0.00  0.00    +0.000 OA
ATOM      4  H   UNL     1       6.928   9.136  17.267  0.00  0.00    +0.000 HD
ENDROOT
BRANCH   1  12
ATOM      5  O   UNL     1      11.037  15.075  16.782  0.00  0.00    +0.000 OA
ATOM      6  C   UNL     1      10.887  14.086  17.497  0.00  0.00    +0.000 C 
ATOM      7  C   UNL     1      11.799  13.790  18.668  0.00  0.00    +0.000 C 
ATOM      8  C   UNL     1      11.048  13.113  19.798  0.00  0.00    +0.000 C 
ATOM      9  C   UNL     1      10.245  11.954  19.279  0.00  0.00    +0.000 A 
ATOM     10  C   UNL     1       9.966  10.859  20.093  0.00  0.00    +0.000 A 
ATOM     11  C   UNL     1       9.144   9.833  19.625  0.00  0.00    +0.000 A 
ATOM     12  C   UNL     1       8.566   9.890  18.351  0.00  0.00    +0.000 A 
ATOM     13  C   UNL     1       8.849  10.991  17.532  0.00  0.00    +0.000 A 
ATOM     14  C   UNL     1       9.686  12.013  17.998  0.00  0.00    +0.000 A 
ATOM     15  N   UNL     1       9.951  13.130  17.195  0.00  0.00    +0.000 N 
ATOM     16  H   UNL     1       9.437  13.276  16.336  0.00  0.00    +0.000 HD
ENDBRANCH   1  12
BRANCH   2  17
ATOM     17  C   UNL     1       6.757   6.708  17.496  0.00  0.00    +0.000 A 
ATOM     18  C   UNL     1       6.739   6.412  16.117  0.00  0.00    +0.000 A 
ATOM     19  C   UNL     1       5.656   5.593  15.936  0.00  0.00    +0.000 A 
ATOM     20  N   UNL     1       5.065   5.417  17.166  0.00  0.00    +0.000 N 
ATOM     21  N   UNL     1       5.721   6.131  18.136  0.00  0.00    +0.000 NA
BRANCH  20  22
ATOM     22  C   UNL     1       3.946   4.604  17.496  0.00  0.00    +0.000 A 
ATOM     23  C   UNL     1       4.074   3.206  17.466  0.00  0.00    +0.000 A 
ATOM     24  C   UNL     1       2.975   2.388  17.750  0.00  0.00    +0.000 A 
ATOM     25  C   UNL     1       1.742   2.958  18.065  0.00  0.00    +0.000 A 
ATOM     26  C   UNL     1       1.609   4.342  18.107  0.00  0.00    +0.000 A 
ATOM     27  C   UNL     1       2.705   5.157  17.829  0.00  0.00    +0.000 A 
ATOM     28  F   UNL     1       2.497   6.479  17.872  0.00  0.00    +0.000 F 
ENDBRANCH  20  22
ENDBRANCH   2  17
TORSDOF 3
ENDMDL
MODEL 5
REMARK VINA RESULT:      -8.4      1.940      2.624
REMARK  Name = 
REMARK  3 active torsions:
REMARK  status: ('A' for Active; 'I' for Inactive)
REMARK    1  A    between atoms: C_8  and  N_9
REMARK    2  A    between atoms: C_10  and  C_12
REMARK    3  A    between atoms: N_15  and  C_16
REMARK                            x       y       z     vdW  Elec       q    Type
REMARK                         _______ _______ _______ _____ _____    ______ ____
ROOT
ATOM      1  N   UNL     1       2.735   7.295  18.545  0.00  0.00    +0.000 N 
ATOM      2  C   UNL     1       2.156   7.140  19.794  0.00  0.00    +0.000 C 
ATOM      3  O   UNL     1       2.169   6.117  20.472  0.00  0.00    +0.000 OA
ATOM      4  H   UNL     1       2.704   8.244  18.181  0.00  0.00    +0.000 HD
ENDROOT
BRANCH   1  12
ATOM      5  O   UNL     1       8.009   5.567  14.093  0.00  0.00    +0.000 OA
ATOM      6  C   UNL     1       6.986   5.217  14.678  0.00  0.00    +0.000 C 
ATOM      7  C   UNL     1       6.289   3.909  14.374  0.00  0.00    +0.000 C 
ATOM      8  C   UNL     1       5.645   3.322  15.616  0.00  0.00    +0.000 C 
ATOM      9  C   UNL     1       4.820   4.360  16.323  0.00  0.00    +0.000 A 
ATOM     10  C   UNL     1       3.712   3.993  17.082  0.00  0.00    +0.000 A 
ATOM     11  C   UNL     1       3.010   4.958  17.805  0.00  0.00    +0.000 A 
ATOM     12  C   UNL     1       3.413   6.299  17.807  0.00  0.00    +0.000 A 
ATOM     13  C   UNL     1       4.527   6.668  17.041  0.00  0.00    +0.000 A 
ATOM     14  C   UNL     1       5.222   5.700  16.304  0.00  0.00    +0.000 A 
ATOM     15  N   UNL     1       6.353   6.056  15.559  0.00  0.00    +0.000 N 
ATOM     16  H   UNL     1       6.758   6.979  15.653  0.00  0.00    +0.000 HD
ENDBRANCH   1  12
BRANCH   2  17
ATOM     17  C   UNL     1       1.518   8.358  20.317  0.00  0.00    +0.000 A 
ATOM     18  C   UNL     1       1.197   8.577  21.672  0.00  0.00    +0.000 A 
ATOM     19  C   UNL     1       0.673   9.841  21.721  0.00  0.00    +0.000 A 
ATOM     20  N   UNL     1       0.689  10.341  20.439  0.00  0.00    +0.000 N 
ATOM     21  N   UNL     1       1.183   9.416  19.554  0.00  0.00    +0.000 NA
BRANCH  20  22
ATOM     22  C   UNL     1       0.301  11.635  19.994  0.00  0.00    +0.000 A 
ATOM     23  C   UNL     1      -0.953  12.147  20.369  0.00  0.00    +0.000 A 
ATOM     24  C   UNL     1      -1.371  13.401  19.911  0.00  0.00    +0.000 A 
ATOM     25  C   UNL     1      -0.543  14.152  19.077  0.00  0.00    +0.000 A 
ATOM     26  C   UNL     1       0.703  13.657  18.709  0.00  0.00    +0.000 A 
ATOM     27  C   UNL     1       1.122  12.410  19.169  0.00  0.00    +0.000 A 
ATOM     28  F   UNL     1       2.327  11.991  18.760  0.00  0.00    +0.000 F 
ENDBRANCH  20  22
ENDBRANCH   2  17
TORSDOF 3
ENDMDL
MODEL 6
REMARK VINA RESULT:      -8.4      3.436     10.075
REMARK  Name = 
REMARK  3 active torsions:
REMARK  status: ('A' for Active; 'I' for Inactive)
REMARK    1  A    between atoms: C_8  and  N_9
REMARK    2  A    between atoms: C_10  and  C_12
REMARK    3  A    between atoms: N_15  and  C_16
REMARK                            x       y       z     vdW  Elec       q    Type
REMARK                         _______ _______ _______ _____ _____    ______ ____
ROOT
ATOM      1  N   UNL     1       2.837   7.017  17.903  0.00  0.00    +0.000 N 
ATOM      2  C   UNL     1       3.546   5.989  18.503  0.00  0.00    +0.000 C 
ATOM      3  O   UNL     1       3.652   5.796  19.710  0.00  0.00    +0.000 OA
ATOM      4  H   UNL     1       2.784   6.957  16.890  0.00  0.00    +0.000 HD
ENDROOT
BRANCH   1  12
ATOM      5  O   UNL     1       0.185   9.633  23.965  0.00  0.00    +0.000 OA
ATOM      6  C   UNL     1       0.265   9.723  22.741  0.00  0.00    +0.000 C 
ATOM      7  C   UNL     1      -0.599  10.674  21.942  0.00  0.00    +0.000 C 
ATOM      8  C   UNL     1       0.139  11.208  20.730  0.00  0.00    +0.000 C 
ATOM      9  C   UNL     1       0.769  10.084  19.958  0.00  0.00    +0.000 A 
ATOM     10  C   UNL     1       0.972  10.189  18.584  0.00  0.00    +0.000 A 
ATOM     11  C   UNL     1       1.639   9.175  17.897  0.00  0.00    +0.000 A 
ATOM     12  C   UNL     1       2.139   8.051  18.567  0.00  0.00    +0.000 A 
ATOM     13  C   UNL     1       1.933   7.945  19.950  0.00  0.00    +0.000 A 
ATOM     14  C   UNL     1       1.250   8.958  20.635  0.00  0.00    +0.000 A 
ATOM     15  N   UNL     1       1.064   8.873  22.021  0.00  0.00    +0.000 N 
ATOM     16  H   UNL     1       1.536   8.155  22.557  0.00  0.00    +0.000 HD
ENDBRANCH   1  12
BRANCH   2  17
ATOM     17  C   UNL     1       4.171   5.056  17.553  0.00  0.00    +0.000 A 
ATOM     18  C   UNL     1       4.151   3.651  17.677  0.00  0.00    +0.000 A 
ATOM     19  C   UNL     1       4.798   3.180  16.566  0.00  0.00    +0.000 A 
ATOM     20  N   UNL     1       5.181   4.272  15.821  0.00  0.00    +0.000 N 
ATOM     21  N   UNL     1       4.825   5.443  16.441  0.00  0.00    +0.000 NA
BRANCH  20  22
ATOM     22  C   UNL     1       5.832   4.290  14.556  0.00  0.00    +0.000 A 
ATOM     23  C   UNL     1       5.275   3.576  13.483  0.00  0.00    +0.000 A 
ATOM     24  C   UNL     1       5.919   3.548  12.241  0.00  0.00    +0.000 A 
ATOM     25  C   UNL     1       7.121   4.232  12.062  0.00  0.00    +0.000 A 
ATOM     26  C   UNL     1       7.674   4.950  13.116  0.00  0.00    +0.000 A 
ATOM     27  C   UNL     1       7.030   4.981  14.352  0.00  0.00    +0.000 A 
ATOM     28  F   UNL     1       7.629   5.680  15.325  0.00  0.00    +0.000 F 
ENDBRANCH  20  22
ENDBRANCH   2  17
TORSDOF 3
ENDMDL
MODEL 7
REMARK VINA RESULT:      -8.3      2.419      2.893
REMARK  Name = 
REMARK  3 active torsions:
REMARK  status: ('A' for Active; 'I' for Inactive)
REMARK    1  A    between atoms: C_8  and  N_9
REMARK    2  A    between atoms: C_10  and  C_12
REMARK    3  A    between atoms: N_15  and  C_16
REMARK                            x       y       z     vdW  Elec       q    Type
REMARK                         _______ _______ _______ _____ _____    ______ ____
ROOT
ATOM      1  N   UNL     1       1.702   8.587  18.456  0.00  0.00    +0.000 N 
ATOM      2  C   UNL     1       1.176   9.128  19.618  0.00  0.00    +0.000 C 
ATOM      3  O   UNL     1       1.459   8.790  20.763  0.00  0.00    +0.000 OA
ATOM      4  H   UNL     1       1.420   9.063  17.604  0.00  0.00    +0.000 HD
ENDROOT
BRANCH   1  12
ATOM      5  O   UNL     1       7.518   5.821  15.431  0.00  0.00    +0.000 OA
ATOM      6  C   UNL     1       6.557   5.656  16.181  0.00  0.00    +0.000 C 
ATOM      7  C   UNL     1       6.183   4.296  16.727  0.00  0.00    +0.000 C 
ATOM      8  C   UNL     1       5.599   4.400  18.123  0.00  0.00    +0.000 C 
ATOM      9  C   UNL     1       4.522   5.446  18.167  0.00  0.00    +0.000 A 
ATOM     10  C   UNL     1       3.470   5.348  19.075  0.00  0.00    +0.000 A 
ATOM     11  C   UNL     1       2.528   6.373  19.165  0.00  0.00    +0.000 A 
ATOM     12  C   UNL     1       2.629   7.523  18.373  0.00  0.00    +0.000 A 
ATOM     13  C   UNL     1       3.686   7.620  17.458  0.00  0.00    +0.000 A 
ATOM     14  C   UNL     1       4.623   6.584  17.359  0.00  0.00    +0.000 A 
ATOM     15  N   UNL     1       5.698   6.686  16.468  0.00  0.00    +0.000 N 
ATOM     16  H   UNL     1       5.886   7.559  15.990  0.00  0.00    +0.000 HD
ENDBRANCH   1  12
BRANCH   2  17
ATOM     17  C   UNL     1       0.230  10.232  19.392  0.00  0.00    +0.000 A 
ATOM     18  C   UNL     1       0.534  11.598  19.567  0.00  0.00    +0.000 A 
ATOM     19  C   UNL     1      -0.602  12.271  19.204  0.00  0.00    +0.000 A 
ATOM     20  N   UNL     1      -1.534  11.331  18.830  0.00  0.00    +0.000 N 
ATOM     21  N   UNL     1      -1.039  10.060  18.974  0.00  0.00    +0.000 NA
BRANCH  20  22
ATOM     22  C   UNL     1      -2.845  11.545  18.323  0.00  0.00    +0.000 A 
ATOM     23  C   UNL     1      -3.848  12.030  19.180  0.00  0.00    +0.000 A 
ATOM     24  C   UNL     1      -5.153  12.212  18.710  0.00  0.00    +0.000 A 
ATOM     25  C   UNL     1      -5.468  11.910  17.386  0.00  0.00    +0.000 A 
ATOM     26  C   UNL     1      -4.480  11.440  16.528  0.00  0.00    +0.000 A 
ATOM     27  C   UNL     1      -3.178  11.263  16.994  0.00  0.00    +0.000 A 
ATOM     28  F   UNL     1      -2.283  10.792  16.116  0.00  0.00    +0.000 F 
ENDBRANCH  20  22
ENDBRANCH   2  17
TORSDOF 3
ENDMDL
MODEL 8
REMARK VINA RESULT:      -8.3      1.633      2.045
REMARK  Name = 
REMARK  3 active torsions:
REMARK  status: ('A' for Active; 'I' for Inactive)
REMARK    1  A    between atoms: C_8  and  N_9
REMARK    2  A    between atoms: C_10  and  C_12
REMARK    3  A    between atoms: N_15  and  C_16
REMARK                            x       y       z     vdW  Elec       q    Type
REMARK                         _______ _______ _______ _____ _____    ______ ____
ROOT
ATOM      1  N   UNL     1       1.903   8.404  18.086  0.00  0.00    +0.000 N 
ATOM      2  C   UNL     1       1.482   8.835  19.334  0.00  0.00    +0.000 C 
ATOM      3  O   UNL     1       1.739   8.298  20.406  0.00  0.00    +0.000 OA
ATOM      4  H   UNL     1       1.672   9.033  17.323  0.00  0.00    +0.000 HD
ENDROOT
BRANCH   1  12
ATOM      5  O   UNL     1       7.721   5.525  15.175  0.00  0.00    +0.000 OA
ATOM      6  C   UNL     1       6.628   5.345  15.708  0.00  0.00    +0.000 C 
ATOM      7  C   UNL     1       5.975   3.982  15.773  0.00  0.00    +0.000 C 
ATOM      8  C   UNL     1       5.170   3.813  17.047  0.00  0.00    +0.000 C 
ATOM      9  C   UNL     1       4.260   4.990  17.257  0.00  0.00    +0.000 A 
ATOM     10  C   UNL     1       3.059   4.848  17.947  0.00  0.00    +0.000 A 
ATOM     11  C   UNL     1       2.269   5.967  18.211  0.00  0.00    +0.000 A 
ATOM     12  C   UNL     1       2.671   7.249  17.816  0.00  0.00    +0.000 A 
ATOM     13  C   UNL     1       3.879   7.391  17.119  0.00  0.00    +0.000 A 
ATOM     14  C   UNL     1       4.664   6.264  16.842  0.00  0.00    +0.000 A 
ATOM     15  N   UNL     1       5.885   6.401  16.171  0.00  0.00    +0.000 N 
ATOM     16  H   UNL     1       6.276   7.319  16.002  0.00  0.00    +0.000 HD
ENDBRANCH   1  12
BRANCH   2  17
ATOM     17  C   UNL     1       0.694  10.077  19.306  0.00  0.00    +0.000 A 
ATOM     18  C   UNL     1       1.224  11.359  19.047  0.00  0.00    +0.000 A 
ATOM     19  C   UNL     1       0.149  12.207  19.068  0.00  0.00    +0.000 A 
ATOM     20  N   UNL     1      -0.968  11.446  19.329  0.00  0.00    +0.000 N 
ATOM     21  N   UNL     1      -0.637  10.128  19.510  0.00  0.00    +0.000 NA
BRANCH  20  22
ATOM     22  C   UNL     1      -2.325  11.868  19.391  0.00  0.00    +0.000 A 
ATOM     23  C   UNL     1      -2.756  12.651  20.475  0.00  0.00    +0.000 A 
ATOM     24  C   UNL     1      -4.095  13.045  20.576  0.00  0.00    +0.000 A 
ATOM     25  C   UNL     1      -5.012  12.660  19.598  0.00  0.00    +0.000 A 
ATOM     26  C   UNL     1      -4.592  11.894  18.517  0.00  0.00    +0.000 A 
ATOM     27  C   UNL     1      -3.257  11.506  18.414  0.00  0.00    +0.000 A 
ATOM     28  F   UNL     1      -2.929  10.756  17.353  0.00  0.00    +0.000 F 
ENDBRANCH  20  22
ENDBRANCH   2  17
TORSDOF 3
ENDMDL
MODEL 9
REMARK VINA RESULT:      -8.3      1.961      2.512
REMARK  Name = 
REMARK  3 active torsions:
REMARK  status: ('A' for Active; 'I' for Inactive)
REMARK    1  A    between atoms: C_8  and  N_9
REMARK    2  A    between atoms: C_10  and  C_12
REMARK    3  A    between atoms: N_15  and  C_16
REMARK                            x       y       z     vdW  Elec       q    Type
REMARK                         _______ _______ _______ _____ _____    ______ ____
ROOT
ATOM      1  N   UNL     1       2.581   7.444  18.732  0.00  0.00    +0.000 N 
ATOM      2  C   UNL     1       1.953   7.302  19.959  0.00  0.00    +0.000 C 
ATOM      3  O   UNL     1       1.900   6.273  20.626  0.00  0.00    +0.000 OA
ATOM      4  H   UNL     1       2.603   8.396  18.378  0.00  0.00    +0.000 HD
ENDROOT
BRANCH   1  12
ATOM      5  O   UNL     1       7.934   5.534  14.452  0.00  0.00    +0.000 OA
ATOM      6  C   UNL     1       6.876   5.223  14.996  0.00  0.00    +0.000 C 
ATOM      7  C   UNL     1       6.135   3.950  14.652  0.00  0.00    +0.000 C 
ATOM      8  C   UNL     1       5.422   3.379  15.863  0.00  0.00    +0.000 C 
ATOM      9  C   UNL     1       4.617   4.444  16.552  0.00  0.00    +0.000 A 
ATOM     10  C   UNL     1       3.467   4.117  17.267  0.00  0.00    +0.000 A 
ATOM     11  C   UNL     1       2.782   5.104  17.975  0.00  0.00    +0.000 A 
ATOM     12  C   UNL     1       3.241   6.427  18.007  0.00  0.00    +0.000 A 
ATOM     13  C   UNL     1       4.398   6.755  17.286  0.00  0.00    +0.000 A 
ATOM     14  C   UNL     1       5.077   5.765  16.564  0.00  0.00    +0.000 A 
ATOM     15  N   UNL     1       6.248   6.079  15.864  0.00  0.00    +0.000 N 
ATOM     16  H   UNL     1       6.689   6.983  15.983  0.00  0.00    +0.000 HD
ENDBRANCH   1  12
BRANCH   2  17
ATOM     17  C   UNL     1       1.349   8.541  20.473  0.00  0.00    +0.000 A 
ATOM     18  C   UNL     1       0.882   8.720  21.792  0.00  0.00    +0.000 A 
ATOM     19  C   UNL     1       0.452  10.018  21.851  0.00  0.00    +0.000 A 
ATOM     20  N   UNL     1       0.662  10.577  20.611  0.00  0.00    +0.000 N 
ATOM     21  N   UNL     1       1.189   9.659  19.739  0.00  0.00    +0.000 NA
BRANCH  20  22
ATOM     22  C   UNL     1       0.428  11.917  20.199  0.00  0.00    +0.000 A 
ATOM     23  C   UNL     1       1.419  12.890  20.414  0.00  0.00    +0.000 A 
ATOM     24  C   UNL     1       1.194  14.222  20.051  0.00  0.00    +0.000 A 
ATOM     25  C   UNL     1      -0.019  14.594  19.473  0.00  0.00    +0.000 A 
ATOM     26  C   UNL     1      -1.002  13.636  19.247  0.00  0.00    +0.000 A 
ATOM     27  C   UNL     1      -0.776  12.308  19.604  0.00  0.00    +0.000 A 
ATOM     28  F   UNL     1      -1.774  11.445  19.372  0.00  0.00    +0.000 F 
ENDBRANCH  20  22
ENDBRANCH   2  17
TORSDOF 3
ENDMDL
