MODEL 1
REMARK VINA RESULT:      -9.1      0.000      0.000
REMARK  Name = 
REMARK  5 active torsions:
REMARK  status: ('A' for Active; 'I' for Inactive)
REMARK    1  A    between atoms: C_2  and  C_16
REMARK    2  A    between atoms: N_3  and  C_4
REMARK    3  A    between atoms: C_4  and  C_5
REMARK    4  A    between atoms: C_9  and  C_10
REMARK    5  A    between atoms: C_20  and  C_21
REMARK                            x       y       z     vdW  Elec       q    Type
REMARK                         _______ _______ _______ _____ _____    ______ ____
ROOT
ATOM      1  O   UNL     1       5.184   2.434  20.084  0.00  0.00    +0.000 OA
ATOM      2  C   UNL     1       4.538   3.010  19.219  0.00  0.00    +0.000 C 
ATOM      3  N   UNL     1       5.094   3.881  18.298  0.00  0.00    +0.000 N 
ATOM      4  H   UNL     1       4.454   4.410  17.720  0.00  0.00    +0.000 HD
ENDROOT
BRANCH   2   5
ATOM      5  C   UNL     1       3.104   2.831  19.036  0.00  0.00    +0.000 A 
ATOM      6  C   UNL     1       2.475   1.606  18.878  0.00  0.00    +0.000 A 
ATOM      7  N   UNL     1       1.145   1.864  18.807  0.00  0.00    +0.000 N 
ATOM      8  N   UNL     1       0.849   3.164  18.874  0.00  0.00    +0.000 NA
ATOM      9  C   UNL     1       2.037   3.790  19.009  0.00  0.00    +0.000 A 
ATOM     10  H   UNL     1       0.380   1.202  18.717  0.00  0.00    +0.000 HD
BRANCH   9  11
ATOM     11  C   UNL     1       2.068   5.256  19.089  0.00  0.00    +0.000 A 
ATOM     12  C   UNL     1       2.293   6.016  17.925  0.00  0.00    +0.000 A 
ATOM     13  C   UNL     1       2.324   7.415  17.969  0.00  0.00    +0.000 A 
ATOM     14  C   UNL     1       2.120   8.077  19.176  0.00  0.00    +0.000 A 
ATOM     15  C   UNL     1       1.926   7.340  20.342  0.00  0.00    +0.000 A 
ATOM     16  C   UNL     1       1.925   5.945  20.296  0.00  0.00    +0.000 A 
ATOM     17  F   UNL     1       1.839   5.286  21.463  0.00  0.00    +0.000 F 
ENDBRANCH   9  11
ENDBRANCH   2   5
BRANCH   3  18
ATOM     18  C   UNL     1       6.473   4.316  18.353  0.00  0.00    +0.000 C 
BRANCH  18  19
ATOM     19  C   UNL     1       6.995   4.859  17.012  0.00  0.00    +0.000 C 
ATOM     20  C   UNL     1       7.383   6.323  17.138  0.00  0.00    +0.000 C 
ATOM     21  C   UNL     1       6.067   7.041  16.934  0.00  0.00    +0.000 C 
ATOM     22  O   UNL     1       5.279   6.225  16.062  0.00  0.00    +0.000 OA
ATOM     23  C   UNL     1       5.892   4.922  15.943  0.00  0.00    +0.000 C 
BRANCH  23  24
ATOM     24  C   UNL     1       6.400   4.679  14.529  0.00  0.00    +0.000 A 
ATOM     25  C   UNL     1       7.454   5.416  13.966  0.00  0.00    +0.000 A 
ATOM     26  C   UNL     1       7.872   5.180  12.653  0.00  0.00    +0.000 A 
ATOM     27  C   UNL     1       7.240   4.209  11.879  0.00  0.00    +0.000 A 
ATOM     28  C   UNL     1       6.187   3.474  12.418  0.00  0.00    +0.000 A 
ATOM     29  C   UNL     1       5.766   3.711  13.728  0.00  0.00    +0.000 A 
ENDBRANCH  23  24
ENDBRANCH  18  19
ENDBRANCH   3  18
TORSDOF 5
ENDMDL
MODEL 2
REMARK VINA RESULT:      -9.1      2.169      3.833
REMARK  Name = 
REMARK  5 active torsions:
REMARK  status: ('A' for Active; 'I' for Inactive)
REMARK    1  A    between atoms: C_2  and  C_16
REMARK    2  A    between atoms: N_3  and  C_4
REMARK    3  A    between atoms: C_4  and  C_5
REMARK    4  A    between atoms: C_9  and  C_10
REMARK    5  A    between atoms: C_20  and  C_21
REMARK                            x       y       z     vdW  Elec       q    Type
REMARK                         _______ _______ _______ _____ _____    ______ ____
ROOT
ATOM      1  O   UNL     1       2.927   8.255  17.142  0.00  0.00    +0.000 OA
ATOM      2  C   UNL     1       3.249   7.286  17.817  0.00  0.00    +0.000 C 
ATOM      3  N   UNL     1       4.285   6.431  17.484  0.00  0.00    +0.000 N 
ATOM      4  H   UNL     1       4.377   5.585  18.031  0.00  0.00    +0.000 HD
ENDROOT
BRANCH   2   5
ATOM      5  C   UNL     1       2.596   6.928  19.068  0.00  0.00    +0.000 A 
ATOM      6  C   UNL     1       2.061   7.835  19.968  0.00  0.00    +0.000 A 
ATOM      7  N   UNL     1       1.491   7.104  20.958  0.00  0.00    +0.000 N 
ATOM      8  N   UNL     1       1.638   5.786  20.800  0.00  0.00    +0.000 NA
ATOM      9  C   UNL     1       2.322   5.642  19.646  0.00  0.00    +0.000 A 
ATOM     10  H   UNL     1       0.982   7.435  21.772  0.00  0.00    +0.000 HD
BRANCH   9  11
ATOM     11  C   UNL     1       2.674   4.294  19.185  0.00  0.00    +0.000 A 
ATOM     12  C   UNL     1       3.692   3.574  19.840  0.00  0.00    +0.000 A 
ATOM     13  C   UNL     1       4.047   2.285  19.426  0.00  0.00    +0.000 A 
ATOM     14  C   UNL     1       3.382   1.689  18.358  0.00  0.00    +0.000 A 
ATOM     15  C   UNL     1       2.393   2.398  17.681  0.00  0.00    +0.000 A 
ATOM     16  C   UNL     1       2.064   3.695  18.080  0.00  0.00    +0.000 A 
ATOM     17  F   UNL     1       1.180   4.369  17.327  0.00  0.00    +0.000 F 
ENDBRANCH   9  11
ENDBRANCH   2   5
BRANCH   3  18
ATOM     18  C   UNL     1       5.001   6.505  16.229  0.00  0.00    +0.000 C 
BRANCH  18  19
ATOM     19  C   UNL     1       5.235   5.131  15.578  0.00  0.00    +0.000 C 
ATOM     20  C   UNL     1       5.781   4.140  16.593  0.00  0.00    +0.000 C 
ATOM     21  C   UNL     1       7.267   4.421  16.574  0.00  0.00    +0.000 C 
ATOM     22  O   UNL     1       7.589   4.871  15.255  0.00  0.00    +0.000 OA
ATOM     23  C   UNL     1       6.368   5.166  14.540  0.00  0.00    +0.000 C 
BRANCH  23  24
ATOM     24  C   UNL     1       6.162   4.203  13.379  0.00  0.00    +0.000 A 
ATOM     25  C   UNL     1       7.231   3.636  12.667  0.00  0.00    +0.000 A 
ATOM     26  C   UNL     1       6.999   2.777  11.590  0.00  0.00    +0.000 A 
ATOM     27  C   UNL     1       5.694   2.475  11.202  0.00  0.00    +0.000 A 
ATOM     28  C   UNL     1       4.622   3.035  11.891  0.00  0.00    +0.000 A 
ATOM     29  C   UNL     1       4.853   3.896  12.966  0.00  0.00    +0.000 A 
ENDBRANCH  23  24
ENDBRANCH  18  19
ENDBRANCH   3  18
TORSDOF 5
ENDMDL
MODEL 3
REMARK VINA RESULT:      -9.0      0.891      1.280
REMARK  Name = 
REMARK  5 active torsions:
REMARK  status: ('A' for Active; 'I' for Inactive)
REMARK    1  A    between atoms: C_2  and  C_16
REMARK    2  A    between atoms: N_3  and  C_4
REMARK    3  A    between atoms: C_4  and  C_5
REMARK    4  A    between atoms: C_9  and  C_10
REMARK    5  A    between atoms: C_20  and  C_21
REMARK                            x       y       z     vdW  Elec       q    Type
REMARK                         _______ _______ _______ _____ _____    ______ ____
ROOT
ATOM      1  O   UNL     1       5.194   2.746  20.298  0.00  0.00    +0.000 OA
ATOM      2  C   UNL     1       4.581   3.140  19.315  0.00  0.00    +0.000 C 
ATOM      3  N   UNL     1       5.168   3.836  18.273  0.00  0.00    +0.000 N 
ATOM      4  H   UNL     1       4.549   4.237  17.581  0.00  0.00    +0.000 HD
ENDROOT
BRANCH   2   5
ATOM      5  C   UNL     1       3.159   2.902  19.108  0.00  0.00    +0.000 A 
ATOM      6  C   UNL     1       2.604   1.676  18.778  0.00  0.00    +0.000 A 
ATOM      7  N   UNL     1       1.260   1.860  18.744  0.00  0.00    +0.000 N 
ATOM      8  N   UNL     1       0.887   3.118  18.993  0.00  0.00    +0.000 NA
ATOM      9  C   UNL     1       2.036   3.790  19.216  0.00  0.00    +0.000 A 
ATOM     10  H   UNL     1       0.535   1.173  18.561  0.00  0.00    +0.000 HD
BRANCH   9  11
ATOM     11  C   UNL     1       1.980   5.228  19.503  0.00  0.00    +0.000 A 
ATOM     12  C   UNL     1       1.441   5.679  20.723  0.00  0.00    +0.000 A 
ATOM     13  C   UNL     1       1.380   7.044  21.027  0.00  0.00    +0.000 A 
ATOM     14  C   UNL     1       1.866   7.981  20.120  0.00  0.00    +0.000 A 
ATOM     15  C   UNL     1       2.375   7.554  18.896  0.00  0.00    +0.000 A 
ATOM     16  C   UNL     1       2.408   6.193  18.586  0.00  0.00    +0.000 A 
ATOM     17  F   UNL     1       2.811   5.847  17.354  0.00  0.00    +0.000 F 
ENDBRANCH   9  11
ENDBRANCH   2   5
BRANCH   3  18
ATOM     18  C   UNL     1       6.538   4.302  18.305  0.00  0.00    +0.000 C 
BRANCH  18  19
ATOM     19  C   UNL     1       7.019   4.874  16.961  0.00  0.00    +0.000 C 
ATOM     20  C   UNL     1       7.330   6.356  17.086  0.00  0.00    +0.000 C 
ATOM     21  C   UNL     1       5.976   7.003  16.895  0.00  0.00    +0.000 C 
ATOM     22  O   UNL     1       5.225   6.148  16.028  0.00  0.00    +0.000 OA
ATOM     23  C   UNL     1       5.906   4.879  15.901  0.00  0.00    +0.000 C 
BRANCH  23  24
ATOM     24  C   UNL     1       6.413   4.666  14.482  0.00  0.00    +0.000 A 
ATOM     25  C   UNL     1       7.470   5.411  13.936  0.00  0.00    +0.000 A 
ATOM     26  C   UNL     1       7.888   5.204  12.618  0.00  0.00    +0.000 A 
ATOM     27  C   UNL     1       7.253   4.251  11.823  0.00  0.00    +0.000 A 
ATOM     28  C   UNL     1       6.198   3.508  12.345  0.00  0.00    +0.000 A 
ATOM     29  C   UNL     1       5.777   3.718  13.661  0.00  0.00    +0.000 A 
ENDBRANCH  23  24
ENDBRANCH  18  19
ENDBRANCH   3  18
TORSDOF 5
ENDMDL
MODEL 4
REMARK VINA RESULT:      -8.6      3.922      7.509
REMARK  Name = 
REMARK  5 active torsions:
REMARK  status: ('A' for Active; 'I' for Inactive)
REMARK    1  A    between atoms: C_2  and  C_16
REMARK    2  A    between atoms: N_3  and  C_4
REMARK    3  A    between atoms: C_4  and  C_5
REMARK    4  A    between atoms: C_9  and  C_10
REMARK    5  A    between atoms: C_20  and  C_21
REMARK                            x       y       z     vdW  Elec       q    Type
REMARK                         _______ _______ _______ _____ _____    ______ ____
ROOT
ATOM      1  O   UNL     1       2.069   6.004  20.524  0.00  0.00    +0.000 OA
ATOM      2  C   UNL     1       2.301   6.200  19.339  0.00  0.00    +0.000 C 
ATOM      3  N   UNL     1       2.233   7.446  18.740  0.00  0.00    +0.000 N 
ATOM      4  H   UNL     1       2.305   7.477  17.731  0.00  0.00    +0.000 HD
ENDROOT
BRANCH   2   5
ATOM      5  C   UNL     1       2.702   5.148  18.415  0.00  0.00    +0.000 A 
ATOM      6  C   UNL     1       1.850   4.184  17.900  0.00  0.00    +0.000 A 
ATOM      7  N   UNL     1       2.588   3.442  17.036  0.00  0.00    +0.000 N 
ATOM      8  N   UNL     1       3.867   3.821  16.965  0.00  0.00    +0.000 NA
ATOM      9  C   UNL     1       3.973   4.867  17.810  0.00  0.00    +0.000 A 
ATOM     10  H   UNL     1       2.285   2.665  16.457  0.00  0.00    +0.000 HD
BRANCH   9  11
ATOM     11  C   UNL     1       5.278   5.515  17.987  0.00  0.00    +0.000 A 
ATOM     12  C   UNL     1       6.108   5.136  19.060  0.00  0.00    +0.000 A 
ATOM     13  C   UNL     1       7.360   5.731  19.252  0.00  0.00    +0.000 A 
ATOM     14  C   UNL     1       7.808   6.709  18.368  0.00  0.00    +0.000 A 
ATOM     15  C   UNL     1       6.988   7.117  17.320  0.00  0.00    +0.000 A 
ATOM     16  C   UNL     1       5.728   6.539  17.150  0.00  0.00    +0.000 A 
ATOM     17  F   UNL     1       4.939   7.044  16.188  0.00  0.00    +0.000 F 
ENDBRANCH   9  11
ENDBRANCH   2   5
BRANCH   3  18
ATOM     18  C   UNL     1       1.738   8.625  19.418  0.00  0.00    +0.000 C 
BRANCH  18  19
ATOM     19  C   UNL     1       0.941   9.567  18.500  0.00  0.00    +0.000 C 
ATOM     20  C   UNL     1       1.760  10.799  18.150  0.00  0.00    +0.000 C 
ATOM     21  C   UNL     1       1.515  11.714  19.330  0.00  0.00    +0.000 C 
ATOM     22  O   UNL     1       0.203  11.418  19.820  0.00  0.00    +0.000 OA
ATOM     23  C   UNL     1      -0.267  10.191  19.217  0.00  0.00    +0.000 C 
BRANCH  23  24
ATOM     24  C   UNL     1      -1.455  10.448  18.300  0.00  0.00    +0.000 A 
ATOM     25  C   UNL     1      -2.465  11.372  18.612  0.00  0.00    +0.000 A 
ATOM     26  C   UNL     1      -3.554  11.558  17.756  0.00  0.00    +0.000 A 
ATOM     27  C   UNL     1      -3.654  10.820  16.578  0.00  0.00    +0.000 A 
ATOM     28  C   UNL     1      -2.666   9.894  16.257  0.00  0.00    +0.000 A 
ATOM     29  C   UNL     1      -1.579   9.705  17.113  0.00  0.00    +0.000 A 
ENDBRANCH  23  24
ENDBRANCH  18  19
ENDBRANCH   3  18
TORSDOF 5
ENDMDL
MODEL 5
REMARK VINA RESULT:      -8.4      4.334      8.011
REMARK  Name = 
REMARK  5 active torsions:
REMARK  status: ('A' for Active; 'I' for Inactive)
REMARK    1  A    between atoms: C_2  and  C_16
REMARK    2  A    between atoms: N_3  and  C_4
REMARK    3  A    between atoms: C_4  and  C_5
REMARK    4  A    between atoms: C_9  and  C_10
REMARK    5  A    between atoms: C_20  and  C_21
REMARK                            x       y       z     vdW  Elec       q    Type
REMARK                         _______ _______ _______ _____ _____    ______ ____
ROOT
ATOM      1  O   UNL     1       2.144   6.778  19.995  0.00  0.00    +0.000 OA
ATOM      2  C   UNL     1       2.492   7.366  18.981  0.00  0.00    +0.000 C 
ATOM      3  N   UNL     1       2.109   8.660  18.675  0.00  0.00    +0.000 N 
ATOM      4  H   UNL     1       2.335   9.001  17.750  0.00  0.00    +0.000 HD
ENDROOT
BRANCH   2   5
ATOM      5  C   UNL     1       3.374   6.783  17.979  0.00  0.00    +0.000 A 
ATOM      6  C   UNL     1       4.200   7.510  17.136  0.00  0.00    +0.000 A 
ATOM      7  N   UNL     1       4.900   6.603  16.410  0.00  0.00    +0.000 N 
ATOM      8  N   UNL     1       4.578   5.337  16.683  0.00  0.00    +0.000 NA
ATOM      9  C   UNL     1       3.633   5.412  17.643  0.00  0.00    +0.000 A 
ATOM     10  H   UNL     1       5.617   6.776  15.712  0.00  0.00    +0.000 HD
BRANCH   9  11
ATOM     11  C   UNL     1       3.038   4.174  18.161  0.00  0.00    +0.000 A 
ATOM     12  C   UNL     1       3.846   3.236  18.832  0.00  0.00    +0.000 A 
ATOM     13  C   UNL     1       3.306   2.049  19.341  0.00  0.00    +0.000 A 
ATOM     14  C   UNL     1       1.947   1.785  19.198  0.00  0.00    +0.000 A 
ATOM     15  C   UNL     1       1.139   2.688  18.511  0.00  0.00    +0.000 A 
ATOM     16  C   UNL     1       1.689   3.857  17.980  0.00  0.00    +0.000 A 
ATOM     17  F   UNL     1       0.888   4.637  17.239  0.00  0.00    +0.000 F 
ENDBRANCH   9  11
ENDBRANCH   2   5
BRANCH   3  18
ATOM     18  C   UNL     1       1.138   9.403  19.450  0.00  0.00    +0.000 C 
BRANCH  18  19
ATOM     19  C   UNL     1       0.267  10.341  18.598  0.00  0.00    +0.000 C 
ATOM     20  C   UNL     1       0.642  11.793  18.841  0.00  0.00    +0.000 C 
ATOM     21  C   UNL     1      -0.156  12.147  20.076  0.00  0.00    +0.000 C 
ATOM     22  O   UNL     1      -1.345  11.351  20.045  0.00  0.00    +0.000 OA
ATOM     23  C   UNL     1      -1.206  10.324  19.038  0.00  0.00    +0.000 C 
BRANCH  23  24
ATOM     24  C   UNL     1      -2.187  10.537  17.894  0.00  0.00    +0.000 A 
ATOM     25  C   UNL     1      -3.309  11.373  18.006  0.00  0.00    +0.000 A 
ATOM     26  C   UNL     1      -4.202  11.521  16.940  0.00  0.00    +0.000 A 
ATOM     27  C   UNL     1      -3.991  10.830  15.748  0.00  0.00    +0.000 A 
ATOM     28  C   UNL     1      -2.888   9.989  15.623  0.00  0.00    +0.000 A 
ATOM     29  C   UNL     1      -1.998   9.839  16.688  0.00  0.00    +0.000 A 
ENDBRANCH  23  24
ENDBRANCH  18  19
ENDBRANCH   3  18
TORSDOF 5
ENDMDL
MODEL 6
REMARK VINA RESULT:      -8.4      4.339      8.001
REMARK  Name = 
REMARK  5 active torsions:
REMARK  status: ('A' for Active; 'I' for Inactive)
REMARK    1  A    between atoms: C_2  and  C_16
REMARK    2  A    between atoms: N_3  and  C_4
REMARK    3  A    between atoms: C_4  and  C_5
REMARK    4  A    between atoms: C_9  and  C_10
REMARK    5  A    between atoms: C_20  and  C_21
REMARK                            x       y       z     vdW  Elec       q    Type
REMARK                         _______ _______ _______ _____ _____    ______ ____
ROOT
ATOM      1  O   UNL     1       2.214   6.823  20.075  0.00  0.00    +0.000 OA
ATOM      2  C   UNL     1       2.502   7.364  19.017  0.00  0.00    +0.000 C 
ATOM      3  N   UNL     1       2.069   8.629  18.659  0.00  0.00    +0.000 N 
ATOM      4  H   UNL     1       2.246   8.925  17.709  0.00  0.00    +0.000 HD
ENDROOT
BRANCH   2   5
ATOM      5  C   UNL     1       3.359   6.753  18.010  0.00  0.00    +0.000 A 
ATOM      6  C   UNL     1       4.197   7.453  17.156  0.00  0.00    +0.000 A 
ATOM      7  N   UNL     1       4.866   6.523  16.428  0.00  0.00    +0.000 N 
ATOM      8  N   UNL     1       4.511   5.267  16.711  0.00  0.00    +0.000 NA
ATOM      9  C   UNL     1       3.577   5.373  17.679  0.00  0.00    +0.000 A 
ATOM     10  H   UNL     1       5.581   6.672  15.724  0.00  0.00    +0.000 HD
BRANCH   9  11
ATOM     11  C   UNL     1       2.953   4.154  18.209  0.00  0.00    +0.000 A 
ATOM     12  C   UNL     1       1.569   3.950  18.048  0.00  0.00    +0.000 A 
ATOM     13  C   UNL     1       0.947   2.796  18.538  0.00  0.00    +0.000 A 
ATOM     14  C   UNL     1       1.700   1.821  19.186  0.00  0.00    +0.000 A 
ATOM     15  C   UNL     1       3.064   2.021  19.380  0.00  0.00    +0.000 A 
ATOM     16  C   UNL     1       3.674   3.188  18.915  0.00  0.00    +0.000 A 
ATOM     17  F   UNL     1       4.968   3.375  19.220  0.00  0.00    +0.000 F 
ENDBRANCH   9  11
ENDBRANCH   2   5
BRANCH   3  18
ATOM     18  C   UNL     1       1.109   9.386  19.435  0.00  0.00    +0.000 C 
BRANCH  18  19
ATOM     19  C   UNL     1       0.244  10.329  18.582  0.00  0.00    +0.000 C 
ATOM     20  C   UNL     1       0.647  11.778  18.805  0.00  0.00    +0.000 C 
ATOM     21  C   UNL     1      -0.132  12.158  20.045  0.00  0.00    +0.000 C 
ATOM     22  O   UNL     1      -1.334  11.382  20.035  0.00  0.00    +0.000 OA
ATOM     23  C   UNL     1      -1.224  10.342  19.038  0.00  0.00    +0.000 C 
BRANCH  23  24
ATOM     24  C   UNL     1      -2.214  10.560  17.902  0.00  0.00    +0.000 A 
ATOM     25  C   UNL     1      -3.352  11.370  18.035  0.00  0.00    +0.000 A 
ATOM     26  C   UNL     1      -4.251  11.523  16.976  0.00  0.00    +0.000 A 
ATOM     27  C   UNL     1      -4.031  10.862  15.769  0.00  0.00    +0.000 A 
ATOM     28  C   UNL     1      -2.912  10.047  15.622  0.00  0.00    +0.000 A 
ATOM     29  C   UNL     1      -2.015   9.892  16.681  0.00  0.00    +0.000 A 
ENDBRANCH  23  24
ENDBRANCH  18  19
ENDBRANCH   3  18
TORSDOF 5
ENDMDL
MODEL 7
REMARK VINA RESULT:      -8.3      2.021      3.616
REMARK  Name = 
REMARK  5 active torsions:
REMARK  status: ('A' for Active; 'I' for Inactive)
REMARK    1  A    between atoms: C_2  and  C_16
REMARK    2  A    between atoms: N_3  and  C_4
REMARK    3  A    between atoms: C_4  and  C_5
REMARK    4  A    between atoms: C_9  and  C_10
REMARK    5  A    between atoms: C_20  and  C_21
REMARK                            x       y       z     vdW  Elec       q    Type
REMARK                         _______ _______ _______ _____ _____    ______ ____
ROOT
ATOM      1  O   UNL     1       2.805   8.353  17.258  0.00  0.00    +0.000 OA
ATOM      2  C   UNL     1       3.163   7.453  18.005  0.00  0.00    +0.000 C 
ATOM      3  N   UNL     1       4.290   6.679  17.788  0.00  0.00    +0.000 N 
ATOM      4  H   UNL     1       4.417   5.874  18.387  0.00  0.00    +0.000 HD
ENDROOT
BRANCH   2   5
ATOM      5  C   UNL     1       2.461   7.102  19.232  0.00  0.00    +0.000 A 
ATOM      6  C   UNL     1       1.978   8.016  20.154  0.00  0.00    +0.000 A 
ATOM      7  N   UNL     1       1.335   7.295  21.108  0.00  0.00    +0.000 N 
ATOM      8  N   UNL     1       1.385   5.977  20.904  0.00  0.00    +0.000 NA
ATOM      9  C   UNL     1       2.079   5.822  19.758  0.00  0.00    +0.000 A 
ATOM     10  H   UNL     1       0.836   7.636  21.924  0.00  0.00    +0.000 HD
BRANCH   9  11
ATOM     11  C   UNL     1       2.337   4.467  19.254  0.00  0.00    +0.000 A 
ATOM     12  C   UNL     1       1.984   4.132  17.933  0.00  0.00    +0.000 A 
ATOM     13  C   UNL     1       2.223   2.851  17.423  0.00  0.00    +0.000 A 
ATOM     14  C   UNL     1       2.829   1.886  18.223  0.00  0.00    +0.000 A 
ATOM     15  C   UNL     1       3.157   2.191  19.542  0.00  0.00    +0.000 A 
ATOM     16  C   UNL     1       2.890   3.463  20.053  0.00  0.00    +0.000 A 
ATOM     17  F   UNL     1       3.130   3.669  21.358  0.00  0.00    +0.000 F 
ENDBRANCH   9  11
ENDBRANCH   2   5
BRANCH   3  18
ATOM     18  C   UNL     1       5.080   6.753  16.578  0.00  0.00    +0.000 C 
BRANCH  18  19
ATOM     19  C   UNL     1       5.271   5.390  15.891  0.00  0.00    +0.000 C 
ATOM     20  C   UNL     1       5.671   4.328  16.901  0.00  0.00    +0.000 C 
ATOM     21  C   UNL     1       7.169   4.505  17.004  0.00  0.00    +0.000 C 
ATOM     22  O   UNL     1       7.620   4.979  15.731  0.00  0.00    +0.000 OA
ATOM     23  C   UNL     1       6.480   5.384  14.941  0.00  0.00    +0.000 C 
BRANCH  23  24
ATOM     24  C   UNL     1       6.299   4.480  13.730  0.00  0.00    +0.000 A 
ATOM     25  C   UNL     1       7.354   4.160  12.860  0.00  0.00    +0.000 A 
ATOM     26  C   UNL     1       7.141   3.348  11.742  0.00  0.00    +0.000 A 
ATOM     27  C   UNL     1       5.868   2.847  11.472  0.00  0.00    +0.000 A 
ATOM     28  C   UNL     1       4.808   3.161  12.319  0.00  0.00    +0.000 A 
ATOM     29  C   UNL     1       5.020   3.975  13.434  0.00  0.00    +0.000 A 
ENDBRANCH  23  24
ENDBRANCH  18  19
ENDBRANCH   3  18
TORSDOF 5
ENDMDL
MODEL 8
REMARK VINA RESULT:      -8.3      4.164      7.894
REMARK  Name = 
REMARK  5 active torsions:
REMARK  status: ('A' for Active; 'I' for Inactive)
REMARK    1  A    between atoms: C_2  and  C_16
REMARK    2  A    between atoms: N_3  and  C_4
REMARK    3  A    between atoms: C_4  and  C_5
REMARK    4  A    between atoms: C_9  and  C_10
REMARK    5  A    between atoms: C_20  and  C_21
REMARK                            x       y       z     vdW  Elec       q    Type
REMARK                         _______ _______ _______ _____ _____    ______ ____
ROOT
ATOM      1  O   UNL     1       2.815   6.687  19.942  0.00  0.00    +0.000 OA
ATOM      2  C   UNL     1       2.910   7.153  18.815  0.00  0.00    +0.000 C 
ATOM      3  N   UNL     1       2.301   8.331  18.417  0.00  0.00    +0.000 N 
ATOM      4  H   UNL     1       2.326   8.552  17.431  0.00  0.00    +0.000 HD
ENDROOT
BRANCH   2   5
ATOM      5  C   UNL     1       3.698   6.537  17.756  0.00  0.00    +0.000 A 
ATOM      6  C   UNL     1       4.547   7.223  16.902  0.00  0.00    +0.000 A 
ATOM      7  N   UNL     1       5.138   6.289  16.116  0.00  0.00    +0.000 N 
ATOM      8  N   UNL     1       4.721   5.044  16.361  0.00  0.00    +0.000 NA
ATOM      9  C   UNL     1       3.827   5.162  17.364  0.00  0.00    +0.000 A 
ATOM     10  H   UNL     1       5.838   6.427  15.393  0.00  0.00    +0.000 HD
BRANCH   9  11
ATOM     11  C   UNL     1       3.151   3.959  17.866  0.00  0.00    +0.000 A 
ATOM     12  C   UNL     1       3.914   2.860  18.305  0.00  0.00    +0.000 A 
ATOM     13  C   UNL     1       3.299   1.702  18.794  0.00  0.00    +0.000 A 
ATOM     14  C   UNL     1       1.910   1.627  18.862  0.00  0.00    +0.000 A 
ATOM     15  C   UNL     1       1.140   2.694  18.404  0.00  0.00    +0.000 A 
ATOM     16  C   UNL     1       1.760   3.835  17.891  0.00  0.00    +0.000 A 
ATOM     17  F   UNL     1       0.970   4.787  17.369  0.00  0.00    +0.000 F 
ENDBRANCH   9  11
ENDBRANCH   2   5
BRANCH   3  18
ATOM     18  C   UNL     1       1.367   9.059  19.250  0.00  0.00    +0.000 C 
BRANCH  18  19
ATOM     19  C   UNL     1       0.486  10.042  18.461  0.00  0.00    +0.000 C 
ATOM     20  C   UNL     1       0.957  11.473  18.668  0.00  0.00    +0.000 C 
ATOM     21  C   UNL     1       0.274  11.870  19.958  0.00  0.00    +0.000 C 
ATOM     22  O   UNL     1      -0.955  11.140  20.020  0.00  0.00    +0.000 OA
ATOM     23  C   UNL     1      -0.948  10.106  19.010  0.00  0.00    +0.000 C 
BRANCH  23  24
ATOM     24  C   UNL     1      -1.999  10.372  17.942  0.00  0.00    +0.000 A 
ATOM     25  C   UNL     1      -1.942   9.794  16.664  0.00  0.00    +0.000 A 
ATOM     26  C   UNL     1      -2.913  10.086  15.701  0.00  0.00    +0.000 A 
ATOM     27  C   UNL     1      -3.953  10.964  15.999  0.00  0.00    +0.000 A 
ATOM     28  C   UNL     1      -4.022  11.553  17.259  0.00  0.00    +0.000 A 
ATOM     29  C   UNL     1      -3.050  11.265  18.219  0.00  0.00    +0.000 A 
ENDBRANCH  23  24
ENDBRANCH  18  19
ENDBRANCH   3  18
TORSDOF 5
ENDMDL
MODEL 9
REMARK VINA RESULT:      -8.3      3.861      7.460
REMARK  Name = 
REMARK  5 active torsions:
REMARK  status: ('A' for Active; 'I' for Inactive)
REMARK    1  A    between atoms: C_2  and  C_16
REMARK    2  A    between atoms: N_3  and  C_4
REMARK    3  A    between atoms: C_4  and  C_5
REMARK    4  A    between atoms: C_9  and  C_10
REMARK    5  A    between atoms: C_20  and  C_21
REMARK                            x       y       z     vdW  Elec       q    Type
REMARK                         _______ _______ _______ _____ _____    ______ ____
ROOT
ATOM      1  O   UNL     1       1.891   6.076  20.501  0.00  0.00    +0.000 OA
ATOM      2  C   UNL     1       2.191   6.266  19.330  0.00  0.00    +0.000 C 
ATOM      3  N   UNL     1       2.228   7.517  18.740  0.00  0.00    +0.000 N 
ATOM      4  H   UNL     1       2.350   7.550  17.737  0.00  0.00    +0.000 HD
ENDROOT
BRANCH   2   5
ATOM      5  C   UNL     1       2.572   5.197  18.416  0.00  0.00    +0.000 A 
ATOM      6  C   UNL     1       1.703   4.239  17.918  0.00  0.00    +0.000 A 
ATOM      7  N   UNL     1       2.426   3.477  17.058  0.00  0.00    +0.000 N 
ATOM      8  N   UNL     1       3.709   3.836  16.976  0.00  0.00    +0.000 NA
ATOM      9  C   UNL     1       3.835   4.891  17.807  0.00  0.00    +0.000 A 
ATOM     10  H   UNL     1       2.109   2.698  16.490  0.00  0.00    +0.000 HD
BRANCH   9  11
ATOM     11  C   UNL     1       5.151   5.522  17.970  0.00  0.00    +0.000 A 
ATOM     12  C   UNL     1       5.541   6.561  17.104  0.00  0.00    +0.000 A 
ATOM     13  C   UNL     1       6.786   7.185  17.238  0.00  0.00    +0.000 A 
ATOM     14  C   UNL     1       7.659   6.788  18.247  0.00  0.00    +0.000 A 
ATOM     15  C   UNL     1       7.301   5.742  19.093  0.00  0.00    +0.000 A 
ATOM     16  C   UNL     1       6.069   5.104  18.937  0.00  0.00    +0.000 A 
ATOM     17  F   UNL     1       5.821   4.035  19.711  0.00  0.00    +0.000 F 
ENDBRANCH   9  11
ENDBRANCH   2   5
BRANCH   3  18
ATOM     18  C   UNL     1       1.773   8.719  19.406  0.00  0.00    +0.000 C 
BRANCH  18  19
ATOM     19  C   UNL     1       0.939   9.640  18.498  0.00  0.00    +0.000 C 
ATOM     20  C   UNL     1       1.702  10.914  18.177  0.00  0.00    +0.000 C 
ATOM     21  C   UNL     1       1.406  11.796  19.370  0.00  0.00    +0.000 C 
ATOM     22  O   UNL     1       0.107  11.430  19.845  0.00  0.00    +0.000 OA
ATOM     23  C   UNL     1      -0.301  10.194  19.217  0.00  0.00    +0.000 C 
BRANCH  23  24
ATOM     24  C   UNL     1      -1.494  10.412  18.295  0.00  0.00    +0.000 A 
ATOM     25  C   UNL     1      -1.629   9.752  17.064  0.00  0.00    +0.000 A 
ATOM     26  C   UNL     1      -2.726  10.000  16.234  0.00  0.00    +0.000 A 
ATOM     27  C   UNL     1      -3.703  10.917  16.619  0.00  0.00    +0.000 A 
ATOM     28  C   UNL     1      -3.581  11.587  17.833  0.00  0.00    +0.000 A 
ATOM     29  C   UNL     1      -2.483  11.342  18.661  0.00  0.00    +0.000 A 
ENDBRANCH  23  24
ENDBRANCH  18  19
ENDBRANCH   3  18
TORSDOF 5
ENDMDL
