MODEL 1
REMARK VINA RESULT:      -8.0      0.000      0.000
REMARK  Name = 
REMARK  7 active torsions:
REMARK  status: ('A' for Active; 'I' for Inactive)
REMARK    1  A    between atoms: C_1  and  C_2
REMARK    2  A    between atoms: N_4  and  C_5
REMARK    3  A    between atoms: C_8  and  N_9
REMARK    4  A    between atoms: N_9  and  C_10
REMARK    5  A    between atoms: C_12  and  C_13
REMARK    6  A    between atoms: C_17  and  C_18
REMARK    7  A    between atoms: C_20  and  C_21
REMARK                            x       y       z     vdW  Elec       q    Type
REMARK                         _______ _______ _______ _____ _____    ______ ____
ROOT
ATOM      1  C   UNL     1      -0.260  10.579  18.329  0.00  0.00    +0.000 A 
ATOM      2  C   UNL     1      -1.180  10.148  17.446  0.00  0.00    +0.000 A 
ATOM      3  C   UNL     1      -2.577  10.630  17.636  0.00  0.00    +0.000 A 
ATOM      4  C   UNL     1      -3.612  10.127  16.662  0.00  0.00    +0.000 C 
ATOM      5  N   UNL     1      -2.967  11.436  18.579  0.00  0.00    +0.000 NA
ATOM      6  C   UNL     1      -2.014  11.866  19.464  0.00  0.00    +0.000 A 
ATOM      7  C   UNL     1      -2.054  12.694  20.563  0.00  0.00    +0.000 A 
ATOM      8  C   UNL     1      -3.172  13.345  21.097  0.00  0.00    +0.000 A 
ATOM      9  C   UNL     1      -4.595  13.328  20.652  0.00  0.00    +0.000 C 
ATOM     10  C   UNL     1      -2.775  14.087  22.229  0.00  0.00    +0.000 A 
ATOM     11  C   UNL     1      -1.432  14.130  22.695  0.00  0.00    +0.000 A 
ATOM     12  C   UNL     1      -1.112  14.946  23.919  0.00  0.00    +0.000 C 
ATOM     13  N   UNL     1      -0.368  13.477  22.138  0.00  0.00    +0.000 NA
ATOM     14  C   UNL     1      -0.711  12.744  21.049  0.00  0.00    +0.000 A 
ATOM     15  N   UNL     1       0.120  11.998  20.324  0.00  0.00    +0.000 NA
ATOM     16  N   UNL     1      -0.676  11.453  19.362  0.00  0.00    +0.000 N 
ENDROOT
BRANCH   1  17
ATOM     17  N   UNL     1       1.091  10.203  18.289  0.00  0.00    +0.000 N 
ATOM     18  H   UNL     1       1.391  10.159  17.304  0.00  0.00    +0.000 HD
BRANCH  17  22
ATOM     19  C   UNL     1       2.241   6.557  20.135  0.00  0.00    +0.000 A 
ATOM     20  C   UNL     1       1.571   7.540  20.862  0.00  0.00    +0.000 A 
ATOM     21  C   UNL     1       1.216   8.753  20.270  0.00  0.00    +0.000 A 
ATOM     22  C   UNL     1       1.544   9.025  18.939  0.00  0.00    +0.000 A 
ATOM     23  C   UNL     1       2.201   8.035  18.200  0.00  0.00    +0.000 A 
ATOM     24  C   UNL     1       2.574   6.822  18.801  0.00  0.00    +0.000 A 
BRANCH  19  28
ATOM     25  C   UNL     1       2.453   3.019  21.427  0.00  0.00    +0.000 C 
ATOM     26  C   UNL     1       1.793   4.176  20.728  0.00  0.00    +0.000 C 
ATOM     27  O   UNL     1       0.660   4.060  20.267  0.00  0.00    +0.000 OA
ATOM     28  N   UNL     1       2.596   5.306  20.681  0.00  0.00    +0.000 N 
ATOM     29  H   UNL     1       3.558   5.200  20.981  0.00  0.00    +0.000 HD
ENDBRANCH  19  28
ENDBRANCH  17  22
ENDBRANCH   1  17
TORSDOF 3
ENDMDL
MODEL 2
REMARK VINA RESULT:      -8.0      1.792      4.255
REMARK  Name = 
REMARK  7 active torsions:
REMARK  status: ('A' for Active; 'I' for Inactive)
REMARK    1  A    between atoms: C_1  and  C_2
REMARK    2  A    between atoms: N_4  and  C_5
REMARK    3  A    between atoms: C_8  and  N_9
REMARK    4  A    between atoms: N_9  and  C_10
REMARK    5  A    between atoms: C_12  and  C_13
REMARK    6  A    between atoms: C_17  and  C_18
REMARK    7  A    between atoms: C_20  and  C_21
REMARK                            x       y       z     vdW  Elec       q    Type
REMARK                         _______ _______ _______ _____ _____    ______ ____
ROOT
ATOM      1  C   UNL     1       0.584  10.457  19.787  0.00  0.00    +0.000 A 
ATOM      2  C   UNL     1       0.414  10.991  21.011  0.00  0.00    +0.000 A 
ATOM      3  C   UNL     1      -0.913  11.602  21.304  0.00  0.00    +0.000 A 
ATOM      4  C   UNL     1      -1.095  12.222  22.666  0.00  0.00    +0.000 C 
ATOM      5  N   UNL     1      -1.914  11.648  20.474  0.00  0.00    +0.000 NA
ATOM      6  C   UNL     1      -1.721  11.096  19.236  0.00  0.00    +0.000 A 
ATOM      7  C   UNL     1      -2.524  10.969  18.125  0.00  0.00    +0.000 A 
ATOM      8  C   UNL     1      -3.840  11.420  17.971  0.00  0.00    +0.000 A 
ATOM      9  C   UNL     1      -4.722  12.149  18.929  0.00  0.00    +0.000 C 
ATOM     10  C   UNL     1      -4.291  11.092  16.676  0.00  0.00    +0.000 A 
ATOM     11  C   UNL     1      -3.485  10.404  15.727  0.00  0.00    +0.000 A 
ATOM     12  C   UNL     1      -4.056  10.109  14.365  0.00  0.00    +0.000 C 
ATOM     13  N   UNL     1      -2.201   9.979  15.922  0.00  0.00    +0.000 NA
ATOM     14  C   UNL     1      -1.728  10.283  17.157  0.00  0.00    +0.000 A 
ATOM     15  N   UNL     1      -0.507  10.003  17.609  0.00  0.00    +0.000 NA
ATOM     16  N   UNL     1      -0.498  10.508  18.874  0.00  0.00    +0.000 N 
ENDROOT
BRANCH   1  17
ATOM     17  N   UNL     1       1.779   9.859  19.359  0.00  0.00    +0.000 N 
ATOM     18  H   UNL     1       2.032  10.251  18.440  0.00  0.00    +0.000 HD
BRANCH  17  22
ATOM     19  C   UNL     1       2.392   5.660  19.251  0.00  0.00    +0.000 A 
ATOM     20  C   UNL     1       2.629   6.440  18.120  0.00  0.00    +0.000 A 
ATOM     21  C   UNL     1       2.400   7.818  18.140  0.00  0.00    +0.000 A 
ATOM     22  C   UNL     1       1.906   8.447  19.285  0.00  0.00    +0.000 A 
ATOM     23  C   UNL     1       1.684   7.671  20.428  0.00  0.00    +0.000 A 
ATOM     24  C   UNL     1       1.896   6.283  20.403  0.00  0.00    +0.000 A 
BRANCH  19  28
ATOM     25  C   UNL     1       2.405   1.903  18.902  0.00  0.00    +0.000 C 
ATOM     26  C   UNL     1       1.926   3.297  18.599  0.00  0.00    +0.000 C 
ATOM     27  O   UNL     1       1.002   3.480  17.812  0.00  0.00    +0.000 OA
ATOM     28  N   UNL     1       2.634   4.270  19.288  0.00  0.00    +0.000 N 
ATOM     29  H   UNL     1       3.460   3.970  19.792  0.00  0.00    +0.000 HD
ENDBRANCH  19  28
ENDBRANCH  17  22
ENDBRANCH   1  17
TORSDOF 3
ENDMDL
MODEL 3
REMARK VINA RESULT:      -7.9      1.397      1.714
REMARK  Name = 
REMARK  7 active torsions:
REMARK  status: ('A' for Active; 'I' for Inactive)
REMARK    1  A    between atoms: C_1  and  C_2
REMARK    2  A    between atoms: N_4  and  C_5
REMARK    3  A    between atoms: C_8  and  N_9
REMARK    4  A    between atoms: N_9  and  C_10
REMARK    5  A    between atoms: C_12  and  C_13
REMARK    6  A    between atoms: C_17  and  C_18
REMARK    7  A    between atoms: C_20  and  C_21
REMARK                            x       y       z     vdW  Elec       q    Type
REMARK                         _______ _______ _______ _____ _____    ______ ____
ROOT
ATOM      1  C   UNL     1       0.367  10.186  19.211  0.00  0.00    +0.000 A 
ATOM      2  C   UNL     1      -0.370   9.823  18.145  0.00  0.00    +0.000 A 
ATOM      3  C   UNL     1      -1.722  10.435  18.018  0.00  0.00    +0.000 A 
ATOM      4  C   UNL     1      -2.558  10.009  16.837  0.00  0.00    +0.000 C 
ATOM      5  N   UNL     1      -2.233  11.296  18.848  0.00  0.00    +0.000 NA
ATOM      6  C   UNL     1      -1.465  11.655  19.924  0.00  0.00    +0.000 A 
ATOM      7  C   UNL     1      -1.669  12.506  20.985  0.00  0.00    +0.000 A 
ATOM      8  C   UNL     1      -2.811  13.270  21.256  0.00  0.00    +0.000 A 
ATOM      9  C   UNL     1      -4.095  13.375  20.504  0.00  0.00    +0.000 C 
ATOM     10  C   UNL     1      -2.607  13.997  22.447  0.00  0.00    +0.000 A 
ATOM     11  C   UNL     1      -1.403  13.926  23.201  0.00  0.00    +0.000 A 
ATOM     12  C   UNL     1      -1.287  14.735  24.466  0.00  0.00    +0.000 C 
ATOM     13  N   UNL     1      -0.309  13.165  22.897  0.00  0.00    +0.000 NA
ATOM     14  C   UNL     1      -0.470  12.443  21.759  0.00  0.00    +0.000 A 
ATOM     15  N   UNL     1       0.427  11.607  21.239  0.00  0.00    +0.000 NA
ATOM     16  N   UNL     1      -0.184  11.117  20.124  0.00  0.00    +0.000 N 
ENDROOT
BRANCH   1  17
ATOM     17  N   UNL     1       1.651   9.686  19.474  0.00  0.00    +0.000 N 
ATOM     18  H   UNL     1       2.338  10.255  18.958  0.00  0.00    +0.000 HD
BRANCH  17  22
ATOM     19  C   UNL     1       2.802   5.631  18.965  0.00  0.00    +0.000 A 
ATOM     20  C   UNL     1       3.026   6.564  17.953  0.00  0.00    +0.000 A 
ATOM     21  C   UNL     1       2.623   7.893  18.102  0.00  0.00    +0.000 A 
ATOM     22  C   UNL     1       1.964   8.318  19.258  0.00  0.00    +0.000 A 
ATOM     23  C   UNL     1       1.753   7.389  20.283  0.00  0.00    +0.000 A 
ATOM     24  C   UNL     1       2.141   6.049  20.127  0.00  0.00    +0.000 A 
BRANCH  19  28
ATOM     25  C   UNL     1       3.317   1.970  18.215  0.00  0.00    +0.000 C 
ATOM     26  C   UNL     1       2.688   3.323  18.025  0.00  0.00    +0.000 C 
ATOM     27  O   UNL     1       1.807   3.486  17.186  0.00  0.00    +0.000 OA
ATOM     28  N   UNL     1       3.216   4.285  18.873  0.00  0.00    +0.000 N 
ATOM     29  H   UNL     1       4.035   4.027  19.410  0.00  0.00    +0.000 HD
ENDBRANCH  19  28
ENDBRANCH  17  22
ENDBRANCH   1  17
TORSDOF 3
ENDMDL
MODEL 4
REMARK VINA RESULT:      -7.8      0.457      1.028
REMARK  Name = 
REMARK  7 active torsions:
REMARK  status: ('A' for Active; 'I' for Inactive)
REMARK    1  A    between atoms: C_1  and  C_2
REMARK    2  A    between atoms: N_4  and  C_5
REMARK    3  A    between atoms: C_8  and  N_9
REMARK    4  A    between atoms: N_9  and  C_10
REMARK    5  A    between atoms: C_12  and  C_13
REMARK    6  A    between atoms: C_17  and  C_18
REMARK    7  A    between atoms: C_20  and  C_21
REMARK                            x       y       z     vdW  Elec       q    Type
REMARK                         _______ _______ _______ _____ _____    ______ ____
ROOT
ATOM      1  C   UNL     1      -0.352  10.882  18.754  0.00  0.00    +0.000 A 
ATOM      2  C   UNL     1      -1.218  10.545  17.781  0.00  0.00    +0.000 A 
ATOM      3  C   UNL     1      -2.606  11.075  17.896  0.00  0.00    +0.000 A 
ATOM      4  C   UNL     1      -3.582  10.675  16.818  0.00  0.00    +0.000 C 
ATOM      5  N   UNL     1      -3.034  11.842  18.854  0.00  0.00    +0.000 NA
ATOM      6  C   UNL     1      -2.136  12.177  19.832  0.00  0.00    +0.000 A 
ATOM      7  C   UNL     1      -2.228  12.941  20.973  0.00  0.00    +0.000 A 
ATOM      8  C   UNL     1      -3.357  13.608  21.462  0.00  0.00    +0.000 A 
ATOM      9  C   UNL     1      -4.742  13.680  20.912  0.00  0.00    +0.000 C 
ATOM     10  C   UNL     1      -3.019  14.266  22.663  0.00  0.00    +0.000 A 
ATOM     11  C   UNL     1      -1.715  14.222  23.230  0.00  0.00    +0.000 A 
ATOM     12  C   UNL     1      -1.458  14.951  24.522  0.00  0.00    +0.000 C 
ATOM     13  N   UNL     1      -0.638  13.557  22.714  0.00  0.00    +0.000 NA
ATOM     14  C   UNL     1      -0.926  12.904  21.560  0.00  0.00    +0.000 A 
ATOM     15  N   UNL     1      -0.071  12.165  20.855  0.00  0.00    +0.000 NA
ATOM     16  N   UNL     1      -0.812  11.713  19.805  0.00  0.00    +0.000 N 
ENDROOT
BRANCH   1  17
ATOM     17  N   UNL     1       0.982  10.451  18.791  0.00  0.00    +0.000 N 
ATOM     18  H   UNL     1       1.407  10.615  17.867  0.00  0.00    +0.000 HD
BRANCH  17  22
ATOM     19  C   UNL     1       2.183   6.605  20.130  0.00  0.00    +0.000 A 
ATOM     20  C   UNL     1       2.476   7.028  18.834  0.00  0.00    +0.000 A 
ATOM     21  C   UNL     1       2.058   8.280  18.378  0.00  0.00    +0.000 A 
ATOM     22  C   UNL     1       1.315   9.132  19.199  0.00  0.00    +0.000 A 
ATOM     23  C   UNL     1       1.034   8.719  20.505  0.00  0.00    +0.000 A 
ATOM     24  C   UNL     1       1.438   7.453  20.959  0.00  0.00    +0.000 A 
BRANCH  19  28
ATOM     25  C   UNL     1       2.587   3.062  21.361  0.00  0.00    +0.000 C 
ATOM     26  C   UNL     1       1.857   4.198  20.698  0.00  0.00    +0.000 C 
ATOM     27  O   UNL     1       0.718   4.039  20.269  0.00  0.00    +0.000 OA
ATOM     28  N   UNL     1       2.608   5.363  20.646  0.00  0.00    +0.000 N 
ATOM     29  H   UNL     1       3.582   5.295  20.916  0.00  0.00    +0.000 HD
ENDBRANCH  19  28
ENDBRANCH  17  22
ENDBRANCH   1  17
TORSDOF 3
ENDMDL
MODEL 5
REMARK VINA RESULT:      -7.8      5.294     10.625
REMARK  Name = 
REMARK  7 active torsions:
REMARK  status: ('A' for Active; 'I' for Inactive)
REMARK    1  A    between atoms: C_1  and  C_2
REMARK    2  A    between atoms: N_4  and  C_5
REMARK    3  A    between atoms: C_8  and  N_9
REMARK    4  A    between atoms: N_9  and  C_10
REMARK    5  A    between atoms: C_12  and  C_13
REMARK    6  A    between atoms: C_17  and  C_18
REMARK    7  A    between atoms: C_20  and  C_21
REMARK                            x       y       z     vdW  Elec       q    Type
REMARK                         _______ _______ _______ _____ _____    ______ ____
ROOT
ATOM      1  C   UNL     1       5.300   5.492  17.757  0.00  0.00    +0.000 A 
ATOM      2  C   UNL     1       6.136   6.399  18.296  0.00  0.00    +0.000 A 
ATOM      3  C   UNL     1       7.278   6.850  17.453  0.00  0.00    +0.000 A 
ATOM      4  C   UNL     1       8.229   7.847  18.067  0.00  0.00    +0.000 C 
ATOM      5  N   UNL     1       7.519   6.444  16.242  0.00  0.00    +0.000 NA
ATOM      6  C   UNL     1       6.654   5.524  15.711  0.00  0.00    +0.000 A 
ATOM      7  C   UNL     1       6.595   4.877  14.498  0.00  0.00    +0.000 A 
ATOM      8  C   UNL     1       7.483   5.000  13.423  0.00  0.00    +0.000 A 
ATOM      9  C   UNL     1       8.712   5.835  13.287  0.00  0.00    +0.000 C 
ATOM     10  C   UNL     1       7.060   4.156  12.376  0.00  0.00    +0.000 A 
ATOM     11  C   UNL     1       5.900   3.338  12.462  0.00  0.00    +0.000 A 
ATOM     12  C   UNL     1       5.538   2.463  11.291  0.00  0.00    +0.000 C 
ATOM     13  N   UNL     1       5.058   3.250  13.534  0.00  0.00    +0.000 NA
ATOM     14  C   UNL     1       5.435   4.045  14.567  0.00  0.00    +0.000 A 
ATOM     15  N   UNL     1       4.809   4.144  15.738  0.00  0.00    +0.000 NA
ATOM     16  N   UNL     1       5.558   5.038  16.441  0.00  0.00    +0.000 N 
ENDROOT
BRANCH   1  17
ATOM     17  N   UNL     1       4.189   4.962  18.431  0.00  0.00    +0.000 N 
ATOM     18  H   UNL     1       3.703   4.308  17.801  0.00  0.00    +0.000 HD
BRANCH  17  22
ATOM     19  C   UNL     1       1.471   7.631  20.304  0.00  0.00    +0.000 A 
ATOM     20  C   UNL     1       1.724   6.375  20.854  0.00  0.00    +0.000 A 
ATOM     21  C   UNL     1       2.594   5.481  20.227  0.00  0.00    +0.000 A 
ATOM     22  C   UNL     1       3.216   5.811  19.021  0.00  0.00    +0.000 A 
ATOM     23  C   UNL     1       2.979   7.077  18.475  0.00  0.00    +0.000 A 
ATOM     24  C   UNL     1       2.090   7.969  19.095  0.00  0.00    +0.000 A 
BRANCH  19  28
ATOM     25  C   UNL     1      -0.230  10.212  22.468  0.00  0.00    +0.000 C 
ATOM     26  C   UNL     1       0.913   9.331  22.043  0.00  0.00    +0.000 C 
ATOM     27  O   UNL     1       1.965   9.330  22.676  0.00  0.00    +0.000 OA
ATOM     28  N   UNL     1       0.623   8.580  20.914  0.00  0.00    +0.000 N 
ATOM     29  H   UNL     1      -0.238   8.796  20.425  0.00  0.00    +0.000 HD
ENDBRANCH  19  28
ENDBRANCH  17  22
ENDBRANCH   1  17
TORSDOF 3
ENDMDL
MODEL 6
REMARK VINA RESULT:      -7.8      1.418      1.726
REMARK  Name = 
REMARK  7 active torsions:
REMARK  status: ('A' for Active; 'I' for Inactive)
REMARK    1  A    between atoms: C_1  and  C_2
REMARK    2  A    between atoms: N_4  and  C_5
REMARK    3  A    between atoms: C_8  and  N_9
REMARK    4  A    between atoms: N_9  and  C_10
REMARK    5  A    between atoms: C_12  and  C_13
REMARK    6  A    between atoms: C_17  and  C_18
REMARK    7  A    between atoms: C_20  and  C_21
REMARK                            x       y       z     vdW  Elec       q    Type
REMARK                         _______ _______ _______ _____ _____    ______ ____
ROOT
ATOM      1  C   UNL     1       0.305  10.060  18.827  0.00  0.00    +0.000 A 
ATOM      2  C   UNL     1      -0.449   9.689  17.776  0.00  0.00    +0.000 A 
ATOM      3  C   UNL     1      -1.820  10.265  17.690  0.00  0.00    +0.000 A 
ATOM      4  C   UNL     1      -2.674   9.828  16.526  0.00  0.00    +0.000 C 
ATOM      5  N   UNL     1      -2.334  11.101  18.543  0.00  0.00    +0.000 NA
ATOM      6  C   UNL     1      -1.548  11.470  19.603  0.00  0.00    +0.000 A 
ATOM      7  C   UNL     1      -1.748  12.304  20.679  0.00  0.00    +0.000 A 
ATOM      8  C   UNL     1      -2.903  13.032  20.987  0.00  0.00    +0.000 A 
ATOM      9  C   UNL     1      -4.208  13.110  20.269  0.00  0.00    +0.000 C 
ATOM     10  C   UNL     1      -2.689  13.752  22.180  0.00  0.00    +0.000 A 
ATOM     11  C   UNL     1      -1.465  13.706  22.904  0.00  0.00    +0.000 A 
ATOM     12  C   UNL     1      -1.339  14.505  24.174  0.00  0.00    +0.000 C 
ATOM     13  N   UNL     1      -0.359  12.979  22.563  0.00  0.00    +0.000 NA
ATOM     14  C   UNL     1      -0.529  12.266  21.422  0.00  0.00    +0.000 A 
ATOM     15  N   UNL     1       0.377  11.461  20.869  0.00  0.00    +0.000 NA
ATOM     16  N   UNL     1      -0.248  10.966  19.765  0.00  0.00    +0.000 N 
ENDROOT
BRANCH   1  17
ATOM     17  N   UNL     1       1.608   9.593  19.052  0.00  0.00    +0.000 N 
ATOM     18  H   UNL     1       2.233  10.009  18.346  0.00  0.00    +0.000 HD
BRANCH  17  22
ATOM     19  C   UNL     1       2.662   5.493  19.378  0.00  0.00    +0.000 A 
ATOM     20  C   UNL     1       2.896   6.194  18.195  0.00  0.00    +0.000 A 
ATOM     21  C   UNL     1       2.525   7.534  18.071  0.00  0.00    +0.000 A 
ATOM     22  C   UNL     1       1.888   8.202  19.119  0.00  0.00    +0.000 A 
ATOM     23  C   UNL     1       1.666   7.509  20.314  0.00  0.00    +0.000 A 
ATOM     24  C   UNL     1       2.023   6.156  20.433  0.00  0.00    +0.000 A 
BRANCH  19  28
ATOM     25  C   UNL     1       4.397   2.159  19.701  0.00  0.00    +0.000 C 
ATOM     26  C   UNL     1       4.338   3.651  19.520  0.00  0.00    +0.000 C 
ATOM     27  O   UNL     1       5.369   4.298  19.360  0.00  0.00    +0.000 OA
ATOM     28  N   UNL     1       3.044   4.148  19.561  0.00  0.00    +0.000 N 
ATOM     29  H   UNL     1       2.312   3.505  19.842  0.00  0.00    +0.000 HD
ENDBRANCH  19  28
ENDBRANCH  17  22
ENDBRANCH   1  17
TORSDOF 3
ENDMDL
MODEL 7
REMARK VINA RESULT:      -7.8      0.982      1.447
REMARK  Name = 
REMARK  7 active torsions:
REMARK  status: ('A' for Active; 'I' for Inactive)
REMARK    1  A    between atoms: C_1  and  C_2
REMARK    2  A    between atoms: N_4  and  C_5
REMARK    3  A    between atoms: C_8  and  N_9
REMARK    4  A    between atoms: N_9  and  C_10
REMARK    5  A    between atoms: C_12  and  C_13
REMARK    6  A    between atoms: C_17  and  C_18
REMARK    7  A    between atoms: C_20  and  C_21
REMARK                            x       y       z     vdW  Elec       q    Type
REMARK                         _______ _______ _______ _____ _____    ______ ____
ROOT
ATOM      1  C   UNL     1      -0.644  10.920  18.607  0.00  0.00    +0.000 A 
ATOM      2  C   UNL     1      -1.192  10.504  17.450  0.00  0.00    +0.000 A 
ATOM      3  C   UNL     1      -2.617  10.864  17.209  0.00  0.00    +0.000 A 
ATOM      4  C   UNL     1      -3.238  10.377  15.924  0.00  0.00    +0.000 C 
ATOM      5  N   UNL     1      -3.361  11.554  18.023  0.00  0.00    +0.000 NA
ATOM      6  C   UNL     1      -2.783  11.970  19.193  0.00  0.00    +0.000 A 
ATOM      7  C   UNL     1      -3.247  12.692  20.269  0.00  0.00    +0.000 A 
ATOM      8  C   UNL     1      -4.534  13.210  20.454  0.00  0.00    +0.000 A 
ATOM      9  C   UNL     1      -5.736  13.130  19.573  0.00  0.00    +0.000 C 
ATOM     10  C   UNL     1      -4.589  13.875  21.696  0.00  0.00    +0.000 A 
ATOM     11  C   UNL     1      -3.472  13.973  22.572  0.00  0.00    +0.000 A 
ATOM     12  C   UNL     1      -3.636  14.698  23.882  0.00  0.00    +0.000 C 
ATOM     13  N   UNL     1      -2.229  13.451  22.348  0.00  0.00    +0.000 NA
ATOM     14  C   UNL     1      -2.138  12.796  21.164  0.00  0.00    +0.000 A 
ATOM     15  N   UNL     1      -1.053  12.179  20.701  0.00  0.00    +0.000 NA
ATOM     16  N   UNL     1      -1.448  11.666  19.503  0.00  0.00    +0.000 N 
ENDROOT
BRANCH   1  17
ATOM     17  N   UNL     1       0.681  10.647  18.981  0.00  0.00    +0.000 N 
ATOM     18  H   UNL     1       1.308  10.983  18.236  0.00  0.00    +0.000 HD
BRANCH  17  22
ATOM     19  C   UNL     1       2.095   6.827  20.176  0.00  0.00    +0.000 A 
ATOM     20  C   UNL     1       2.358   7.312  18.896  0.00  0.00    +0.000 A 
ATOM     21  C   UNL     1       1.871   8.554  18.486  0.00  0.00    +0.000 A 
ATOM     22  C   UNL     1       1.086   9.335  19.339  0.00  0.00    +0.000 A 
ATOM     23  C   UNL     1       0.834   8.860  20.631  0.00  0.00    +0.000 A 
ATOM     24  C   UNL     1       1.309   7.603  21.037  0.00  0.00    +0.000 A 
BRANCH  19  28
ATOM     25  C   UNL     1       2.684   3.281  21.321  0.00  0.00    +0.000 C 
ATOM     26  C   UNL     1       1.880   4.402  20.721  0.00  0.00    +0.000 C 
ATOM     27  O   UNL     1       0.724   4.211  20.354  0.00  0.00    +0.000 OA
ATOM     28  N   UNL     1       2.589   5.592  20.646  0.00  0.00    +0.000 N 
ATOM     29  H   UNL     1       3.579   5.553  20.859  0.00  0.00    +0.000 HD
ENDBRANCH  19  28
ENDBRANCH  17  22
ENDBRANCH   1  17
TORSDOF 3
ENDMDL
MODEL 8
REMARK VINA RESULT:      -7.8      1.412      3.532
REMARK  Name = 
REMARK  7 active torsions:
REMARK  status: ('A' for Active; 'I' for Inactive)
REMARK    1  A    between atoms: C_1  and  C_2
REMARK    2  A    between atoms: N_4  and  C_5
REMARK    3  A    between atoms: C_8  and  N_9
REMARK    4  A    between atoms: N_9  and  C_10
REMARK    5  A    between atoms: C_12  and  C_13
REMARK    6  A    between atoms: C_17  and  C_18
REMARK    7  A    between atoms: C_20  and  C_21
REMARK                            x       y       z     vdW  Elec       q    Type
REMARK                         _______ _______ _______ _____ _____    ______ ____
ROOT
ATOM      1  C   UNL     1       0.628  11.509  18.980  0.00  0.00    +0.000 A 
ATOM      2  C   UNL     1       1.347  12.344  19.755  0.00  0.00    +0.000 A 
ATOM      3  C   UNL     1       0.587  13.337  20.564  0.00  0.00    +0.000 A 
ATOM      4  C   UNL     1       1.394  14.288  21.412  0.00  0.00    +0.000 C 
ATOM      5  N   UNL     1      -0.708  13.449  20.586  0.00  0.00    +0.000 NA
ATOM      6  C   UNL     1      -1.420  12.587  19.795  0.00  0.00    +0.000 A 
ATOM      7  C   UNL     1      -2.766  12.418  19.559  0.00  0.00    +0.000 A 
ATOM      8  C   UNL     1      -3.824  13.153  20.106  0.00  0.00    +0.000 A 
ATOM      9  C   UNL     1      -3.804  14.296  21.065  0.00  0.00    +0.000 C 
ATOM     10  C   UNL     1      -5.041  12.658  19.594  0.00  0.00    +0.000 A 
ATOM     11  C   UNL     1      -5.112  11.576  18.674  0.00  0.00    +0.000 A 
ATOM     12  C   UNL     1      -6.461  11.128  18.178  0.00  0.00    +0.000 C 
ATOM     13  N   UNL     1      -4.048  10.884  18.167  0.00  0.00    +0.000 NA
ATOM     14  C   UNL     1      -2.856  11.336  18.631  0.00  0.00    +0.000 A 
ATOM     15  N   UNL     1      -1.660  10.857  18.291  0.00  0.00    +0.000 NA
ATOM     16  N   UNL     1      -0.783  11.627  18.993  0.00  0.00    +0.000 N 
ENDROOT
BRANCH   1  17
ATOM     17  N   UNL     1       1.200  10.531  18.153  0.00  0.00    +0.000 N 
ATOM     18  H   UNL     1       0.609  10.422  17.316  0.00  0.00    +0.000 HD
BRANCH  17  22
ATOM     19  C   UNL     1       2.313   6.759  19.751  0.00  0.00    +0.000 A 
ATOM     20  C   UNL     1       2.609   7.083  18.428  0.00  0.00    +0.000 A 
ATOM     21  C   UNL     1       2.219   8.310  17.887  0.00  0.00    +0.000 A 
ATOM     22  C   UNL     1       1.502   9.236  18.650  0.00  0.00    +0.000 A 
ATOM     23  C   UNL     1       1.219   8.922  19.983  0.00  0.00    +0.000 A 
ATOM     24  C   UNL     1       1.594   7.681  20.522  0.00  0.00    +0.000 A 
BRANCH  19  28
ATOM     25  C   UNL     1       2.619   3.328  21.291  0.00  0.00    +0.000 C 
ATOM     26  C   UNL     1       1.899   4.444  20.584  0.00  0.00    +0.000 C 
ATOM     27  O   UNL     1       0.717   4.322  20.273  0.00  0.00    +0.000 OA
ATOM     28  N   UNL     1       2.709   5.545  20.350  0.00  0.00    +0.000 N 
ATOM     29  H   UNL     1       3.699   5.437  20.540  0.00  0.00    +0.000 HD
ENDBRANCH  19  28
ENDBRANCH  17  22
ENDBRANCH   1  17
TORSDOF 3
ENDMDL
MODEL 9
REMARK VINA RESULT:      -7.8      2.053      4.361
REMARK  Name = 
REMARK  7 active torsions:
REMARK  status: ('A' for Active; 'I' for Inactive)
REMARK    1  A    between atoms: C_1  and  C_2
REMARK    2  A    between atoms: N_4  and  C_5
REMARK    3  A    between atoms: C_8  and  N_9
REMARK    4  A    between atoms: N_9  and  C_10
REMARK    5  A    between atoms: C_12  and  C_13
REMARK    6  A    between atoms: C_17  and  C_18
REMARK    7  A    between atoms: C_20  and  C_21
REMARK                            x       y       z     vdW  Elec       q    Type
REMARK                         _______ _______ _______ _____ _____    ______ ____
ROOT
ATOM      1  C   UNL     1       0.693  10.145  19.714  0.00  0.00    +0.000 A 
ATOM      2  C   UNL     1       0.549  10.608  20.970  0.00  0.00    +0.000 A 
ATOM      3  C   UNL     1      -0.762  11.226  21.316  0.00  0.00    +0.000 A 
ATOM      4  C   UNL     1      -0.914  11.768  22.715  0.00  0.00    +0.000 C 
ATOM      5  N   UNL     1      -1.771  11.340  20.504  0.00  0.00    +0.000 NA
ATOM      6  C   UNL     1      -1.605  10.859  19.233  0.00  0.00    +0.000 A 
ATOM      7  C   UNL     1      -2.424  10.813  18.127  0.00  0.00    +0.000 A 
ATOM      8  C   UNL     1      -3.732  11.298  18.018  0.00  0.00    +0.000 A 
ATOM      9  C   UNL     1      -4.588  11.986  19.028  0.00  0.00    +0.000 C 
ATOM     10  C   UNL     1      -4.205  11.056  16.712  0.00  0.00    +0.000 A 
ATOM     11  C   UNL     1      -3.425  10.410  15.713  0.00  0.00    +0.000 A 
ATOM     12  C   UNL     1      -4.019  10.206  14.344  0.00  0.00    +0.000 C 
ATOM     13  N   UNL     1      -2.148   9.949  15.866  0.00  0.00    +0.000 NA
ATOM     14  C   UNL     1      -1.654  10.170  17.110  0.00  0.00    +0.000 A 
ATOM     15  N   UNL     1      -0.433   9.841  17.529  0.00  0.00    +0.000 NA
ATOM     16  N   UNL     1      -0.399  10.270  18.821  0.00  0.00    +0.000 N 
ENDROOT
BRANCH   1  17
ATOM     17  N   UNL     1       1.871   9.550  19.237  0.00  0.00    +0.000 N 
ATOM     18  H   UNL     1       2.065   9.917  18.293  0.00  0.00    +0.000 HD
BRANCH  17  22
ATOM     19  C   UNL     1       2.536   5.357  19.228  0.00  0.00    +0.000 A 
ATOM     20  C   UNL     1       2.747   6.111  18.074  0.00  0.00    +0.000 A 
ATOM     21  C   UNL     1       2.501   7.485  18.061  0.00  0.00    +0.000 A 
ATOM     22  C   UNL     1       2.016   8.138  19.197  0.00  0.00    +0.000 A 
ATOM     23  C   UNL     1       1.820   7.389  20.363  0.00  0.00    +0.000 A 
ATOM     24  C   UNL     1       2.049   6.004  20.371  0.00  0.00    +0.000 A 
BRANCH  19  28
ATOM     25  C   UNL     1       3.978   1.874  19.377  0.00  0.00    +0.000 C 
ATOM     26  C   UNL     1       4.047   3.377  19.368  0.00  0.00    +0.000 C 
ATOM     27  O   UNL     1       5.131   3.950  19.423  0.00  0.00    +0.000 OA
ATOM     28  N   UNL     1       2.797   3.972  19.299  0.00  0.00    +0.000 N 
ATOM     29  H   UNL     1       1.991   3.366  19.402  0.00  0.00    +0.000 HD
ENDBRANCH  19  28
ENDBRANCH  17  22
ENDBRANCH   1  17
TORSDOF 3
ENDMDL
