MODEL 1
REMARK VINA RESULT:      -8.8      0.000      0.000
REMARK  Name = 
REMARK  4 active torsions:
REMARK  status: ('A' for Active; 'I' for Inactive)
REMARK    1  A    between atoms: N_3  and  C_4
REMARK    2  A    between atoms: C_4  and  C_5
REMARK    3  A    between atoms: C_9  and  C_10
REMARK    4  A    between atoms: N_17  and  C_18
REMARK                            x       y       z     vdW  Elec       q    Type
REMARK                         _______ _______ _______ _____ _____    ______ ____
ROOT
ATOM      1  O   UNL     1       1.297   5.670  20.598  0.00  0.00    +0.000 OA
ATOM      2  C   UNL     1       2.087   6.542  20.278  0.00  0.00    +0.000 C 
ATOM      3  N   UNL     1       2.002   7.853  20.671  0.00  0.00    +0.000 N 
ATOM      4  N   UNL     1       3.189   6.350  19.482  0.00  0.00    +0.000 N 
ATOM      5  H   UNL     1       2.470   8.527  20.085  0.00  0.00    +0.000 HD
ATOM      6  H   UNL     1       3.921   7.027  19.636  0.00  0.00    +0.000 HD
ENDROOT
BRANCH   4   7
ATOM      7  C   UNL     1       3.603   5.034  18.993  0.00  0.00    +0.000 C 
ATOM      8  C   UNL     1       4.956   4.646  19.612  0.00  0.00    +0.000 C 
ATOM      9  C   UNL     1       6.086   5.569  19.148  0.00  0.00    +0.000 C 
ATOM     10  C   UNL     1       6.125   5.729  17.643  0.00  0.00    +0.000 C 
ATOM     11  C   UNL     1       4.788   5.982  16.981  0.00  0.00    +0.000 C 
ATOM     12  C   UNL     1       3.744   4.979  17.465  0.00  0.00    +0.000 C 
ATOM     13  C   UNL     1       7.333   6.460  17.073  0.00  0.00    +0.000 C 
ATOM     14  C   UNL     1       7.164   5.004  16.857  0.00  0.00    +0.000 C 
ATOM     15  F   UNL     1       8.021   4.114  17.460  0.00  0.00    +0.000 F 
ATOM     16  F   UNL     1       6.904   4.529  15.591  0.00  0.00    +0.000 F 
ENDBRANCH   4   7
BRANCH   3  17
ATOM     17  C   UNL     1       0.897   8.342  21.464  0.00  0.00    +0.000 C 
BRANCH  17  18
ATOM     18  C   UNL     1       0.339   9.606  20.859  0.00  0.00    +0.000 A 
ATOM     19  C   UNL     1       0.863  10.849  21.231  0.00  0.00    +0.000 A 
ATOM     20  C   UNL     1       0.392  12.018  20.637  0.00  0.00    +0.000 A 
ATOM     21  C   UNL     1      -0.587  11.952  19.644  0.00  0.00    +0.000 A 
ATOM     22  C   UNL     1      -1.124  10.722  19.224  0.00  0.00    +0.000 A 
ATOM     23  C   UNL     1      -0.654   9.556  19.862  0.00  0.00    +0.000 A 
BRANCH  22  24
ATOM     24  C   UNL     1      -2.085  10.666  18.104  0.00  0.00    +0.000 A 
ATOM     25  C   UNL     1      -1.873   9.908  16.953  0.00  0.00    +0.000 A 
ATOM     26  C   UNL     1      -2.790   9.988  15.904  0.00  0.00    +0.000 A 
ATOM     27  C   UNL     1      -3.898  10.814  16.028  0.00  0.00    +0.000 A 
ATOM     28  C   UNL     1      -4.055  11.514  17.209  0.00  0.00    +0.000 A 
ATOM     29  N   UNL     1      -3.183  11.455  18.240  0.00  0.00    +0.000 NA
ENDBRANCH  22  24
ENDBRANCH  17  18
ENDBRANCH   3  17
TORSDOF 4
ENDMDL
MODEL 2
REMARK VINA RESULT:      -8.5      2.324      3.559
REMARK  Name = 
REMARK  4 active torsions:
REMARK  status: ('A' for Active; 'I' for Inactive)
REMARK    1  A    between atoms: N_3  and  C_4
REMARK    2  A    between atoms: C_4  and  C_5
REMARK    3  A    between atoms: C_9  and  C_10
REMARK    4  A    between atoms: N_17  and  C_18
REMARK                            x       y       z     vdW  Elec       q    Type
REMARK                         _______ _______ _______ _____ _____    ______ ____
ROOT
ATOM      1  O   UNL     1       1.322   5.506  20.641  0.00  0.00    +0.000 OA
ATOM      2  C   UNL     1       2.068   6.421  20.337  0.00  0.00    +0.000 C 
ATOM      3  N   UNL     1       1.967   7.701  20.818  0.00  0.00    +0.000 N 
ATOM      4  N   UNL     1       3.129   6.316  19.473  0.00  0.00    +0.000 N 
ATOM      5  H   UNL     1       2.382   8.425  20.253  0.00  0.00    +0.000 HD
ATOM      6  H   UNL     1       3.849   7.005  19.631  0.00  0.00    +0.000 HD
ENDROOT
BRANCH   4   7
ATOM      7  C   UNL     1       3.554   5.048  18.877  0.00  0.00    +0.000 C 
ATOM      8  C   UNL     1       4.862   4.573  19.532  0.00  0.00    +0.000 C 
ATOM      9  C   UNL     1       6.030   5.515  19.230  0.00  0.00    +0.000 C 
ATOM     10  C   UNL     1       6.162   5.824  17.754  0.00  0.00    +0.000 C 
ATOM     11  C   UNL     1       4.870   6.168  17.044  0.00  0.00    +0.000 C 
ATOM     12  C   UNL     1       3.785   5.143  17.362  0.00  0.00    +0.000 C 
ATOM     13  C   UNL     1       7.411   6.584  17.332  0.00  0.00    +0.000 C 
ATOM     14  C   UNL     1       7.235   5.161  16.960  0.00  0.00    +0.000 C 
ATOM     15  F   UNL     1       8.042   4.198  17.519  0.00  0.00    +0.000 F 
ATOM     16  F   UNL     1       7.045   4.820  15.640  0.00  0.00    +0.000 F 
ENDBRANCH   4   7
BRANCH   3  17
ATOM     17  C   UNL     1       0.894   8.103  21.699  0.00  0.00    +0.000 C 
BRANCH  17  18
ATOM     18  C   UNL     1       0.340   9.439  21.271  0.00  0.00    +0.000 A 
ATOM     19  C   UNL     1       0.347   9.797  19.918  0.00  0.00    +0.000 A 
ATOM     20  C   UNL     1      -0.212  11.004  19.505  0.00  0.00    +0.000 A 
ATOM     21  C   UNL     1      -0.811  11.851  20.439  0.00  0.00    +0.000 A 
ATOM     22  C   UNL     1      -0.861  11.520  21.805  0.00  0.00    +0.000 A 
ATOM     23  C   UNL     1      -0.261  10.308  22.202  0.00  0.00    +0.000 A 
BRANCH  22  24
ATOM     24  C   UNL     1      -1.586  12.382  22.760  0.00  0.00    +0.000 A 
ATOM     25  C   UNL     1      -2.860  12.083  23.245  0.00  0.00    +0.000 A 
ATOM     26  C   UNL     1      -3.509  13.001  24.071  0.00  0.00    +0.000 A 
ATOM     27  C   UNL     1      -2.874  14.189  24.402  0.00  0.00    +0.000 A 
ATOM     28  C   UNL     1      -1.602  14.403  23.906  0.00  0.00    +0.000 A 
ATOM     29  N   UNL     1      -0.951  13.532  23.104  0.00  0.00    +0.000 NA
ENDBRANCH  22  24
ENDBRANCH  17  18
ENDBRANCH   3  17
TORSDOF 4
ENDMDL
MODEL 3
REMARK VINA RESULT:      -8.3      2.756      3.290
REMARK  Name = 
REMARK  4 active torsions:
REMARK  status: ('A' for Active; 'I' for Inactive)
REMARK    1  A    between atoms: N_3  and  C_4
REMARK    2  A    between atoms: C_4  and  C_5
REMARK    3  A    between atoms: C_9  and  C_10
REMARK    4  A    between atoms: N_17  and  C_18
REMARK                            x       y       z     vdW  Elec       q    Type
REMARK                         _______ _______ _______ _____ _____    ______ ____
ROOT
ATOM      1  O   UNL     1       1.814   5.011  20.827  0.00  0.00    +0.000 OA
ATOM      2  C   UNL     1       2.113   6.008  20.191  0.00  0.00    +0.000 C 
ATOM      3  N   UNL     1       1.767   7.287  20.540  0.00  0.00    +0.000 N 
ATOM      4  N   UNL     1       2.849   6.008  19.033  0.00  0.00    +0.000 N 
ATOM      5  H   UNL     1       1.750   7.965  19.794  0.00  0.00    +0.000 HD
ATOM      6  H   UNL     1       3.333   6.877  18.861  0.00  0.00    +0.000 HD
ENDROOT
BRANCH   4   7
ATOM      7  C   UNL     1       3.451   4.800  18.466  0.00  0.00    +0.000 C 
ATOM      8  C   UNL     1       4.675   4.383  19.297  0.00  0.00    +0.000 C 
ATOM      9  C   UNL     1       5.804   5.414  19.214  0.00  0.00    +0.000 C 
ATOM     10  C   UNL     1       6.135   5.799  17.788  0.00  0.00    +0.000 C 
ATOM     11  C   UNL     1       4.945   6.089  16.900  0.00  0.00    +0.000 C 
ATOM     12  C   UNL     1       3.902   4.980  17.009  0.00  0.00    +0.000 C 
ATOM     13  C   UNL     1       7.376   6.660  17.592  0.00  0.00    +0.000 C 
ATOM     14  C   UNL     1       7.363   5.246  17.147  0.00  0.00    +0.000 C 
ATOM     15  F   UNL     1       8.143   4.314  17.790  0.00  0.00    +0.000 F 
ATOM     16  F   UNL     1       7.400   4.955  15.802  0.00  0.00    +0.000 F 
ENDBRANCH   4   7
BRANCH   3  17
ATOM     17  C   UNL     1       0.933   7.567  21.687  0.00  0.00    +0.000 C 
BRANCH  17  18
ATOM     18  C   UNL     1       0.501   9.012  21.679  0.00  0.00    +0.000 A 
ATOM     19  C   UNL     1      -0.500   9.446  22.555  0.00  0.00    +0.000 A 
ATOM     20  C   UNL     1      -0.868  10.789  22.595  0.00  0.00    +0.000 A 
ATOM     21  C   UNL     1      -0.218  11.716  21.778  0.00  0.00    +0.000 A 
ATOM     22  C   UNL     1       0.809  11.326  20.900  0.00  0.00    +0.000 A 
ATOM     23  C   UNL     1       1.142   9.957  20.855  0.00  0.00    +0.000 A 
BRANCH  22  24
ATOM     24  C   UNL     1       1.552  12.336  20.118  0.00  0.00    +0.000 A 
ATOM     25  C   UNL     1       1.537  12.386  18.724  0.00  0.00    +0.000 A 
ATOM     26  C   UNL     1       2.343  13.314  18.065  0.00  0.00    +0.000 A 
ATOM     27  C   UNL     1       3.138  14.176  18.807  0.00  0.00    +0.000 A 
ATOM     28  C   UNL     1       3.079  14.086  20.186  0.00  0.00    +0.000 A 
ATOM     29  N   UNL     1       2.308  13.196  20.848  0.00  0.00    +0.000 NA
ENDBRANCH  22  24
ENDBRANCH  17  18
ENDBRANCH   3  17
TORSDOF 4
ENDMDL
MODEL 4
REMARK VINA RESULT:      -8.2      2.677      3.094
REMARK  Name = 
REMARK  4 active torsions:
REMARK  status: ('A' for Active; 'I' for Inactive)
REMARK    1  A    between atoms: N_3  and  C_4
REMARK    2  A    between atoms: C_4  and  C_5
REMARK    3  A    between atoms: C_9  and  C_10
REMARK    4  A    between atoms: N_17  and  C_18
REMARK                            x       y       z     vdW  Elec       q    Type
REMARK                         _______ _______ _______ _____ _____    ______ ____
ROOT
ATOM      1  O   UNL     1       1.843   4.811  20.855  0.00  0.00    +0.000 OA
ATOM      2  C   UNL     1       2.347   5.846  20.454  0.00  0.00    +0.000 C 
ATOM      3  N   UNL     1       1.794   7.091  20.604  0.00  0.00    +0.000 N 
ATOM      4  N   UNL     1       3.550   5.931  19.797  0.00  0.00    +0.000 N 
ATOM      5  H   UNL     1       2.096   7.797  19.949  0.00  0.00    +0.000 HD
ATOM      6  H   UNL     1       3.998   6.830  19.890  0.00  0.00    +0.000 HD
ENDROOT
BRANCH   4   7
ATOM      7  C   UNL     1       4.426   4.779  19.580  0.00  0.00    +0.000 C 
ATOM      8  C   UNL     1       5.854   5.258  19.266  0.00  0.00    +0.000 C 
ATOM      9  C   UNL     1       5.927   6.014  17.937  0.00  0.00    +0.000 C 
ATOM     10  C   UNL     1       5.272   5.259  16.801  0.00  0.00    +0.000 C 
ATOM     11  C   UNL     1       3.919   4.658  17.115  0.00  0.00    +0.000 C 
ATOM     12  C   UNL     1       3.961   3.878  18.426  0.00  0.00    +0.000 C 
ATOM     13  C   UNL     1       5.472   5.833  15.405  0.00  0.00    +0.000 C 
ATOM     14  C   UNL     1       6.126   4.562  15.797  0.00  0.00    +0.000 C 
ATOM     15  F   UNL     1       7.492   4.506  15.941  0.00  0.00    +0.000 F 
ATOM     16  F   UNL     1       5.727   3.382  15.212  0.00  0.00    +0.000 F 
ENDBRANCH   4   7
BRANCH   3  17
ATOM     17  C   UNL     1       0.494   7.282  21.206  0.00  0.00    +0.000 C 
BRANCH  17  18
ATOM     18  C   UNL     1       0.230   8.751  21.425  0.00  0.00    +0.000 A 
ATOM     19  C   UNL     1      -0.426   9.176  22.586  0.00  0.00    +0.000 A 
ATOM     20  C   UNL     1      -0.626  10.534  22.825  0.00  0.00    +0.000 A 
ATOM     21  C   UNL     1      -0.145  11.480  21.919  0.00  0.00    +0.000 A 
ATOM     22  C   UNL     1       0.539  11.098  20.752  0.00  0.00    +0.000 A 
ATOM     23  C   UNL     1       0.702   9.717  20.517  0.00  0.00    +0.000 A 
BRANCH  22  24
ATOM     24  C   UNL     1       1.127  12.116  19.858  0.00  0.00    +0.000 A 
ATOM     25  C   UNL     1       1.891  11.798  18.735  0.00  0.00    +0.000 A 
ATOM     26  C   UNL     1       2.486  12.824  18.001  0.00  0.00    +0.000 A 
ATOM     27  C   UNL     1       2.300  14.142  18.395  0.00  0.00    +0.000 A 
ATOM     28  C   UNL     1       1.508  14.381  19.503  0.00  0.00    +0.000 A 
ATOM     29  N   UNL     1       0.921  13.406  20.231  0.00  0.00    +0.000 NA
ENDBRANCH  22  24
ENDBRANCH  17  18
ENDBRANCH   3  17
TORSDOF 4
ENDMDL
MODEL 5
REMARK VINA RESULT:      -8.1      5.874      8.755
REMARK  Name = 
REMARK  4 active torsions:
REMARK  status: ('A' for Active; 'I' for Inactive)
REMARK    1  A    between atoms: N_3  and  C_4
REMARK    2  A    between atoms: C_4  and  C_5
REMARK    3  A    between atoms: C_9  and  C_10
REMARK    4  A    between atoms: N_17  and  C_18
REMARK                            x       y       z     vdW  Elec       q    Type
REMARK                         _______ _______ _______ _____ _____    ______ ____
ROOT
ATOM      1  O   UNL     1       7.724   6.654  16.271  0.00  0.00    +0.000 OA
ATOM      2  C   UNL     1       7.293   7.024  17.351  0.00  0.00    +0.000 C 
ATOM      3  N   UNL     1       7.631   8.204  17.961  0.00  0.00    +0.000 N 
ATOM      4  N   UNL     1       6.397   6.324  18.120  0.00  0.00    +0.000 N 
ATOM      5  H   UNL     1       7.510   8.240  18.961  0.00  0.00    +0.000 HD
ATOM      6  H   UNL     1       5.857   6.907  18.742  0.00  0.00    +0.000 HD
ENDROOT
BRANCH   4   7
ATOM      7  C   UNL     1       5.772   5.074  17.684  0.00  0.00    +0.000 C 
ATOM      8  C   UNL     1       4.503   5.378  16.871  0.00  0.00    +0.000 C 
ATOM      9  C   UNL     1       3.417   6.037  17.726  0.00  0.00    +0.000 C 
ATOM     10  C   UNL     1       3.154   5.286  19.014  0.00  0.00    +0.000 C 
ATOM     11  C   UNL     1       4.387   4.853  19.777  0.00  0.00    +0.000 C 
ATOM     12  C   UNL     1       5.383   4.158  18.853  0.00  0.00    +0.000 C 
ATOM     13  C   UNL     1       1.955   5.747  19.830  0.00  0.00    +0.000 C 
ATOM     14  C   UNL     1       1.932   4.440  19.130  0.00  0.00    +0.000 C 
ATOM     15  F   UNL     1       1.094   4.249  18.058  0.00  0.00    +0.000 F 
ATOM     16  F   UNL     1       1.934   3.275  19.863  0.00  0.00    +0.000 F 
ENDBRANCH   4   7
BRANCH   3  17
ATOM     17  C   UNL     1       8.609   9.104  17.395  0.00  0.00    +0.000 C 
BRANCH  17  18
ATOM     18  C   UNL     1       8.882  10.244  18.345  0.00  0.00    +0.000 A 
ATOM     19  C   UNL     1       9.167   9.979  19.689  0.00  0.00    +0.000 A 
ATOM     20  C   UNL     1       9.475  11.019  20.563  0.00  0.00    +0.000 A 
ATOM     21  C   UNL     1       9.530  12.332  20.092  0.00  0.00    +0.000 A 
ATOM     22  C   UNL     1       9.273  12.641  18.744  0.00  0.00    +0.000 A 
ATOM     23  C   UNL     1       8.933  11.574  17.887  0.00  0.00    +0.000 A 
BRANCH  22  24
ATOM     24  C   UNL     1       9.434  14.022  18.246  0.00  0.00    +0.000 A 
ATOM     25  C   UNL     1      10.636  14.516  17.739  0.00  0.00    +0.000 A 
ATOM     26  C   UNL     1      10.723  15.861  17.378  0.00  0.00    +0.000 A 
ATOM     27  C   UNL     1       9.612  16.680  17.522  0.00  0.00    +0.000 A 
ATOM     28  C   UNL     1       8.448  16.112  18.006  0.00  0.00    +0.000 A 
ATOM     29  N   UNL     1       8.336  14.814  18.363  0.00  0.00    +0.000 NA
ENDBRANCH  22  24
ENDBRANCH  17  18
ENDBRANCH   3  17
TORSDOF 4
ENDMDL
MODEL 6
REMARK VINA RESULT:      -7.9      2.928      4.283
REMARK  Name = 
REMARK  4 active torsions:
REMARK  status: ('A' for Active; 'I' for Inactive)
REMARK    1  A    between atoms: N_3  and  C_4
REMARK    2  A    between atoms: C_4  and  C_5
REMARK    3  A    between atoms: C_9  and  C_10
REMARK    4  A    between atoms: N_17  and  C_18
REMARK                            x       y       z     vdW  Elec       q    Type
REMARK                         _______ _______ _______ _____ _____    ______ ____
ROOT
ATOM      1  O   UNL     1       2.429   8.873  17.230  0.00  0.00    +0.000 OA
ATOM      2  C   UNL     1       2.022   8.462  18.304  0.00  0.00    +0.000 C 
ATOM      3  N   UNL     1       1.279   9.200  19.189  0.00  0.00    +0.000 N 
ATOM      4  N   UNL     1       2.235   7.197  18.794  0.00  0.00    +0.000 N 
ATOM      5  H   UNL     1       1.306   8.904  20.152  0.00  0.00    +0.000 HD
ATOM      6  H   UNL     1       1.536   6.898  19.457  0.00  0.00    +0.000 HD
ENDROOT
BRANCH   4   7
ATOM      7  C   UNL     1       2.908   6.146  18.029  0.00  0.00    +0.000 C 
ATOM      8  C   UNL     1       1.939   4.979  17.776  0.00  0.00    +0.000 C 
ATOM      9  C   UNL     1       1.539   4.273  19.075  0.00  0.00    +0.000 C 
ATOM     10  C   UNL     1       2.734   3.902  19.927  0.00  0.00    +0.000 C 
ATOM     11  C   UNL     1       3.777   4.986  20.090  0.00  0.00    +0.000 C 
ATOM     12  C   UNL     1       4.151   5.589  18.739  0.00  0.00    +0.000 C 
ATOM     13  C   UNL     1       2.453   3.019  21.135  0.00  0.00    +0.000 C 
ATOM     14  C   UNL     1       3.193   2.484  19.967  0.00  0.00    +0.000 C 
ATOM     15  F   UNL     1       2.616   1.527  19.166  0.00  0.00    +0.000 F 
ATOM     16  F   UNL     1       4.526   2.165  20.092  0.00  0.00    +0.000 F 
ENDBRANCH   4   7
BRANCH   3  17
ATOM     17  C   UNL     1       0.965  10.590  18.948  0.00  0.00    +0.000 C 
BRANCH  17  18
ATOM     18  C   UNL     1      -0.498  10.745  18.614  0.00  0.00    +0.000 A 
ATOM     19  C   UNL     1      -1.065   9.978  17.589  0.00  0.00    +0.000 A 
ATOM     20  C   UNL     1      -2.426  10.073  17.309  0.00  0.00    +0.000 A 
ATOM     21  C   UNL     1      -3.238  10.914  18.071  0.00  0.00    +0.000 A 
ATOM     22  C   UNL     1      -2.715  11.684  19.124  0.00  0.00    +0.000 A 
ATOM     23  C   UNL     1      -1.329  11.595  19.368  0.00  0.00    +0.000 A 
BRANCH  22  24
ATOM     24  C   UNL     1      -3.608  12.491  19.981  0.00  0.00    +0.000 A 
ATOM     25  C   UNL     1      -3.236  12.965  21.239  0.00  0.00    +0.000 A 
ATOM     26  C   UNL     1      -4.176  13.639  22.020  0.00  0.00    +0.000 A 
ATOM     27  C   UNL     1      -5.459  13.831  21.529  0.00  0.00    +0.000 A 
ATOM     28  C   UNL     1      -5.746  13.356  20.262  0.00  0.00    +0.000 A 
ATOM     29  N   UNL     1      -4.855  12.701  19.486  0.00  0.00    +0.000 NA
ENDBRANCH  22  24
ENDBRANCH  17  18
ENDBRANCH   3  17
TORSDOF 4
ENDMDL
MODEL 7
REMARK VINA RESULT:      -7.9      5.845      8.433
REMARK  Name = 
REMARK  4 active torsions:
REMARK  status: ('A' for Active; 'I' for Inactive)
REMARK    1  A    between atoms: N_3  and  C_4
REMARK    2  A    between atoms: C_4  and  C_5
REMARK    3  A    between atoms: C_9  and  C_10
REMARK    4  A    between atoms: N_17  and  C_18
REMARK                            x       y       z     vdW  Elec       q    Type
REMARK                         _______ _______ _______ _____ _____    ______ ____
ROOT
ATOM      1  O   UNL     1       8.626   7.165  18.942  0.00  0.00    +0.000 OA
ATOM      2  C   UNL     1       8.099   7.917  18.138  0.00  0.00    +0.000 C 
ATOM      3  N   UNL     1       8.281   9.275  18.108  0.00  0.00    +0.000 N 
ATOM      4  N   UNL     1       7.249   7.524  17.135  0.00  0.00    +0.000 N 
ATOM      5  H   UNL     1       7.554   9.814  17.663  0.00  0.00    +0.000 HD
ATOM      6  H   UNL     1       7.225   8.161  16.353  0.00  0.00    +0.000 HD
ENDROOT
BRANCH   4   7
ATOM      7  C   UNL     1       6.943   6.121  16.849  0.00  0.00    +0.000 C 
ATOM      8  C   UNL     1       5.697   6.028  15.954  0.00  0.00    +0.000 C 
ATOM      9  C   UNL     1       4.438   6.526  16.669  0.00  0.00    +0.000 C 
ATOM     10  C   UNL     1       4.259   5.900  18.036  0.00  0.00    +0.000 C 
ATOM     11  C   UNL     1       5.501   5.854  18.897  0.00  0.00    +0.000 C 
ATOM     12  C   UNL     1       6.685   5.292  18.115  0.00  0.00    +0.000 C 
ATOM     13  C   UNL     1       2.936   6.175  18.736  0.00  0.00    +0.000 C 
ATOM     14  C   UNL     1       3.245   4.821  18.219  0.00  0.00    +0.000 C 
ATOM     15  F   UNL     1       2.544   4.315  17.151  0.00  0.00    +0.000 F 
ATOM     16  F   UNL     1       3.452   3.786  19.101  0.00  0.00    +0.000 F 
ENDBRANCH   4   7
BRANCH   3  17
ATOM     17  C   UNL     1       9.080   9.961  19.097  0.00  0.00    +0.000 C 
BRANCH  17  18
ATOM     18  C   UNL     1       9.543  11.294  18.563  0.00  0.00    +0.000 A 
ATOM     19  C   UNL     1      10.709  11.371  17.793  0.00  0.00    +0.000 A 
ATOM     20  C   UNL     1      11.115  12.587  17.248  0.00  0.00    +0.000 A 
ATOM     21  C   UNL     1      10.342  13.733  17.446  0.00  0.00    +0.000 A 
ATOM     22  C   UNL     1       9.152  13.696  18.193  0.00  0.00    +0.000 A 
ATOM     23  C   UNL     1       8.779  12.460  18.760  0.00  0.00    +0.000 A 
BRANCH  22  24
ATOM     24  C   UNL     1       8.298  14.896  18.306  0.00  0.00    +0.000 A 
ATOM     25  C   UNL     1       8.805  16.194  18.339  0.00  0.00    +0.000 A 
ATOM     26  C   UNL     1       7.932  17.264  18.542  0.00  0.00    +0.000 A 
ATOM     27  C   UNL     1       6.576  17.017  18.700  0.00  0.00    +0.000 A 
ATOM     28  C   UNL     1       6.144  15.706  18.629  0.00  0.00    +0.000 A 
ATOM     29  N   UNL     1       6.967  14.653  18.433  0.00  0.00    +0.000 NA
ENDBRANCH  22  24
ENDBRANCH  17  18
ENDBRANCH   3  17
TORSDOF 4
ENDMDL
MODEL 8
REMARK VINA RESULT:      -7.9      4.280      9.205
REMARK  Name = 
REMARK  4 active torsions:
REMARK  status: ('A' for Active; 'I' for Inactive)
REMARK    1  A    between atoms: N_3  and  C_4
REMARK    2  A    between atoms: C_4  and  C_5
REMARK    3  A    between atoms: C_9  and  C_10
REMARK    4  A    between atoms: N_17  and  C_18
REMARK                            x       y       z     vdW  Elec       q    Type
REMARK                         _______ _______ _______ _____ _____    ______ ____
ROOT
ATOM      1  O   UNL     1       1.353   5.530  20.595  0.00  0.00    +0.000 OA
ATOM      2  C   UNL     1       1.962   6.490  20.154  0.00  0.00    +0.000 C 
ATOM      3  N   UNL     1       2.807   6.447  19.075  0.00  0.00    +0.000 N 
ATOM      4  N   UNL     1       1.894   7.764  20.661  0.00  0.00    +0.000 N 
ATOM      5  H   UNL     1       3.504   7.174  19.024  0.00  0.00    +0.000 HD
ATOM      6  H   UNL     1       2.115   8.480  19.985  0.00  0.00    +0.000 HD
ENDROOT
BRANCH   4   7
ATOM      7  C   UNL     1       0.994   8.145  21.750  0.00  0.00    +0.000 C 
ATOM      8  C   UNL     1      -0.423   8.382  21.202  0.00  0.00    +0.000 C 
ATOM      9  C   UNL     1      -0.479   9.586  20.258  0.00  0.00    +0.000 C 
ATOM     10  C   UNL     1       0.162  10.822  20.853  0.00  0.00    +0.000 C 
ATOM     11  C   UNL     1       1.501  10.602  21.521  0.00  0.00    +0.000 C 
ATOM     12  C   UNL     1       1.442   9.418  22.482  0.00  0.00    +0.000 C 
ATOM     13  C   UNL     1      -0.025  12.119  20.078  0.00  0.00    +0.000 C 
ATOM     14  C   UNL     1      -0.706  11.915  21.378  0.00  0.00    +0.000 C 
ATOM     15  F   UNL     1      -2.072  11.778  21.427  0.00  0.00    +0.000 F 
ATOM     16  F   UNL     1      -0.330  12.667  22.469  0.00  0.00    +0.000 F 
ENDBRANCH   4   7
BRANCH   3  17
ATOM     17  C   UNL     1       3.110   5.211  18.392  0.00  0.00    +0.000 C 
BRANCH  17  18
ATOM     18  C   UNL     1       4.537   5.222  17.901  0.00  0.00    +0.000 A 
ATOM     19  C   UNL     1       5.591   5.286  18.821  0.00  0.00    +0.000 A 
ATOM     20  C   UNL     1       6.912   5.240  18.383  0.00  0.00    +0.000 A 
ATOM     21  C   UNL     1       7.192   5.101  17.022  0.00  0.00    +0.000 A 
ATOM     22  C   UNL     1       6.165   5.010  16.067  0.00  0.00    +0.000 A 
ATOM     23  C   UNL     1       4.836   5.090  16.532  0.00  0.00    +0.000 A 
BRANCH  22  24
ATOM     24  C   UNL     1       6.480   4.763  14.645  0.00  0.00    +0.000 A 
ATOM     25  C   UNL     1       5.810   3.820  13.866  0.00  0.00    +0.000 A 
ATOM     26  C   UNL     1       6.237   3.586  12.559  0.00  0.00    +0.000 A 
ATOM     27  C   UNL     1       7.315   4.301  12.055  0.00  0.00    +0.000 A 
ATOM     28  C   UNL     1       7.912   5.238  12.877  0.00  0.00    +0.000 A 
ATOM     29  N   UNL     1       7.519   5.483  14.146  0.00  0.00    +0.000 NA
ENDBRANCH  22  24
ENDBRANCH  17  18
ENDBRANCH   3  17
TORSDOF 4
ENDMDL
MODEL 9
REMARK VINA RESULT:      -7.9      2.840      4.382
REMARK  Name = 
REMARK  4 active torsions:
REMARK  status: ('A' for Active; 'I' for Inactive)
REMARK    1  A    between atoms: N_3  and  C_4
REMARK    2  A    between atoms: C_4  and  C_5
REMARK    3  A    between atoms: C_9  and  C_10
REMARK    4  A    between atoms: N_17  and  C_18
REMARK                            x       y       z     vdW  Elec       q    Type
REMARK                         _______ _______ _______ _____ _____    ______ ____
ROOT
ATOM      1  O   UNL     1       2.545   9.280  17.851  0.00  0.00    +0.000 OA
ATOM      2  C   UNL     1       1.874   8.755  18.724  0.00  0.00    +0.000 C 
ATOM      3  N   UNL     1       0.781   9.332  19.317  0.00  0.00    +0.000 N 
ATOM      4  N   UNL     1       2.099   7.505  19.244  0.00  0.00    +0.000 N 
ATOM      5  H   UNL     1       0.534   8.986  20.231  0.00  0.00    +0.000 HD
ATOM      6  H   UNL     1       1.274   7.075  19.633  0.00  0.00    +0.000 HD
ENDROOT
BRANCH   4   7
ATOM      7  C   UNL     1       3.134   6.602  18.738  0.00  0.00    +0.000 C 
ATOM      8  C   UNL     1       2.600   5.818  17.529  0.00  0.00    +0.000 C 
ATOM      9  C   UNL     1       1.461   4.870  17.916  0.00  0.00    +0.000 C 
ATOM     10  C   UNL     1       1.807   4.000  19.106  0.00  0.00    +0.000 C 
ATOM     11  C   UNL     1       2.459   4.718  20.267  0.00  0.00    +0.000 C 
ATOM     12  C   UNL     1       3.615   5.591  19.788  0.00  0.00    +0.000 C 
ATOM     13  C   UNL     1       0.822   2.888  19.438  0.00  0.00    +0.000 C 
ATOM     14  C   UNL     1       2.160   2.568  18.886  0.00  0.00    +0.000 C 
ATOM     15  F   UNL     1       2.277   2.050  17.619  0.00  0.00    +0.000 F 
ATOM     16  F   UNL     1       3.088   1.930  19.677  0.00  0.00    +0.000 F 
ENDBRANCH   4   7
BRANCH   3  17
ATOM     17  C   UNL     1       0.360  10.678  18.999  0.00  0.00    +0.000 C 
BRANCH  17  18
ATOM     18  C   UNL     1      -1.026  10.665  18.403  0.00  0.00    +0.000 A 
ATOM     19  C   UNL     1      -1.327   9.787  17.356  0.00  0.00    +0.000 A 
ATOM     20  C   UNL     1      -2.618   9.728  16.835  0.00  0.00    +0.000 A 
ATOM     21  C   UNL     1      -3.627  10.527  17.378  0.00  0.00    +0.000 A 
ATOM     22  C   UNL     1      -3.373  11.406  18.446  0.00  0.00    +0.000 A 
ATOM     23  C   UNL     1      -2.051  11.470  18.934  0.00  0.00    +0.000 A 
BRANCH  22  24
ATOM     24  C   UNL     1      -4.474  12.167  19.070  0.00  0.00    +0.000 A 
ATOM     25  C   UNL     1      -5.688  12.418  18.431  0.00  0.00    +0.000 A 
ATOM     26  C   UNL     1      -6.636  13.227  19.058  0.00  0.00    +0.000 A 
ATOM     27  C   UNL     1      -6.358  13.759  20.309  0.00  0.00    +0.000 A 
ATOM     28  C   UNL     1      -5.144  13.444  20.892  0.00  0.00    +0.000 A 
ATOM     29  N   UNL     1      -4.209  12.665  20.306  0.00  0.00    +0.000 NA
ENDBRANCH  22  24
ENDBRANCH  17  18
ENDBRANCH   3  17
TORSDOF 4
ENDMDL
