MODEL 1
REMARK VINA RESULT:      -8.7      0.000      0.000
REMARK  Name = 
REMARK  3 active torsions:
REMARK  status: ('A' for Active; 'I' for Inactive)
REMARK    1  A    between atoms: C_2  and  C_15
REMARK    2  A    between atoms: N_3  and  C_4
REMARK    3  A    between atoms: C_8  and  C_9
REMARK                            x       y       z     vdW  Elec       q    Type
REMARK                         _______ _______ _______ _____ _____    ______ ____
ROOT
ATOM      1  O   UNL     1       2.377   7.913  18.286  0.00  0.00    +0.000 OA
ATOM      2  C   UNL     1       1.973   7.802  19.438  0.00  0.00    +0.000 C 
ATOM      3  N   UNL     1       2.112   6.696  20.271  0.00  0.00    +0.000 N 
ATOM      4  H   UNL     1       1.636   6.780  21.166  0.00  0.00    +0.000 HD
ENDROOT
BRANCH   2   5
ATOM      5  C   UNL     1       1.364   8.982  20.203  0.00  0.00    +0.000 C 
ATOM      6  C   UNL     1       0.311   9.793  19.442  0.00  0.00    +0.000 C 
ATOM      7  C   UNL     1      -0.337  10.400  20.635  0.00  0.00    +0.000 A 
ATOM      8  C   UNL     1      -1.092  11.550  20.772  0.00  0.00    +0.000 A 
ATOM      9  C   UNL     1      -1.556  11.880  22.053  0.00  0.00    +0.000 A 
ATOM     10  C   UNL     1      -1.300  11.044  23.154  0.00  0.00    +0.000 A 
ATOM     11  C   UNL     1      -0.558   9.874  22.996  0.00  0.00    +0.000 A 
ATOM     12  C   UNL     1      -0.070   9.598  21.738  0.00  0.00    +0.000 A 
ATOM     13  O   UNL     1       0.767   8.548  21.451  0.00  0.00    +0.000 OA
ENDBRANCH   2   5
BRANCH   3  14
ATOM     14  C   UNL     1       2.801   5.491  20.031  0.00  0.00    +0.000 A 
ATOM     15  C   UNL     1       2.437   4.274  20.599  0.00  0.00    +0.000 A 
ATOM     16  C   UNL     1       3.151   3.114  20.292  0.00  0.00    +0.000 A 
ATOM     17  C   UNL     1       4.229   3.160  19.407  0.00  0.00    +0.000 A 
ATOM     18  C   UNL     1       4.610   4.369  18.813  0.00  0.00    +0.000 A 
ATOM     19  C   UNL     1       3.892   5.532  19.143  0.00  0.00    +0.000 A 
BRANCH  18  20
ATOM     20  C   UNL     1       5.723   4.417  17.864  0.00  0.00    +0.000 A 
ATOM     21  C   UNL     1       5.769   4.590  16.493  0.00  0.00    +0.000 A 
ATOM     22  C   UNL     1       7.133   4.549  16.154  0.00  0.00    +0.000 A 
ATOM     23  N   UNL     1       7.913   4.345  17.215  0.00  0.00    +0.000 NA
ATOM     24  N   UNL     1       7.039   4.264  18.234  0.00  0.00    +0.000 N 
ATOM     25  H   UNL     1       7.406   4.087  19.161  0.00  0.00    +0.000 HD
ENDBRANCH  18  20
ENDBRANCH   3  14
TORSDOF 3
ENDMDL
MODEL 2
REMARK VINA RESULT:      -8.6      3.636      8.423
REMARK  Name = 
REMARK  3 active torsions:
REMARK  status: ('A' for Active; 'I' for Inactive)
REMARK    1  A    between atoms: C_2  and  C_15
REMARK    2  A    between atoms: N_3  and  C_4
REMARK    3  A    between atoms: C_8  and  C_9
REMARK                            x       y       z     vdW  Elec       q    Type
REMARK                         _______ _______ _______ _____ _____    ______ ____
ROOT
ATOM      1  O   UNL     1       2.548   8.630  17.405  0.00  0.00    +0.000 OA
ATOM      2  C   UNL     1       2.186   8.268  18.519  0.00  0.00    +0.000 C 
ATOM      3  N   UNL     1       1.368   8.967  19.402  0.00  0.00    +0.000 N 
ATOM      4  H   UNL     1       1.250   8.522  20.309  0.00  0.00    +0.000 HD
ENDROOT
BRANCH   2   5
ATOM      5  C   UNL     1       2.475   6.860  19.050  0.00  0.00    +0.000 C 
ATOM      6  C   UNL     1       1.832   6.513  20.396  0.00  0.00    +0.000 C 
ATOM      7  C   UNL     1       1.903   5.035  20.248  0.00  0.00    +0.000 A 
ATOM      8  C   UNL     1       1.901   4.027  21.193  0.00  0.00    +0.000 A 
ATOM      9  C   UNL     1       2.004   2.704  20.739  0.00  0.00    +0.000 A 
ATOM     10  C   UNL     1       2.062   2.412  19.365  0.00  0.00    +0.000 A 
ATOM     11  C   UNL     1       2.038   3.438  18.423  0.00  0.00    +0.000 A 
ATOM     12  C   UNL     1       1.987   4.731  18.894  0.00  0.00    +0.000 A 
ATOM     13  O   UNL     1       2.071   5.845  18.096  0.00  0.00    +0.000 OA
ENDBRANCH   2   5
BRANCH   3  14
ATOM     14  C   UNL     1       0.709  10.197  19.209  0.00  0.00    +0.000 A 
ATOM     15  C   UNL     1       1.199  11.411  19.681  0.00  0.00    +0.000 A 
ATOM     16  C   UNL     1       0.505  12.595  19.427  0.00  0.00    +0.000 A 
ATOM     17  C   UNL     1      -0.681  12.576  18.691  0.00  0.00    +0.000 A 
ATOM     18  C   UNL     1      -1.191  11.370  18.196  0.00  0.00    +0.000 A 
ATOM     19  C   UNL     1      -0.490  10.183  18.472  0.00  0.00    +0.000 A 
BRANCH  18  20
ATOM     20  C   UNL     1      -2.421  11.349  17.402  0.00  0.00    +0.000 A 
ATOM     21  C   UNL     1      -3.757  11.404  17.756  0.00  0.00    +0.000 A 
ATOM     22  C   UNL     1      -4.469  11.352  16.544  0.00  0.00    +0.000 A 
ATOM     23  N   UNL     1      -3.663  11.250  15.487  0.00  0.00    +0.000 NA
ATOM     24  N   UNL     1      -2.433  11.246  16.031  0.00  0.00    +0.000 N 
ATOM     25  H   UNL     1      -1.639  11.154  15.408  0.00  0.00    +0.000 HD
ENDBRANCH  18  20
ENDBRANCH   3  14
TORSDOF 3
ENDMDL
MODEL 3
REMARK VINA RESULT:      -8.6      1.279      1.315
REMARK  Name = 
REMARK  3 active torsions:
REMARK  status: ('A' for Active; 'I' for Inactive)
REMARK    1  A    between atoms: C_2  and  C_15
REMARK    2  A    between atoms: N_3  and  C_4
REMARK    3  A    between atoms: C_8  and  C_9
REMARK                            x       y       z     vdW  Elec       q    Type
REMARK                         _______ _______ _______ _____ _____    ______ ____
ROOT
ATOM      1  O   UNL     1       2.577   8.412  17.567  0.00  0.00    +0.000 OA
ATOM      2  C   UNL     1       2.020   8.026  18.589  0.00  0.00    +0.000 C 
ATOM      3  N   UNL     1       1.874   6.711  19.018  0.00  0.00    +0.000 N 
ATOM      4  H   UNL     1       1.311   6.602  19.858  0.00  0.00    +0.000 HD
ENDROOT
BRANCH   2   5
ATOM      5  C   UNL     1       1.521   9.003  19.660  0.00  0.00    +0.000 C 
ATOM      6  C   UNL     1       0.453  10.001  19.201  0.00  0.00    +0.000 C 
ATOM      7  C   UNL     1      -0.080  10.319  20.553  0.00  0.00    +0.000 A 
ATOM      8  C   UNL     1      -0.771  11.421  21.020  0.00  0.00    +0.000 A 
ATOM      9  C   UNL     1      -1.126  11.444  22.376  0.00  0.00    +0.000 A 
ATOM     10  C   UNL     1      -0.829  10.361  23.221  0.00  0.00    +0.000 A 
ATOM     11  C   UNL     1      -0.153   9.245  22.730  0.00  0.00    +0.000 A 
ATOM     12  C   UNL     1       0.230   9.267  21.407  0.00  0.00    +0.000 A 
ATOM     13  O   UNL     1       0.997   8.296  20.812  0.00  0.00    +0.000 OA
ENDBRANCH   2   5
BRANCH   3  14
ATOM     14  C   UNL     1       2.382   5.532  18.438  0.00  0.00    +0.000 A 
ATOM     15  C   UNL     1       1.706   4.316  18.457  0.00  0.00    +0.000 A 
ATOM     16  C   UNL     1       2.260   3.195  17.836  0.00  0.00    +0.000 A 
ATOM     17  C   UNL     1       3.491   3.283  17.184  0.00  0.00    +0.000 A 
ATOM     18  C   UNL     1       4.187   4.497  17.141  0.00  0.00    +0.000 A 
ATOM     19  C   UNL     1       3.625   5.614  17.783  0.00  0.00    +0.000 A 
BRANCH  18  20
ATOM     20  C   UNL     1       5.466   4.599  16.435  0.00  0.00    +0.000 A 
ATOM     21  C   UNL     1       5.786   4.974  15.143  0.00  0.00    +0.000 A 
ATOM     22  C   UNL     1       7.187   4.878  15.060  0.00  0.00    +0.000 A 
ATOM     23  N   UNL     1       7.734   4.454  16.200  0.00  0.00    +0.000 NA
ATOM     24  N   UNL     1       6.674   4.289  17.012  0.00  0.00    +0.000 N 
ATOM     25  H   UNL     1       6.845   3.945  17.949  0.00  0.00    +0.000 HD
ENDBRANCH  18  20
ENDBRANCH   3  14
TORSDOF 3
ENDMDL
MODEL 4
REMARK VINA RESULT:      -8.3      2.685      8.663
REMARK  Name = 
REMARK  3 active torsions:
REMARK  status: ('A' for Active; 'I' for Inactive)
REMARK    1  A    between atoms: C_2  and  C_15
REMARK    2  A    between atoms: N_3  and  C_4
REMARK    3  A    between atoms: C_8  and  C_9
REMARK                            x       y       z     vdW  Elec       q    Type
REMARK                         _______ _______ _______ _____ _____    ______ ____
ROOT
ATOM      1  O   UNL     1       6.520   5.626  18.383  0.00  0.00    +0.000 OA
ATOM      2  C   UNL     1       5.852   4.916  17.640  0.00  0.00    +0.000 C 
ATOM      3  N   UNL     1       4.523   4.542  17.811  0.00  0.00    +0.000 N 
ATOM      4  H   UNL     1       4.178   3.883  17.117  0.00  0.00    +0.000 HD
ENDROOT
BRANCH   2   5
ATOM      5  C   UNL     1       6.374   4.449  16.276  0.00  0.00    +0.000 C 
ATOM      6  C   UNL     1       5.321   3.876  15.324  0.00  0.00    +0.000 C 
ATOM      7  C   UNL     1       6.095   4.071  14.069  0.00  0.00    +0.000 A 
ATOM      8  C   UNL     1       6.006   3.444  12.841  0.00  0.00    +0.000 A 
ATOM      9  C   UNL     1       6.906   3.836  11.839  0.00  0.00    +0.000 A 
ATOM     10  C   UNL     1       7.837   4.865  12.065  0.00  0.00    +0.000 A 
ATOM     11  C   UNL     1       7.899   5.505  13.302  0.00  0.00    +0.000 A 
ATOM     12  C   UNL     1       7.039   5.068  14.285  0.00  0.00    +0.000 A 
ATOM     13  O   UNL     1       7.059   5.522  15.581  0.00  0.00    +0.000 OA
ENDBRANCH   2   5
BRANCH   3  14
ATOM     14  C   UNL     1       3.617   4.937  18.814  0.00  0.00    +0.000 A 
ATOM     15  C   UNL     1       3.240   4.117  19.873  0.00  0.00    +0.000 A 
ATOM     16  C   UNL     1       2.357   4.588  20.847  0.00  0.00    +0.000 A 
ATOM     17  C   UNL     1       1.851   5.887  20.775  0.00  0.00    +0.000 A 
ATOM     18  C   UNL     1       2.223   6.737  19.726  0.00  0.00    +0.000 A 
ATOM     19  C   UNL     1       3.100   6.245  18.744  0.00  0.00    +0.000 A 
BRANCH  18  20
ATOM     20  C   UNL     1       1.715   8.109  19.661  0.00  0.00    +0.000 A 
ATOM     21  C   UNL     1       1.068   8.905  20.589  0.00  0.00    +0.000 A 
ATOM     22  C   UNL     1       0.839  10.130  19.938  0.00  0.00    +0.000 A 
ATOM     23  N   UNL     1       1.283  10.126  18.681  0.00  0.00    +0.000 NA
ATOM     24  N   UNL     1       1.803   8.894  18.537  0.00  0.00    +0.000 N 
ATOM     25  H   UNL     1       2.191   8.647  17.635  0.00  0.00    +0.000 HD
ENDBRANCH  18  20
ENDBRANCH   3  14
TORSDOF 3
ENDMDL
MODEL 5
REMARK VINA RESULT:      -8.3      3.673      8.616
REMARK  Name = 
REMARK  3 active torsions:
REMARK  status: ('A' for Active; 'I' for Inactive)
REMARK    1  A    between atoms: C_2  and  C_15
REMARK    2  A    between atoms: N_3  and  C_4
REMARK    3  A    between atoms: C_8  and  C_9
REMARK                            x       y       z     vdW  Elec       q    Type
REMARK                         _______ _______ _______ _____ _____    ______ ____
ROOT
ATOM      1  O   UNL     1       2.653   8.560  17.279  0.00  0.00    +0.000 OA
ATOM      2  C   UNL     1       2.258   8.221  18.389  0.00  0.00    +0.000 C 
ATOM      3  N   UNL     1       1.431   8.947  19.241  0.00  0.00    +0.000 N 
ATOM      4  H   UNL     1       1.285   8.518  20.152  0.00  0.00    +0.000 HD
ENDROOT
BRANCH   2   5
ATOM      5  C   UNL     1       2.513   6.817  18.948  0.00  0.00    +0.000 C 
ATOM      6  C   UNL     1       1.874   6.518  20.308  0.00  0.00    +0.000 C 
ATOM      7  C   UNL     1       1.901   5.036  20.191  0.00  0.00    +0.000 A 
ATOM      8  C   UNL     1       1.879   4.049  21.159  0.00  0.00    +0.000 A 
ATOM      9  C   UNL     1       1.939   2.714  20.733  0.00  0.00    +0.000 A 
ATOM     10  C   UNL     1       1.975   2.391  19.366  0.00  0.00    +0.000 A 
ATOM     11  C   UNL     1       1.972   3.397  18.401  0.00  0.00    +0.000 A 
ATOM     12  C   UNL     1       1.963   4.701  18.844  0.00  0.00    +0.000 A 
ATOM     13  O   UNL     1       2.070   5.794  18.020  0.00  0.00    +0.000 OA
ENDBRANCH   2   5
BRANCH   3  14
ATOM     14  C   UNL     1       0.797  10.183  19.014  0.00  0.00    +0.000 A 
ATOM     15  C   UNL     1       1.481  11.393  18.935  0.00  0.00    +0.000 A 
ATOM     16  C   UNL     1       0.787  12.577  18.679  0.00  0.00    +0.000 A 
ATOM     17  C   UNL     1      -0.595  12.561  18.492  0.00  0.00    +0.000 A 
ATOM     18  C   UNL     1      -1.307  11.357  18.556  0.00  0.00    +0.000 A 
ATOM     19  C   UNL     1      -0.598  10.174  18.829  0.00  0.00    +0.000 A 
BRANCH  18  20
ATOM     20  C   UNL     1      -2.754  11.332  18.334  0.00  0.00    +0.000 A 
ATOM     21  C   UNL     1      -3.574  10.455  17.647  0.00  0.00    +0.000 A 
ATOM     22  C   UNL     1      -4.877  10.961  17.799  0.00  0.00    +0.000 A 
ATOM     23  N   UNL     1      -4.902  12.090  18.509  0.00  0.00    +0.000 NA
ATOM     24  N   UNL     1      -3.609  12.294  18.816  0.00  0.00    +0.000 N 
ATOM     25  H   UNL     1      -3.374  13.123  19.349  0.00  0.00    +0.000 HD
ENDBRANCH  18  20
ENDBRANCH   3  14
TORSDOF 3
ENDMDL
MODEL 6
REMARK VINA RESULT:      -8.2      1.722      1.882
REMARK  Name = 
REMARK  3 active torsions:
REMARK  status: ('A' for Active; 'I' for Inactive)
REMARK    1  A    between atoms: C_2  and  C_15
REMARK    2  A    between atoms: N_3  and  C_4
REMARK    3  A    between atoms: C_8  and  C_9
REMARK                            x       y       z     vdW  Elec       q    Type
REMARK                         _______ _______ _______ _____ _____    ______ ____
ROOT
ATOM      1  O   UNL     1       1.368   5.716  20.996  0.00  0.00    +0.000 OA
ATOM      2  C   UNL     1       1.820   6.695  20.412  0.00  0.00    +0.000 C 
ATOM      3  N   UNL     1       2.539   6.702  19.221  0.00  0.00    +0.000 N 
ATOM      4  H   UNL     1       2.889   7.616  18.946  0.00  0.00    +0.000 HD
ENDROOT
BRANCH   2   5
ATOM      5  C   UNL     1       1.503   8.126  20.861  0.00  0.00    +0.000 C 
ATOM      6  C   UNL     1       1.071   9.089  19.751  0.00  0.00    +0.000 C 
ATOM      7  C   UNL     1       0.392  10.077  20.632  0.00  0.00    +0.000 A 
ATOM      8  C   UNL     1       0.105  11.415  20.442  0.00  0.00    +0.000 A 
ATOM      9  C   UNL     1      -0.536  12.101  21.484  0.00  0.00    +0.000 A 
ATOM     10  C   UNL     1      -0.914  11.437  22.663  0.00  0.00    +0.000 A 
ATOM     11  C   UNL     1      -0.640  10.080  22.830  0.00  0.00    +0.000 A 
ATOM     12  C   UNL     1       0.035   9.440  21.815  0.00  0.00    +0.000 A 
ATOM     13  O   UNL     1       0.472   8.141  21.882  0.00  0.00    +0.000 OA
ENDBRANCH   2   5
BRANCH   3  14
ATOM     14  C   UNL     1       2.853   5.622  18.373  0.00  0.00    +0.000 A 
ATOM     15  C   UNL     1       2.072   4.475  18.272  0.00  0.00    +0.000 A 
ATOM     16  C   UNL     1       2.431   3.456  17.388  0.00  0.00    +0.000 A 
ATOM     17  C   UNL     1       3.570   3.580  16.590  0.00  0.00    +0.000 A 
ATOM     18  C   UNL     1       4.368   4.728  16.665  0.00  0.00    +0.000 A 
ATOM     19  C   UNL     1       4.003   5.739  17.570  0.00  0.00    +0.000 A 
BRANCH  18  20
ATOM     20  C   UNL     1       5.548   4.873  15.811  0.00  0.00    +0.000 A 
ATOM     21  C   UNL     1       5.903   4.288  14.609  0.00  0.00    +0.000 A 
ATOM     22  C   UNL     1       7.156   4.836  14.280  0.00  0.00    +0.000 A 
ATOM     23  N   UNL     1       7.592   5.693  15.203  0.00  0.00    +0.000 NA
ATOM     24  N   UNL     1       6.606   5.695  16.118  0.00  0.00    +0.000 N 
ATOM     25  H   UNL     1       6.726   6.272  16.942  0.00  0.00    +0.000 HD
ENDBRANCH  18  20
ENDBRANCH   3  14
TORSDOF 3
ENDMDL
MODEL 7
REMARK VINA RESULT:      -8.2      3.293      8.840
REMARK  Name = 
REMARK  3 active torsions:
REMARK  status: ('A' for Active; 'I' for Inactive)
REMARK    1  A    between atoms: C_2  and  C_15
REMARK    2  A    between atoms: N_3  and  C_4
REMARK    3  A    between atoms: C_8  and  C_9
REMARK                            x       y       z     vdW  Elec       q    Type
REMARK                         _______ _______ _______ _____ _____    ______ ____
ROOT
ATOM      1  O   UNL     1       1.685   7.625  20.618  0.00  0.00    +0.000 OA
ATOM      2  C   UNL     1       2.013   7.729  19.442  0.00  0.00    +0.000 C 
ATOM      3  N   UNL     1       1.607   8.709  18.542  0.00  0.00    +0.000 N 
ATOM      4  H   UNL     1       1.936   8.570  17.590  0.00  0.00    +0.000 HD
ENDROOT
BRANCH   2   5
ATOM      5  C   UNL     1       3.091   6.835  18.818  0.00  0.00    +0.000 C 
ATOM      6  C   UNL     1       2.627   5.443  18.380  0.00  0.00    +0.000 C 
ATOM      7  C   UNL     1       3.734   5.183  17.422  0.00  0.00    +0.000 A 
ATOM      8  C   UNL     1       4.251   3.999  16.932  0.00  0.00    +0.000 A 
ATOM      9  C   UNL     1       5.331   4.075  16.041  0.00  0.00    +0.000 A 
ATOM     10  C   UNL     1       5.842   5.317  15.627  0.00  0.00    +0.000 A 
ATOM     11  C   UNL     1       5.294   6.504  16.111  0.00  0.00    +0.000 A 
ATOM     12  C   UNL     1       4.267   6.403  17.022  0.00  0.00    +0.000 A 
ATOM     13  O   UNL     1       3.704   7.475  17.669  0.00  0.00    +0.000 OA
ENDBRANCH   2   5
BRANCH   3  14
ATOM     14  C   UNL     1       0.798   9.839  18.773  0.00  0.00    +0.000 A 
ATOM     15  C   UNL     1       1.122  10.840  19.684  0.00  0.00    +0.000 A 
ATOM     16  C   UNL     1       0.284  11.946  19.840  0.00  0.00    +0.000 A 
ATOM     17  C   UNL     1      -0.880  12.065  19.079  0.00  0.00    +0.000 A 
ATOM     18  C   UNL     1      -1.224  11.077  18.148  0.00  0.00    +0.000 A 
ATOM     19  C   UNL     1      -0.380   9.962  18.012  0.00  0.00    +0.000 A 
BRANCH  18  20
ATOM     20  C   UNL     1      -2.430  11.211  17.329  0.00  0.00    +0.000 A 
ATOM     21  C   UNL     1      -3.767  11.347  17.659  0.00  0.00    +0.000 A 
ATOM     22  C   UNL     1      -4.449  11.438  16.432  0.00  0.00    +0.000 A 
ATOM     23  N   UNL     1      -3.626  11.347  15.387  0.00  0.00    +0.000 NA
ATOM     24  N   UNL     1      -2.415  11.207  15.954  0.00  0.00    +0.000 N 
ATOM     25  H   UNL     1      -1.615  11.097  15.343  0.00  0.00    +0.000 HD
ENDBRANCH  18  20
ENDBRANCH   3  14
TORSDOF 3
ENDMDL
MODEL 8
REMARK VINA RESULT:      -8.1      5.013      7.334
REMARK  Name = 
REMARK  3 active torsions:
REMARK  status: ('A' for Active; 'I' for Inactive)
REMARK    1  A    between atoms: C_2  and  C_15
REMARK    2  A    between atoms: N_3  and  C_4
REMARK    3  A    between atoms: C_8  and  C_9
REMARK                            x       y       z     vdW  Elec       q    Type
REMARK                         _______ _______ _______ _____ _____    ______ ____
ROOT
ATOM      1  O   UNL     1       8.131   6.570  19.022  0.00  0.00    +0.000 OA
ATOM      2  C   UNL     1       7.922   7.339  18.090  0.00  0.00    +0.000 C 
ATOM      3  N   UNL     1       6.986   7.184  17.071  0.00  0.00    +0.000 N 
ATOM      4  H   UNL     1       7.026   7.901  16.351  0.00  0.00    +0.000 HD
ENDROOT
BRANCH   2   5
ATOM      5  C   UNL     1       8.591   8.715  18.006  0.00  0.00    +0.000 C 
ATOM      6  C   UNL     1       7.699   9.857  17.508  0.00  0.00    +0.000 C 
ATOM      7  C   UNL     1       8.506  10.969  18.077  0.00  0.00    +0.000 A 
ATOM      8  C   UNL     1       8.590  12.303  17.723  0.00  0.00    +0.000 A 
ATOM      9  C   UNL     1       9.474  13.117  18.445  0.00  0.00    +0.000 A 
ATOM     10  C   UNL     1      10.217  12.602  19.522  0.00  0.00    +0.000 A 
ATOM     11  C   UNL     1      10.103  11.261  19.883  0.00  0.00    +0.000 A 
ATOM     12  C   UNL     1       9.266  10.470  19.127  0.00  0.00    +0.000 A 
ATOM     13  O   UNL     1       9.137   9.113  19.290  0.00  0.00    +0.000 OA
ENDBRANCH   2   5
BRANCH   3  14
ATOM     14  C   UNL     1       6.022   6.172  16.904  0.00  0.00    +0.000 A 
ATOM     15  C   UNL     1       6.033   5.270  15.845  0.00  0.00    +0.000 A 
ATOM     16  C   UNL     1       5.059   4.273  15.760  0.00  0.00    +0.000 A 
ATOM     17  C   UNL     1       4.071   4.164  16.740  0.00  0.00    +0.000 A 
ATOM     18  C   UNL     1       4.043   5.052  17.822  0.00  0.00    +0.000 A 
ATOM     19  C   UNL     1       5.020   6.060  17.887  0.00  0.00    +0.000 A 
BRANCH  18  20
ATOM     20  C   UNL     1       3.023   4.925  18.865  0.00  0.00    +0.000 A 
ATOM     21  C   UNL     1       1.896   4.131  18.971  0.00  0.00    +0.000 A 
ATOM     22  C   UNL     1       1.322   4.457  20.212  0.00  0.00    +0.000 A 
ATOM     23  N   UNL     1       2.008   5.402  20.855  0.00  0.00    +0.000 NA
ATOM     24  N   UNL     1       3.027   5.671  20.020  0.00  0.00    +0.000 N 
ATOM     25  H   UNL     1       3.686   6.390  20.293  0.00  0.00    +0.000 HD
ENDBRANCH  18  20
ENDBRANCH   3  14
TORSDOF 3
ENDMDL
MODEL 9
REMARK VINA RESULT:      -8.0      2.727      8.719
REMARK  Name = 
REMARK  3 active torsions:
REMARK  status: ('A' for Active; 'I' for Inactive)
REMARK    1  A    between atoms: C_2  and  C_15
REMARK    2  A    between atoms: N_3  and  C_4
REMARK    3  A    between atoms: C_8  and  C_9
REMARK                            x       y       z     vdW  Elec       q    Type
REMARK                         _______ _______ _______ _____ _____    ______ ____
ROOT
ATOM      1  O   UNL     1       5.967   5.648  18.247  0.00  0.00    +0.000 OA
ATOM      2  C   UNL     1       5.149   5.366  17.378  0.00  0.00    +0.000 C 
ATOM      3  N   UNL     1       3.782   5.169  17.547  0.00  0.00    +0.000 N 
ATOM      4  H   UNL     1       3.293   4.867  16.708  0.00  0.00    +0.000 HD
ENDROOT
BRANCH   2   5
ATOM      5  C   UNL     1       5.519   5.343  15.891  0.00  0.00    +0.000 C 
ATOM      6  C   UNL     1       7.012   5.477  15.577  0.00  0.00    +0.000 C 
ATOM      7  C   UNL     1       6.956   4.891  14.211  0.00  0.00    +0.000 A 
ATOM      8  C   UNL     1       7.803   5.031  13.128  0.00  0.00    +0.000 A 
ATOM      9  C   UNL     1       7.468   4.360  11.944  0.00  0.00    +0.000 A 
ATOM     10  C   UNL     1       6.331   3.535  11.876  0.00  0.00    +0.000 A 
ATOM     11  C   UNL     1       5.500   3.384  12.985  0.00  0.00    +0.000 A 
ATOM     12  C   UNL     1       5.822   4.093  14.120  0.00  0.00    +0.000 A 
ATOM     13  O   UNL     1       5.041   4.134  15.249  0.00  0.00    +0.000 OA
ENDBRANCH   2   5
BRANCH   3  14
ATOM     14  C   UNL     1       3.007   5.315  18.714  0.00  0.00    +0.000 A 
ATOM     15  C   UNL     1       2.671   4.254  19.550  0.00  0.00    +0.000 A 
ATOM     16  C   UNL     1       1.922   4.481  20.706  0.00  0.00    +0.000 A 
ATOM     17  C   UNL     1       1.509   5.771  21.041  0.00  0.00    +0.000 A 
ATOM     18  C   UNL     1       1.842   6.858  20.223  0.00  0.00    +0.000 A 
ATOM     19  C   UNL     1       2.583   6.614  19.054  0.00  0.00    +0.000 A 
BRANCH  18  20
ATOM     20  C   UNL     1       1.433   8.216  20.585  0.00  0.00    +0.000 A 
ATOM     21  C   UNL     1       1.168   8.813  21.804  0.00  0.00    +0.000 A 
ATOM     22  C   UNL     1       0.828  10.145  21.504  0.00  0.00    +0.000 A 
ATOM     23  N   UNL     1       0.849  10.390  20.194  0.00  0.00    +0.000 NA
ATOM     24  N   UNL     1       1.213   9.210  19.661  0.00  0.00    +0.000 N 
ATOM     25  H   UNL     1       1.278   9.146  18.652  0.00  0.00    +0.000 HD
ENDBRANCH  18  20
ENDBRANCH   3  14
TORSDOF 3
ENDMDL
