MODEL 1
REMARK VINA RESULT:      -9.9      0.000      0.000
REMARK  Name = 
REMARK  5 active torsions:
REMARK  status: ('A' for Active; 'I' for Inactive)
REMARK    1  A    between atoms: C_1  and  C_2
REMARK    2  A    between atoms: C_2  and  C_3
REMARK    3  A    between atoms: C_2  and  N_15
REMARK    4  A    between atoms: N_6  and  C_7
REMARK    5  A    between atoms: C_7  and  C_8
REMARK                            x       y       z     vdW  Elec       q    Type
REMARK                         _______ _______ _______ _____ _____    ______ ____
ROOT
ATOM      1  C   UNL     1       7.475   4.473  17.064  0.00  0.00    +0.000 C 
ATOM      2  C   UNL     1       6.528   5.572  17.548  0.00  0.00    +0.000 C 
ENDROOT
BRANCH   2   3
ATOM      3  N   UNL     1       5.301   5.701  16.734  0.00  0.00    +0.000 N 
ATOM      4  C   UNL     1       4.916   4.475  16.147  0.00  0.00    +0.000 C 
ATOM      5  O   UNL     1       5.212   4.079  15.028  0.00  0.00    +0.000 OA
ATOM      6  C   UNL     1       4.237   3.663  17.234  0.00  0.00    +0.000 C 
ATOM      7  C   UNL     1       3.073   2.663  17.228  0.00  0.00    +0.000 C 
ATOM      8  C   UNL     1       2.548   2.977  18.647  0.00  0.00    +0.000 C 
ATOM      9  C   UNL     1       1.361   2.314  19.303  0.00  0.00    +0.000 C 
ATOM     10  C   UNL     1       1.193   2.974  20.689  0.00  0.00    +0.000 C 
ATOM     11  C   UNL     1       0.946   4.482  20.566  0.00  0.00    +0.000 C 
ATOM     12  C   UNL     1       2.098   5.188  19.852  0.00  0.00    +0.000 C 
ATOM     13  C   UNL     1       2.407   4.500  18.539  0.00  0.00    +0.000 C 
ATOM     14  N   UNL     1       3.700   4.787  17.971  0.00  0.00    +0.000 N 
ATOM     15  C   UNL     1       4.199   5.987  17.518  0.00  0.00    +0.000 C 
ATOM     16  O   UNL     1       3.671   7.078  17.663  0.00  0.00    +0.000 OA
ENDBRANCH   2   3
BRANCH   2  17
ATOM     17  C   UNL     1       7.275   6.859  17.833  0.00  0.00    +0.000 A 
ATOM     18  C   UNL     1       8.267   6.980  18.842  0.00  0.00    +0.000 A 
ATOM     19  N   UNL     1       8.804   8.194  18.919  0.00  0.00    +0.000 NA
ATOM     20  N   UNL     1       8.154   8.896  17.966  0.00  0.00    +0.000 N 
ATOM     21  C   UNL     1       7.234   8.129  17.282  0.00  0.00    +0.000 A 
BRANCH  20  22
ATOM     22  C   UNL     1       8.313  10.353  17.935  0.00  0.00    +0.000 C 
BRANCH  22  23
ATOM     23  C   UNL     1       9.515  10.917  18.669  0.00  0.00    +0.000 A 
ATOM     24  C   UNL     1      10.643  11.292  17.912  0.00  0.00    +0.000 A 
ATOM     25  C   UNL     1      11.756  11.886  18.519  0.00  0.00    +0.000 A 
ATOM     26  C   UNL     1      11.754  12.133  19.889  0.00  0.00    +0.000 A 
ATOM     27  C   UNL     1      10.636  11.798  20.649  0.00  0.00    +0.000 A 
ATOM     28  C   UNL     1       9.519  11.205  20.043  0.00  0.00    +0.000 A 
ENDBRANCH  22  23
ENDBRANCH  20  22
ENDBRANCH   2  17
TORSDOF 4
ENDMDL
MODEL 2
REMARK VINA RESULT:      -8.4      0.868      1.312
REMARK  Name = 
REMARK  5 active torsions:
REMARK  status: ('A' for Active; 'I' for Inactive)
REMARK    1  A    between atoms: C_1  and  C_2
REMARK    2  A    between atoms: C_2  and  C_3
REMARK    3  A    between atoms: C_2  and  N_15
REMARK    4  A    between atoms: N_6  and  C_7
REMARK    5  A    between atoms: C_7  and  C_8
REMARK                            x       y       z     vdW  Elec       q    Type
REMARK                         _______ _______ _______ _____ _____    ______ ____
ROOT
ATOM      1  C   UNL     1       7.774   4.597  17.333  0.00  0.00    +0.000 C 
ATOM      2  C   UNL     1       6.744   5.659  17.719  0.00  0.00    +0.000 C 
ENDROOT
BRANCH   2   3
ATOM      3  N   UNL     1       5.554   5.681  16.842  0.00  0.00    +0.000 N 
ATOM      4  C   UNL     1       5.242   4.402  16.331  0.00  0.00    +0.000 C 
ATOM      5  O   UNL     1       5.606   3.937  15.259  0.00  0.00    +0.000 OA
ATOM      6  C   UNL     1       4.540   3.645  17.442  0.00  0.00    +0.000 C 
ATOM      7  C   UNL     1       3.414   2.602  17.457  0.00  0.00    +0.000 C 
ATOM      8  C   UNL     1       2.809   2.997  18.823  0.00  0.00    +0.000 C 
ATOM      9  C   UNL     1       1.616   2.338  19.472  0.00  0.00    +0.000 C 
ATOM     10  C   UNL     1       1.358   3.090  20.796  0.00  0.00    +0.000 C 
ATOM     11  C   UNL     1       1.063   4.574  20.549  0.00  0.00    +0.000 C 
ATOM     12  C   UNL     1       2.223   5.271  19.839  0.00  0.00    +0.000 C 
ATOM     13  C   UNL     1       2.620   4.502  18.596  0.00  0.00    +0.000 C 
ATOM     14  N   UNL     1       3.929   4.797  18.069  0.00  0.00    +0.000 N 
ATOM     15  C   UNL     1       4.405   5.980  17.551  0.00  0.00    +0.000 C 
ATOM     16  O   UNL     1       3.833   7.057  17.591  0.00  0.00    +0.000 OA
ENDBRANCH   2   3
BRANCH   2  17
ATOM     17  C   UNL     1       7.402   6.998  17.979  0.00  0.00    +0.000 A 
ATOM     18  C   UNL     1       7.204   8.140  17.158  0.00  0.00    +0.000 A 
ATOM     19  N   UNL     1       7.869   9.215  17.570  0.00  0.00    +0.000 NA
ATOM     20  N   UNL     1       8.532   8.785  18.665  0.00  0.00    +0.000 N 
ATOM     21  C   UNL     1       8.271   7.462  18.953  0.00  0.00    +0.000 A 
BRANCH  20  22
ATOM     22  C   UNL     1       9.571   9.644  19.240  0.00  0.00    +0.000 C 
BRANCH  22  23
ATOM     23  C   UNL     1       9.678  11.048  18.673  0.00  0.00    +0.000 A 
ATOM     24  C   UNL     1      10.764  11.343  17.823  0.00  0.00    +0.000 A 
ATOM     25  C   UNL     1      10.881  12.594  17.209  0.00  0.00    +0.000 A 
ATOM     26  C   UNL     1       9.907  13.567  17.417  0.00  0.00    +0.000 A 
ATOM     27  C   UNL     1       8.811  13.284  18.228  0.00  0.00    +0.000 A 
ATOM     28  C   UNL     1       8.690  12.030  18.842  0.00  0.00    +0.000 A 
ENDBRANCH  22  23
ENDBRANCH  20  22
ENDBRANCH   2  17
TORSDOF 4
ENDMDL
MODEL 3
REMARK VINA RESULT:      -8.4      1.042      1.614
REMARK  Name = 
REMARK  5 active torsions:
REMARK  status: ('A' for Active; 'I' for Inactive)
REMARK    1  A    between atoms: C_1  and  C_2
REMARK    2  A    between atoms: C_2  and  C_3
REMARK    3  A    between atoms: C_2  and  N_15
REMARK    4  A    between atoms: N_6  and  C_7
REMARK    5  A    between atoms: C_7  and  C_8
REMARK                            x       y       z     vdW  Elec       q    Type
REMARK                         _______ _______ _______ _____ _____    ______ ____
ROOT
ATOM      1  C   UNL     1       7.762   4.616  17.685  0.00  0.00    +0.000 C 
ATOM      2  C   UNL     1       6.722   5.716  17.899  0.00  0.00    +0.000 C 
ENDROOT
BRANCH   2   3
ATOM      3  N   UNL     1       5.572   5.637  16.974  0.00  0.00    +0.000 N 
ATOM      4  C   UNL     1       5.349   4.322  16.508  0.00  0.00    +0.000 C 
ATOM      5  O   UNL     1       5.783   3.832  15.474  0.00  0.00    +0.000 OA
ATOM      6  C   UNL     1       4.639   3.577  17.622  0.00  0.00    +0.000 C 
ATOM      7  C   UNL     1       3.569   2.477  17.637  0.00  0.00    +0.000 C 
ATOM      8  C   UNL     1       2.886   2.898  18.958  0.00  0.00    +0.000 C 
ATOM      9  C   UNL     1       1.700   2.204  19.586  0.00  0.00    +0.000 C 
ATOM     10  C   UNL     1       1.346   2.997  20.862  0.00  0.00    +0.000 C 
ATOM     11  C   UNL     1       0.986   4.451  20.537  0.00  0.00    +0.000 C 
ATOM     12  C   UNL     1       2.138   5.178  19.845  0.00  0.00    +0.000 C 
ATOM     13  C   UNL     1       2.629   4.379  18.656  0.00  0.00    +0.000 C 
ATOM     14  N   UNL     1       3.942   4.721  18.170  0.00  0.00    +0.000 N 
ATOM     15  C   UNL     1       4.380   5.904  17.620  0.00  0.00    +0.000 C 
ATOM     16  O   UNL     1       3.751   6.950  17.587  0.00  0.00    +0.000 OA
ENDBRANCH   2   3
BRANCH   2  17
ATOM     17  C   UNL     1       7.376   7.076  18.031  0.00  0.00    +0.000 A 
ATOM     18  C   UNL     1       6.985   8.210  17.269  0.00  0.00    +0.000 A 
ATOM     19  N   UNL     1       7.684   9.306  17.548  0.00  0.00    +0.000 NA
ATOM     20  N   UNL     1       8.561   8.900  18.490  0.00  0.00    +0.000 N 
ATOM     21  C   UNL     1       8.403   7.570  18.819  0.00  0.00    +0.000 A 
BRANCH  20  22
ATOM     22  C   UNL     1       9.665   9.793  18.855  0.00  0.00    +0.000 C 
BRANCH  22  23
ATOM     23  C   UNL     1       9.288  11.076  19.571  0.00  0.00    +0.000 A 
ATOM     24  C   UNL     1       9.215  11.057  20.979  0.00  0.00    +0.000 A 
ATOM     25  C   UNL     1       8.944  12.222  21.704  0.00  0.00    +0.000 A 
ATOM     26  C   UNL     1       8.761  13.431  21.038  0.00  0.00    +0.000 A 
ATOM     27  C   UNL     1       8.860  13.476  19.649  0.00  0.00    +0.000 A 
ATOM     28  C   UNL     1       9.133  12.310  18.921  0.00  0.00    +0.000 A 
ENDBRANCH  22  23
ENDBRANCH  20  22
ENDBRANCH   2  17
TORSDOF 4
ENDMDL
MODEL 4
REMARK VINA RESULT:      -8.1      6.900     10.202
REMARK  Name = 
REMARK  5 active torsions:
REMARK  status: ('A' for Active; 'I' for Inactive)
REMARK    1  A    between atoms: C_1  and  C_2
REMARK    2  A    between atoms: C_2  and  C_3
REMARK    3  A    between atoms: C_2  and  N_15
REMARK    4  A    between atoms: N_6  and  C_7
REMARK    5  A    between atoms: C_7  and  C_8
REMARK                            x       y       z     vdW  Elec       q    Type
REMARK                         _______ _______ _______ _____ _____    ______ ____
ROOT
ATOM      1  C   UNL     1      -1.394  10.411  18.067  0.00  0.00    +0.000 C 
ATOM      2  C   UNL     1      -0.477  10.378  19.291  0.00  0.00    +0.000 C 
ENDROOT
BRANCH   2   3
ATOM      3  N   UNL     1      -0.122  11.717  19.805  0.00  0.00    +0.000 N 
ATOM      4  C   UNL     1      -0.889  12.742  19.208  0.00  0.00    +0.000 C 
ATOM      5  O   UNL     1      -0.580  13.406  18.228  0.00  0.00    +0.000 OA
ATOM      6  C   UNL     1      -2.246  12.725  19.886  0.00  0.00    +0.000 C 
ATOM      7  C   UNL     1      -3.252  13.823  20.255  0.00  0.00    +0.000 C 
ATOM      8  C   UNL     1      -3.824  13.139  21.517  0.00  0.00    +0.000 C 
ATOM      9  C   UNL     1      -4.904  13.710  22.405  0.00  0.00    +0.000 C 
ATOM     10  C   UNL     1      -5.115  12.700  23.553  0.00  0.00    +0.000 C 
ATOM     11  C   UNL     1      -3.830  12.496  24.363  0.00  0.00    +0.000 C 
ATOM     12  C   UNL     1      -2.688  11.973  23.492  0.00  0.00    +0.000 C 
ATOM     13  C   UNL     1      -2.518  12.847  22.266  0.00  0.00    +0.000 C 
ATOM     14  N   UNL     1      -1.782  12.258  21.175  0.00  0.00    +0.000 N 
ATOM     15  C   UNL     1      -0.466  11.858  21.137  0.00  0.00    +0.000 C 
ATOM     16  O   UNL     1       0.287  11.791  22.095  0.00  0.00    +0.000 OA
ENDBRANCH   2   3
BRANCH   2  17
ATOM     17  C   UNL     1       0.676   9.416  19.090  0.00  0.00    +0.000 A 
ATOM     18  C   UNL     1       1.457   9.366  17.904  0.00  0.00    +0.000 A 
ATOM     19  N   UNL     1       2.424   8.455  17.941  0.00  0.00    +0.000 NA
ATOM     20  N   UNL     1       2.278   7.877  19.152  0.00  0.00    +0.000 N 
ATOM     21  C   UNL     1       1.247   8.432  19.880  0.00  0.00    +0.000 A 
BRANCH  20  22
ATOM     22  C   UNL     1       3.023   6.647  19.438  0.00  0.00    +0.000 C 
BRANCH  22  23
ATOM     23  C   UNL     1       2.219   5.361  19.467  0.00  0.00    +0.000 A 
ATOM     24  C   UNL     1       2.026   4.668  18.255  0.00  0.00    +0.000 A 
ATOM     25  C   UNL     1       1.356   3.440  18.223  0.00  0.00    +0.000 A 
ATOM     26  C   UNL     1       0.885   2.872  19.404  0.00  0.00    +0.000 A 
ATOM     27  C   UNL     1       1.094   3.527  20.616  0.00  0.00    +0.000 A 
ATOM     28  C   UNL     1       1.766   4.756  20.650  0.00  0.00    +0.000 A 
ENDBRANCH  22  23
ENDBRANCH  20  22
ENDBRANCH   2  17
TORSDOF 4
ENDMDL
MODEL 5
REMARK VINA RESULT:      -7.7      6.250      9.662
REMARK  Name = 
REMARK  5 active torsions:
REMARK  status: ('A' for Active; 'I' for Inactive)
REMARK    1  A    between atoms: C_1  and  C_2
REMARK    2  A    between atoms: C_2  and  C_3
REMARK    3  A    between atoms: C_2  and  N_15
REMARK    4  A    between atoms: N_6  and  C_7
REMARK    5  A    between atoms: C_7  and  C_8
REMARK                            x       y       z     vdW  Elec       q    Type
REMARK                         _______ _______ _______ _____ _____    ______ ____
ROOT
ATOM      1  C   UNL     1      -0.375  10.179  18.020  0.00  0.00    +0.000 C 
ATOM      2  C   UNL     1       0.505   9.821  19.218  0.00  0.00    +0.000 C 
ENDROOT
BRANCH   2   3
ATOM      3  N   UNL     1       1.024  10.995  19.949  0.00  0.00    +0.000 N 
ATOM      4  C   UNL     1       0.653  12.214  19.338  0.00  0.00    +0.000 C 
ATOM      5  O   UNL     1       1.309  12.851  18.525  0.00  0.00    +0.000 OA
ATOM      6  C   UNL     1      -0.789  12.477  19.727  0.00  0.00    +0.000 C 
ATOM      7  C   UNL     1      -1.584  13.757  20.017  0.00  0.00    +0.000 C 
ATOM      8  C   UNL     1      -2.556  13.145  21.051  0.00  0.00    +0.000 C 
ATOM      9  C   UNL     1      -3.652  13.896  21.768  0.00  0.00    +0.000 C 
ATOM     10  C   UNL     1      -4.329  12.890  22.724  0.00  0.00    +0.000 C 
ATOM     11  C   UNL     1      -3.332  12.325  23.742  0.00  0.00    +0.000 C 
ATOM     12  C   UNL     1      -2.170  11.605  23.058  0.00  0.00    +0.000 C 
ATOM     13  C   UNL     1      -1.546  12.495  22.003  0.00  0.00    +0.000 C 
ATOM     14  N   UNL     1      -0.736  11.824  21.017  0.00  0.00    +0.000 N 
ATOM     15  C   UNL     1       0.435  11.122  21.193  0.00  0.00    +0.000 C 
ATOM     16  O   UNL     1       0.924  10.809  22.266  0.00  0.00    +0.000 OA
ENDBRANCH   2   3
BRANCH   2  17
ATOM     17  C   UNL     1       1.523   8.758  18.857  0.00  0.00    +0.000 A 
ATOM     18  C   UNL     1       2.286   8.782  17.658  0.00  0.00    +0.000 A 
ATOM     19  N   UNL     1       3.128   7.759  17.543  0.00  0.00    +0.000 NA
ATOM     20  N   UNL     1       2.914   7.036  18.663  0.00  0.00    +0.000 N 
ATOM     21  C   UNL     1       1.966   7.607  19.486  0.00  0.00    +0.000 A 
BRANCH  20  22
ATOM     22  C   UNL     1       3.496   5.694  18.755  0.00  0.00    +0.000 C 
BRANCH  22  23
ATOM     23  C   UNL     1       2.660   4.642  19.460  0.00  0.00    +0.000 A 
ATOM     24  C   UNL     1       2.849   4.459  20.846  0.00  0.00    +0.000 A 
ATOM     25  C   UNL     1       2.060   3.558  21.569  0.00  0.00    +0.000 A 
ATOM     26  C   UNL     1       1.057   2.837  20.927  0.00  0.00    +0.000 A 
ATOM     27  C   UNL     1       0.835   3.027  19.565  0.00  0.00    +0.000 A 
ATOM     28  C   UNL     1       1.622   3.931  18.838  0.00  0.00    +0.000 A 
ENDBRANCH  22  23
ENDBRANCH  20  22
ENDBRANCH   2  17
TORSDOF 4
ENDMDL
MODEL 6
REMARK VINA RESULT:      -7.5      6.042      8.345
REMARK  Name = 
REMARK  5 active torsions:
REMARK  status: ('A' for Active; 'I' for Inactive)
REMARK    1  A    between atoms: C_1  and  C_2
REMARK    2  A    between atoms: C_2  and  C_3
REMARK    3  A    between atoms: C_2  and  N_15
REMARK    4  A    between atoms: N_6  and  C_7
REMARK    5  A    between atoms: C_7  and  C_8
REMARK                            x       y       z     vdW  Elec       q    Type
REMARK                         _______ _______ _______ _____ _____    ______ ____
ROOT
ATOM      1  C   UNL     1       0.105  10.114  17.944  0.00  0.00    +0.000 C 
ATOM      2  C   UNL     1       0.709   9.604  19.254  0.00  0.00    +0.000 C 
ENDROOT
BRANCH   2   3
ATOM      3  N   UNL     1       1.306  10.668  20.088  0.00  0.00    +0.000 N 
ATOM      4  C   UNL     1       1.113  11.954  19.535  0.00  0.00    +0.000 C 
ATOM      5  O   UNL     1       1.888  12.557  18.805  0.00  0.00    +0.000 OA
ATOM      6  C   UNL     1      -0.314  12.358  19.854  0.00  0.00    +0.000 C 
ATOM      7  C   UNL     1      -0.979  13.703  20.178  0.00  0.00    +0.000 C 
ATOM      8  C   UNL     1      -2.080  13.148  21.111  0.00  0.00    +0.000 C 
ATOM      9  C   UNL     1      -3.131  13.977  21.809  0.00  0.00    +0.000 C 
ATOM     10  C   UNL     1      -3.977  13.002  22.655  0.00  0.00    +0.000 C 
ATOM     11  C   UNL     1      -3.118  12.270  23.692  0.00  0.00    +0.000 C 
ATOM     12  C   UNL     1      -2.001  11.462  23.034  0.00  0.00    +0.000 C 
ATOM     13  C   UNL     1      -1.213  12.333  22.078  0.00  0.00    +0.000 C 
ATOM     14  N   UNL     1      -0.418  11.631  21.101  0.00  0.00    +0.000 N 
ATOM     15  C   UNL     1       0.653  10.791  21.300  0.00  0.00    +0.000 C 
ATOM     16  O   UNL     1       1.032  10.363  22.378  0.00  0.00    +0.000 OA
ENDBRANCH   2   3
BRANCH   2  17
ATOM     17  C   UNL     1       1.569   8.378  19.024  0.00  0.00    +0.000 A 
ATOM     18  C   UNL     1       1.886   7.443  20.046  0.00  0.00    +0.000 A 
ATOM     19  N   UNL     1       2.646   6.435  19.629  0.00  0.00    +0.000 NA
ATOM     20  N   UNL     1       2.855   6.707  18.323  0.00  0.00    +0.000 N 
ATOM     21  C   UNL     1       2.216   7.859  17.916  0.00  0.00    +0.000 A 
BRANCH  20  22
ATOM     22  C   UNL     1       3.867   5.933  17.597  0.00  0.00    +0.000 C 
BRANCH  22  23
ATOM     23  C   UNL     1       5.315   6.208  17.958  0.00  0.00    +0.000 A 
ATOM     24  C   UNL     1       5.886   5.480  19.023  0.00  0.00    +0.000 A 
ATOM     25  C   UNL     1       7.235   5.633  19.359  0.00  0.00    +0.000 A 
ATOM     26  C   UNL     1       8.043   6.499  18.628  0.00  0.00    +0.000 A 
ATOM     27  C   UNL     1       7.505   7.203  17.553  0.00  0.00    +0.000 A 
ATOM     28  C   UNL     1       6.154   7.050  17.212  0.00  0.00    +0.000 A 
ENDBRANCH  22  23
ENDBRANCH  20  22
ENDBRANCH   2  17
TORSDOF 4
ENDMDL
MODEL 7
REMARK VINA RESULT:      -7.5      3.638      6.932
REMARK  Name = 
REMARK  5 active torsions:
REMARK  status: ('A' for Active; 'I' for Inactive)
REMARK    1  A    between atoms: C_1  and  C_2
REMARK    2  A    between atoms: C_2  and  C_3
REMARK    3  A    between atoms: C_2  and  N_15
REMARK    4  A    between atoms: N_6  and  C_7
REMARK    5  A    between atoms: C_7  and  C_8
REMARK                            x       y       z     vdW  Elec       q    Type
REMARK                         _______ _______ _______ _____ _____    ______ ____
ROOT
ATOM      1  C   UNL     1       1.341   3.334  20.840  0.00  0.00    +0.000 C 
ATOM      2  C   UNL     1       1.854   3.611  19.426  0.00  0.00    +0.000 C 
ENDROOT
BRANCH   2   3
ATOM      3  N   UNL     1       2.921   2.687  18.989  0.00  0.00    +0.000 N 
ATOM      4  C   UNL     1       3.068   2.664  17.584  0.00  0.00    +0.000 C 
ATOM      5  O   UNL     1       2.537   1.881  16.808  0.00  0.00    +0.000 OA
ATOM      6  C   UNL     1       3.846   3.911  17.205  0.00  0.00    +0.000 C 
ATOM      7  C   UNL     1       4.882   4.213  16.114  0.00  0.00    +0.000 C 
ATOM      8  C   UNL     1       5.683   5.273  16.905  0.00  0.00    +0.000 C 
ATOM      9  C   UNL     1       6.896   6.011  16.391  0.00  0.00    +0.000 C 
ATOM     10  C   UNL     1       7.376   6.929  17.536  0.00  0.00    +0.000 C 
ATOM     11  C   UNL     1       7.749   6.120  18.783  0.00  0.00    +0.000 C 
ATOM     12  C   UNL     1       6.565   5.308  19.306  0.00  0.00    +0.000 C 
ATOM     13  C   UNL     1       5.956   4.484  18.191  0.00  0.00    +0.000 C 
ATOM     14  N   UNL     1       4.617   4.003  18.426  0.00  0.00    +0.000 N 
ATOM     15  C   UNL     1       4.170   3.127  19.388  0.00  0.00    +0.000 C 
ATOM     16  O   UNL     1       4.823   2.709  20.330  0.00  0.00    +0.000 OA
ENDBRANCH   2   3
BRANCH   2  17
ATOM     17  C   UNL     1       2.125   5.087  19.216  0.00  0.00    +0.000 A 
ATOM     18  C   UNL     1       2.780   5.906  20.175  0.00  0.00    +0.000 A 
ATOM     19  N   UNL     1       2.925   7.169  19.786  0.00  0.00    +0.000 NA
ATOM     20  N   UNL     1       2.346   7.201  18.567  0.00  0.00    +0.000 N 
ATOM     21  C   UNL     1       1.863   5.968  18.181  0.00  0.00    +0.000 A 
BRANCH  20  22
ATOM     22  C   UNL     1       2.097   8.503  17.941  0.00  0.00    +0.000 C 
BRANCH  22  23
ATOM     23  C   UNL     1       0.919   9.295  18.475  0.00  0.00    +0.000 A 
ATOM     24  C   UNL     1       0.934   9.678  19.832  0.00  0.00    +0.000 A 
ATOM     25  C   UNL     1      -0.086  10.471  20.370  0.00  0.00    +0.000 A 
ATOM     26  C   UNL     1      -1.128  10.912  19.558  0.00  0.00    +0.000 A 
ATOM     27  C   UNL     1      -1.143  10.570  18.208  0.00  0.00    +0.000 A 
ATOM     28  C   UNL     1      -0.122   9.778  17.667  0.00  0.00    +0.000 A 
ENDBRANCH  22  23
ENDBRANCH  20  22
ENDBRANCH   2  17
TORSDOF 4
ENDMDL
MODEL 8
REMARK VINA RESULT:      -7.4      5.146      8.438
REMARK  Name = 
REMARK  5 active torsions:
REMARK  status: ('A' for Active; 'I' for Inactive)
REMARK    1  A    between atoms: C_1  and  C_2
REMARK    2  A    between atoms: C_2  and  C_3
REMARK    3  A    between atoms: C_2  and  N_15
REMARK    4  A    between atoms: N_6  and  C_7
REMARK    5  A    between atoms: C_7  and  C_8
REMARK                            x       y       z     vdW  Elec       q    Type
REMARK                         _______ _______ _______ _____ _____    ______ ____
ROOT
ATOM      1  C   UNL     1       0.001   9.170  21.290  0.00  0.00    +0.000 C 
ATOM      2  C   UNL     1       1.037   9.072  20.170  0.00  0.00    +0.000 C 
ENDROOT
BRANCH   2   3
ATOM      3  N   UNL     1       0.567   9.607  18.875  0.00  0.00    +0.000 N 
ATOM      4  C   UNL     1      -0.558  10.448  19.020  0.00  0.00    +0.000 C 
ATOM      5  O   UNL     1      -1.732  10.116  18.926  0.00  0.00    +0.000 OA
ATOM      6  C   UNL     1      -0.043  11.789  19.507  0.00  0.00    +0.000 C 
ATOM      7  C   UNL     1      -0.483  13.238  19.260  0.00  0.00    +0.000 C 
ATOM      8  C   UNL     1       0.917  13.882  19.380  0.00  0.00    +0.000 C 
ATOM      9  C   UNL     1       1.214  15.355  19.235  0.00  0.00    +0.000 C 
ATOM     10  C   UNL     1       2.741  15.519  19.394  0.00  0.00    +0.000 C 
ATOM     11  C   UNL     1       3.503  14.726  18.327  0.00  0.00    +0.000 C 
ATOM     12  C   UNL     1       3.188  13.233  18.397  0.00  0.00    +0.000 C 
ATOM     13  C   UNL     1       1.690  13.009  18.385  0.00  0.00    +0.000 C 
ATOM     14  N   UNL     1       1.246  11.720  18.854  0.00  0.00    +0.000 N 
ATOM     15  C   UNL     1       1.488  10.475  18.319  0.00  0.00    +0.000 C 
ATOM     16  O   UNL     1       2.270  10.228  17.415  0.00  0.00    +0.000 OA
ENDBRANCH   2   3
BRANCH   2  17
ATOM     17  C   UNL     1       1.677   7.699  20.129  0.00  0.00    +0.000 A 
ATOM     18  C   UNL     1       1.340   6.651  21.028  0.00  0.00    +0.000 A 
ATOM     19  N   UNL     1       2.014   5.526  20.811  0.00  0.00    +0.000 NA
ATOM     20  N   UNL     1       2.822   5.827  19.772  0.00  0.00    +0.000 N 
ATOM     21  C   UNL     1       2.644   7.119  19.324  0.00  0.00    +0.000 A 
BRANCH  20  22
ATOM     22  C   UNL     1       3.894   4.892  19.421  0.00  0.00    +0.000 C 
BRANCH  22  23
ATOM     23  C   UNL     1       5.056   5.462  18.630  0.00  0.00    +0.000 A 
ATOM     24  C   UNL     1       6.320   5.525  19.252  0.00  0.00    +0.000 A 
ATOM     25  C   UNL     1       7.447   5.972  18.554  0.00  0.00    +0.000 A 
ATOM     26  C   UNL     1       7.337   6.345  17.217  0.00  0.00    +0.000 A 
ATOM     27  C   UNL     1       6.103   6.260  16.576  0.00  0.00    +0.000 A 
ATOM     28  C   UNL     1       4.973   5.811  17.273  0.00  0.00    +0.000 A 
ENDBRANCH  22  23
ENDBRANCH  20  22
ENDBRANCH   2  17
TORSDOF 4
ENDMDL
MODEL 9
REMARK VINA RESULT:      -7.4      5.253      8.520
REMARK  Name = 
REMARK  5 active torsions:
REMARK  status: ('A' for Active; 'I' for Inactive)
REMARK    1  A    between atoms: C_1  and  C_2
REMARK    2  A    between atoms: C_2  and  C_3
REMARK    3  A    between atoms: C_2  and  N_15
REMARK    4  A    between atoms: N_6  and  C_7
REMARK    5  A    between atoms: C_7  and  C_8
REMARK                            x       y       z     vdW  Elec       q    Type
REMARK                         _______ _______ _______ _____ _____    ______ ____
ROOT
ATOM      1  C   UNL     1       0.939   8.812  22.426  0.00  0.00    +0.000 C 
ATOM      2  C   UNL     1       1.253   9.139  20.966  0.00  0.00    +0.000 C 
ENDROOT
BRANCH   2   3
ATOM      3  N   UNL     1       0.201   9.930  20.294  0.00  0.00    +0.000 N 
ATOM      4  C   UNL     1      -0.327  10.940  21.129  0.00  0.00    +0.000 C 
ATOM      5  O   UNL     1      -1.318  10.852  21.840  0.00  0.00    +0.000 OA
ATOM      6  C   UNL     1       0.677  12.077  21.128  0.00  0.00    +0.000 C 
ATOM      7  C   UNL     1       0.538  13.603  21.204  0.00  0.00    +0.000 C 
ATOM      8  C   UNL     1       1.784  13.948  20.358  0.00  0.00    +0.000 C 
ATOM      9  C   UNL     1       2.252  15.344  20.023  0.00  0.00    +0.000 C 
ATOM     10  C   UNL     1       3.503  15.192  19.131  0.00  0.00    +0.000 C 
ATOM     11  C   UNL     1       3.182  14.428  17.842  0.00  0.00    +0.000 C 
ATOM     12  C   UNL     1       2.648  13.026  18.133  0.00  0.00    +0.000 C 
ATOM     13  C   UNL     1       1.499  13.093  19.117  0.00  0.00    +0.000 C 
ATOM     14  N   UNL     1       1.176  11.858  19.788  0.00  0.00    +0.000 N 
ATOM     15  C   UNL     1       0.715  10.678  19.251  0.00  0.00    +0.000 C 
ATOM     16  O   UNL     1       0.642  10.417  18.061  0.00  0.00    +0.000 OA
ENDBRANCH   2   3
BRANCH   2  17
ATOM     17  C   UNL     1       1.743   7.915  20.219  0.00  0.00    +0.000 A 
ATOM     18  C   UNL     1       1.579   6.588  20.700  0.00  0.00    +0.000 A 
ATOM     19  N   UNL     1       2.075   5.662  19.885  0.00  0.00    +0.000 NA
ATOM     20  N   UNL     1       2.591   6.374  18.860  0.00  0.00    +0.000 N 
ATOM     21  C   UNL     1       2.403   7.731  19.016  0.00  0.00    +0.000 A 
BRANCH  20  22
ATOM     22  C   UNL     1       3.448   5.688  17.889  0.00  0.00    +0.000 C 
BRANCH  22  23
ATOM     23  C   UNL     1       4.944   5.884  18.050  0.00  0.00    +0.000 A 
ATOM     24  C   UNL     1       5.591   6.803  17.199  0.00  0.00    +0.000 A 
ATOM     25  C   UNL     1       6.954   7.084  17.343  0.00  0.00    +0.000 A 
ATOM     26  C   UNL     1       7.690   6.468  18.351  0.00  0.00    +0.000 A 
ATOM     27  C   UNL     1       7.061   5.581  19.222  0.00  0.00    +0.000 A 
ATOM     28  C   UNL     1       5.695   5.299  19.081  0.00  0.00    +0.000 A 
ENDBRANCH  22  23
ENDBRANCH  20  22
ENDBRANCH   2  17
TORSDOF 4
ENDMDL
