MODEL 1
REMARK VINA RESULT:      -7.8      0.000      0.000
REMARK  Name = 
REMARK  8 active torsions:
REMARK  status: ('A' for Active; 'I' for Inactive)
REMARK    1  A    between atoms: C_1  and  N_2
REMARK    2  A    between atoms: N_2  and  C_3
REMARK    3  A    between atoms: C_3  and  C_4
REMARK    4  A    between atoms: N_7  and  C_8
REMARK    5  A    between atoms: C_8  and  C_9
REMARK    6  A    between atoms: C_16  and  C_18
REMARK    7  A    between atoms: C_20  and  C_21
REMARK    8  A    between atoms: N_25  and  C_26
REMARK                            x       y       z     vdW  Elec       q    Type
REMARK                         _______ _______ _______ _____ _____    ______ ____
ROOT
ATOM      1  C   UNL     1       5.793   5.309  19.327  0.00  0.00    +0.000 C 
ATOM      2  N   UNL     1       5.296   4.711  18.099  0.00  0.00    +0.000 N 
ATOM      3  C   UNL     1       4.031   4.948  17.544  0.00  0.00    +0.000 C 
ATOM      4  O   UNL     1       3.642   4.285  16.583  0.00  0.00    +0.000 OA
ENDROOT
BRANCH   3   5
ATOM      5  C   UNL     1       3.215   6.011  18.095  0.00  0.00    +0.000 A 
ATOM      6  C   UNL     1       3.184   7.355  17.753  0.00  0.00    +0.000 A 
ATOM      7  C   UNL     1       2.280   7.957  18.630  0.00  0.00    +0.000 A 
ATOM      8  N   UNL     1       1.823   7.105  19.539  0.00  0.00    +0.000 NA
ATOM      9  N   UNL     1       2.386   5.902  19.215  0.00  0.00    +0.000 N 
BRANCH   9  10
ATOM     10  C   UNL     1       2.027   4.764  19.999  0.00  0.00    +0.000 A 
ATOM     11  C   UNL     1       2.592   4.509  21.254  0.00  0.00    +0.000 A 
ATOM     12  C   UNL     1       2.183   3.395  21.998  0.00  0.00    +0.000 A 
ATOM     13  C   UNL     1       1.213   2.529  21.497  0.00  0.00    +0.000 A 
ATOM     14  C   UNL     1       0.664   2.760  20.238  0.00  0.00    +0.000 A 
ATOM     15  C   UNL     1       1.079   3.862  19.484  0.00  0.00    +0.000 A 
ENDBRANCH   9  10
BRANCH   7  16
ATOM     16  C   UNL     1       1.906   9.428  18.551  0.00  0.00    +0.000 C 
ATOM     17  C   UNL     1       0.803   9.934  19.456  0.00  0.00    +0.000 C 
ATOM     18  C   UNL     1       0.559   9.833  17.990  0.00  0.00    +0.000 C 
ENDBRANCH   7  16
ENDBRANCH   3   5
BRANCH   2  19
ATOM     19  C   UNL     1       6.204   3.813  17.390  0.00  0.00    +0.000 C 
BRANCH  19  20
ATOM     20  C   UNL     1       6.770   4.428  16.160  0.00  0.00    +0.000 A 
ATOM     21  C   UNL     1       7.280   5.742  16.029  0.00  0.00    +0.000 A 
ATOM     22  N   UNL     1       7.610   6.050  14.773  0.00  0.00    +0.000 NA
ATOM     23  N   UNL     1       7.316   4.928  14.083  0.00  0.00    +0.000 N 
ATOM     24  C   UNL     1       6.833   3.924  14.876  0.00  0.00    +0.000 A 
BRANCH  23  25
ATOM     25  C   UNL     1       7.396   4.914  12.630  0.00  0.00    +0.000 C 
BRANCH  25  26
ATOM     26  C   UNL     1       6.774   3.670  12.052  0.00  0.00    +0.000 A 
ATOM     27  C   UNL     1       5.380   3.524  12.003  0.00  0.00    +0.000 A 
ATOM     28  C   UNL     1       4.812   2.359  11.485  0.00  0.00    +0.000 A 
ATOM     29  C   UNL     1       5.628   1.334  11.011  0.00  0.00    +0.000 A 
ATOM     30  C   UNL     1       7.014   1.468  11.057  0.00  0.00    +0.000 A 
ATOM     31  C   UNL     1       7.585   2.628  11.579  0.00  0.00    +0.000 A 
ENDBRANCH  25  26
ENDBRANCH  23  25
ENDBRANCH  19  20
ENDBRANCH   2  19
TORSDOF 7
ENDMDL
MODEL 2
REMARK VINA RESULT:      -7.6      3.746      9.784
REMARK  Name = 
REMARK  8 active torsions:
REMARK  status: ('A' for Active; 'I' for Inactive)
REMARK    1  A    between atoms: C_1  and  N_2
REMARK    2  A    between atoms: N_2  and  C_3
REMARK    3  A    between atoms: C_3  and  C_4
REMARK    4  A    between atoms: N_7  and  C_8
REMARK    5  A    between atoms: C_8  and  C_9
REMARK    6  A    between atoms: C_16  and  C_18
REMARK    7  A    between atoms: C_20  and  C_21
REMARK    8  A    between atoms: N_25  and  C_26
REMARK                            x       y       z     vdW  Elec       q    Type
REMARK                         _______ _______ _______ _____ _____    ______ ____
ROOT
ATOM      1  C   UNL     1       1.135   9.081  17.490  0.00  0.00    +0.000 C 
ATOM      2  N   UNL     1       1.215   8.843  18.922  0.00  0.00    +0.000 N 
ATOM      3  C   UNL     1       1.957   7.821  19.528  0.00  0.00    +0.000 C 
ATOM      4  O   UNL     1       1.847   7.607  20.734  0.00  0.00    +0.000 OA
ENDROOT
BRANCH   3   5
ATOM      5  C   UNL     1       2.882   7.055  18.716  0.00  0.00    +0.000 A 
ATOM      6  C   UNL     1       3.740   7.495  17.720  0.00  0.00    +0.000 A 
ATOM      7  C   UNL     1       4.357   6.352  17.207  0.00  0.00    +0.000 A 
ATOM      8  N   UNL     1       3.877   5.240  17.749  0.00  0.00    +0.000 NA
ATOM      9  N   UNL     1       2.973   5.661  18.685  0.00  0.00    +0.000 N 
BRANCH   9  10
ATOM     10  C   UNL     1       2.325   4.668  19.482  0.00  0.00    +0.000 A 
ATOM     11  C   UNL     1       1.307   3.851  18.979  0.00  0.00    +0.000 A 
ATOM     12  C   UNL     1       0.724   2.871  19.791  0.00  0.00    +0.000 A 
ATOM     13  C   UNL     1       1.150   2.700  21.108  0.00  0.00    +0.000 A 
ATOM     14  C   UNL     1       2.145   3.526  21.624  0.00  0.00    +0.000 A 
ATOM     15  C   UNL     1       2.720   4.516  20.823  0.00  0.00    +0.000 A 
ENDBRANCH   9  10
BRANCH   7  16
ATOM     16  C   UNL     1       5.426   6.403  16.129  0.00  0.00    +0.000 C 
ATOM     17  C   UNL     1       5.963   5.092  15.593  0.00  0.00    +0.000 C 
ATOM     18  C   UNL     1       6.836   5.949  16.445  0.00  0.00    +0.000 C 
ENDBRANCH   7  16
ENDBRANCH   3   5
BRANCH   2  19
ATOM     19  C   UNL     1       0.476   9.764  19.783  0.00  0.00    +0.000 C 
BRANCH  19  20
ATOM     20  C   UNL     1      -0.500  10.593  19.027  0.00  0.00    +0.000 A 
ATOM     21  C   UNL     1      -0.433  11.991  18.812  0.00  0.00    +0.000 A 
ATOM     22  N   UNL     1      -1.515  12.476  18.197  0.00  0.00    +0.000 NA
ATOM     23  N   UNL     1      -2.287  11.386  18.008  0.00  0.00    +0.000 N 
ATOM     24  C   UNL     1      -1.710  10.235  18.468  0.00  0.00    +0.000 A 
BRANCH  23  25
ATOM     25  C   UNL     1      -3.642  11.524  17.494  0.00  0.00    +0.000 C 
BRANCH  25  26
ATOM     26  C   UNL     1      -4.648  11.653  18.607  0.00  0.00    +0.000 A 
ATOM     27  C   UNL     1      -4.382  12.460  19.722  0.00  0.00    +0.000 A 
ATOM     28  C   UNL     1      -5.310  12.557  20.760  0.00  0.00    +0.000 A 
ATOM     29  C   UNL     1      -6.510  11.852  20.692  0.00  0.00    +0.000 A 
ATOM     30  C   UNL     1      -6.784  11.045  19.590  0.00  0.00    +0.000 A 
ATOM     31  C   UNL     1      -5.856  10.941  18.554  0.00  0.00    +0.000 A 
ENDBRANCH  25  26
ENDBRANCH  23  25
ENDBRANCH  19  20
ENDBRANCH   2  19
TORSDOF 7
ENDMDL
MODEL 3
REMARK VINA RESULT:      -7.5      3.313      7.110
REMARK  Name = 
REMARK  8 active torsions:
REMARK  status: ('A' for Active; 'I' for Inactive)
REMARK    1  A    between atoms: C_1  and  N_2
REMARK    2  A    between atoms: N_2  and  C_3
REMARK    3  A    between atoms: C_3  and  C_4
REMARK    4  A    between atoms: N_7  and  C_8
REMARK    5  A    between atoms: C_8  and  C_9
REMARK    6  A    between atoms: C_16  and  C_18
REMARK    7  A    between atoms: C_20  and  C_21
REMARK    8  A    between atoms: N_25  and  C_26
REMARK                            x       y       z     vdW  Elec       q    Type
REMARK                         _______ _______ _______ _____ _____    ______ ____
ROOT
ATOM      1  C   UNL     1       1.915   9.027  17.931  0.00  0.00    +0.000 C 
ATOM      2  N   UNL     1       1.481   8.902  19.313  0.00  0.00    +0.000 N 
ATOM      3  C   UNL     1       0.449   9.645  19.903  0.00  0.00    +0.000 C 
ATOM      4  O   UNL     1       0.252   9.577  21.115  0.00  0.00    +0.000 OA
ENDROOT
BRANCH   3   5
ATOM      5  C   UNL     1      -0.400  10.456  19.054  0.00  0.00    +0.000 A 
ATOM      6  C   UNL     1      -1.487  10.072  18.284  0.00  0.00    +0.000 A 
ATOM      7  C   UNL     1      -1.906  11.219  17.606  0.00  0.00    +0.000 A 
ATOM      8  N   UNL     1      -1.105  12.252  17.830  0.00  0.00    +0.000 NA
ATOM      9  N   UNL     1      -0.178  11.797  18.726  0.00  0.00    +0.000 N 
BRANCH   9  10
ATOM     10  C   UNL     1       0.800  12.722  19.204  0.00  0.00    +0.000 A 
ATOM     11  C   UNL     1       0.665  13.392  20.425  0.00  0.00    +0.000 A 
ATOM     12  C   UNL     1       1.667  14.267  20.863  0.00  0.00    +0.000 A 
ATOM     13  C   UNL     1       2.806  14.480  20.089  0.00  0.00    +0.000 A 
ATOM     14  C   UNL     1       2.937  13.838  18.860  0.00  0.00    +0.000 A 
ATOM     15  C   UNL     1       1.933  12.975  18.411  0.00  0.00    +0.000 A 
ENDBRANCH   9  10
BRANCH   7  16
ATOM     16  C   UNL     1      -3.122  11.242  16.695  0.00  0.00    +0.000 C 
ATOM     17  C   UNL     1      -3.705   9.919  16.247  0.00  0.00    +0.000 C 
ATOM     18  C   UNL     1      -2.995  10.778  15.258  0.00  0.00    +0.000 C 
ENDBRANCH   7  16
ENDBRANCH   3   5
BRANCH   2  19
ATOM     19  C   UNL     1       2.170   7.906  20.130  0.00  0.00    +0.000 C 
BRANCH  19  20
ATOM     20  C   UNL     1       2.173   6.557  19.504  0.00  0.00    +0.000 A 
ATOM     21  C   UNL     1       1.712   5.353  20.090  0.00  0.00    +0.000 A 
ATOM     22  N   UNL     1       1.952   4.281  19.331  0.00  0.00    +0.000 NA
ATOM     23  N   UNL     1       2.568   4.791  18.245  0.00  0.00    +0.000 N 
ATOM     24  C   UNL     1       2.700   6.151  18.296  0.00  0.00    +0.000 A 
BRANCH  23  25
ATOM     25  C   UNL     1       3.133   3.908  17.236  0.00  0.00    +0.000 C 
BRANCH  25  26
ATOM     26  C   UNL     1       4.607   4.155  17.045  0.00  0.00    +0.000 A 
ATOM     27  C   UNL     1       5.453   4.327  18.150  0.00  0.00    +0.000 A 
ATOM     28  C   UNL     1       6.813   4.576  17.964  0.00  0.00    +0.000 A 
ATOM     29  C   UNL     1       7.340   4.654  16.676  0.00  0.00    +0.000 A 
ATOM     30  C   UNL     1       6.508   4.486  15.571  0.00  0.00    +0.000 A 
ATOM     31  C   UNL     1       5.147   4.243  15.753  0.00  0.00    +0.000 A 
ENDBRANCH  25  26
ENDBRANCH  23  25
ENDBRANCH  19  20
ENDBRANCH   2  19
TORSDOF 7
ENDMDL
MODEL 4
REMARK VINA RESULT:      -7.5      3.293     10.248
REMARK  Name = 
REMARK  8 active torsions:
REMARK  status: ('A' for Active; 'I' for Inactive)
REMARK    1  A    between atoms: C_1  and  N_2
REMARK    2  A    between atoms: N_2  and  C_3
REMARK    3  A    between atoms: C_3  and  C_4
REMARK    4  A    between atoms: N_7  and  C_8
REMARK    5  A    between atoms: C_8  and  C_9
REMARK    6  A    between atoms: C_16  and  C_18
REMARK    7  A    between atoms: C_20  and  C_21
REMARK    8  A    between atoms: N_25  and  C_26
REMARK                            x       y       z     vdW  Elec       q    Type
REMARK                         _______ _______ _______ _____ _____    ______ ____
ROOT
ATOM      1  C   UNL     1       1.444   8.722  20.212  0.00  0.00    +0.000 C 
ATOM      2  N   UNL     1       1.883   8.709  18.825  0.00  0.00    +0.000 N 
ATOM      3  C   UNL     1       2.614   7.676  18.223  0.00  0.00    +0.000 C 
ATOM      4  O   UNL     1       3.067   7.819  17.088  0.00  0.00    +0.000 OA
ENDROOT
BRANCH   3   5
ATOM      5  C   UNL     1       2.787   6.431  18.944  0.00  0.00    +0.000 A 
ATOM      6  C   UNL     1       2.091   5.955  20.044  0.00  0.00    +0.000 A 
ATOM      7  C   UNL     1       2.695   4.745  20.391  0.00  0.00    +0.000 A 
ATOM      8  N   UNL     1       3.762   4.488  19.646  0.00  0.00    +0.000 NA
ATOM      9  N   UNL     1       3.825   5.515  18.746  0.00  0.00    +0.000 N 
BRANCH   9  10
ATOM     10  C   UNL     1       4.858   5.479  17.761  0.00  0.00    +0.000 A 
ATOM     11  C   UNL     1       6.048   6.202  17.896  0.00  0.00    +0.000 A 
ATOM     12  C   UNL     1       7.045   6.108  16.917  0.00  0.00    +0.000 A 
ATOM     13  C   UNL     1       6.862   5.296  15.798  0.00  0.00    +0.000 A 
ATOM     14  C   UNL     1       5.670   4.593  15.644  0.00  0.00    +0.000 A 
ATOM     15  C   UNL     1       4.666   4.694  16.610  0.00  0.00    +0.000 A 
ENDBRANCH   9  10
BRANCH   7  16
ATOM     16  C   UNL     1       2.188   3.862  21.519  0.00  0.00    +0.000 C 
ATOM     17  C   UNL     1       2.617   2.410  21.538  0.00  0.00    +0.000 C 
ATOM     18  C   UNL     1       1.202   2.752  21.220  0.00  0.00    +0.000 C 
ENDBRANCH   7  16
ENDBRANCH   3   5
BRANCH   2  19
ATOM     19  C   UNL     1       1.505   9.857  18.006  0.00  0.00    +0.000 C 
BRANCH  19  20
ATOM     20  C   UNL     1       0.317  10.575  18.541  0.00  0.00    +0.000 A 
ATOM     21  C   UNL     1      -1.041  10.255  18.303  0.00  0.00    +0.000 A 
ATOM     22  N   UNL     1      -1.885  11.151  18.821  0.00  0.00    +0.000 NA
ATOM     23  N   UNL     1      -1.071  12.056  19.402  0.00  0.00    +0.000 N 
ATOM     24  C   UNL     1       0.254  11.739  19.279  0.00  0.00    +0.000 A 
BRANCH  23  25
ATOM     25  C   UNL     1      -1.615  13.287  19.955  0.00  0.00    +0.000 C 
BRANCH  25  26
ATOM     26  C   UNL     1      -2.475  13.021  21.163  0.00  0.00    +0.000 A 
ATOM     27  C   UNL     1      -3.818  13.424  21.187  0.00  0.00    +0.000 A 
ATOM     28  C   UNL     1      -4.602  13.191  22.318  0.00  0.00    +0.000 A 
ATOM     29  C   UNL     1      -4.054  12.556  23.431  0.00  0.00    +0.000 A 
ATOM     30  C   UNL     1      -2.720  12.154  23.418  0.00  0.00    +0.000 A 
ATOM     31  C   UNL     1      -1.932  12.389  22.291  0.00  0.00    +0.000 A 
ENDBRANCH  25  26
ENDBRANCH  23  25
ENDBRANCH  19  20
ENDBRANCH   2  19
TORSDOF 7
ENDMDL
MODEL 5
REMARK VINA RESULT:      -7.5      4.195      7.635
REMARK  Name = 
REMARK  8 active torsions:
REMARK  status: ('A' for Active; 'I' for Inactive)
REMARK    1  A    between atoms: C_1  and  N_2
REMARK    2  A    between atoms: N_2  and  C_3
REMARK    3  A    between atoms: C_3  and  C_4
REMARK    4  A    between atoms: N_7  and  C_8
REMARK    5  A    between atoms: C_8  and  C_9
REMARK    6  A    between atoms: C_16  and  C_18
REMARK    7  A    between atoms: C_20  and  C_21
REMARK    8  A    between atoms: N_25  and  C_26
REMARK                            x       y       z     vdW  Elec       q    Type
REMARK                         _______ _______ _______ _____ _____    ______ ____
ROOT
ATOM      1  C   UNL     1       1.573   9.058  18.517  0.00  0.00    +0.000 C 
ATOM      2  N   UNL     1       0.999   9.025  19.853  0.00  0.00    +0.000 N 
ATOM      3  C   UNL     1      -0.052   9.839  20.297  0.00  0.00    +0.000 C 
ATOM      4  O   UNL     1      -0.371   9.844  21.485  0.00  0.00    +0.000 OA
ENDROOT
BRANCH   3   5
ATOM      5  C   UNL     1      -0.775  10.637  19.327  0.00  0.00    +0.000 A 
ATOM      6  C   UNL     1      -1.845  10.277  18.524  0.00  0.00    +0.000 A 
ATOM      7  C   UNL     1      -2.120  11.387  17.723  0.00  0.00    +0.000 A 
ATOM      8  N   UNL     1      -1.245  12.366  17.909  0.00  0.00    +0.000 NA
ATOM      9  N   UNL     1      -0.415  11.919  18.900  0.00  0.00    +0.000 N 
BRANCH   9  10
ATOM     10  C   UNL     1       0.611  12.800  19.360  0.00  0.00    +0.000 A 
ATOM     11  C   UNL     1       0.558  13.426  20.610  0.00  0.00    +0.000 A 
ATOM     12  C   UNL     1       1.605  14.256  21.027  0.00  0.00    +0.000 A 
ATOM     13  C   UNL     1       2.709  14.470  20.202  0.00  0.00    +0.000 A 
ATOM     14  C   UNL     1       2.757  13.871  18.946  0.00  0.00    +0.000 A 
ATOM     15  C   UNL     1       1.708  13.053  18.518  0.00  0.00    +0.000 A 
ENDBRANCH   9  10
BRANCH   7  16
ATOM     16  C   UNL     1      -3.274  11.428  16.735  0.00  0.00    +0.000 C 
ATOM     17  C   UNL     1      -3.892  10.115  16.303  0.00  0.00    +0.000 C 
ATOM     18  C   UNL     1      -3.080  10.899  15.329  0.00  0.00    +0.000 C 
ENDBRANCH   7  16
ENDBRANCH   3   5
BRANCH   2  19
ATOM     19  C   UNL     1       1.557   8.048  20.784  0.00  0.00    +0.000 C 
BRANCH  19  20
ATOM     20  C   UNL     1       2.044   6.821  20.099  0.00  0.00    +0.000 A 
ATOM     21  C   UNL     1       1.749   5.482  20.453  0.00  0.00    +0.000 A 
ATOM     22  N   UNL     1       2.426   4.590  19.726  0.00  0.00    +0.000 NA
ATOM     23  N   UNL     1       3.162   5.353  18.892  0.00  0.00    +0.000 N 
ATOM     24  C   UNL     1       2.948   6.693  19.065  0.00  0.00    +0.000 A 
BRANCH  23  25
ATOM     25  C   UNL     1       4.164   4.745  18.029  0.00  0.00    +0.000 C 
BRANCH  25  26
ATOM     26  C   UNL     1       5.497   5.434  18.154  0.00  0.00    +0.000 A 
ATOM     27  C   UNL     1       6.340   5.169  19.243  0.00  0.00    +0.000 A 
ATOM     28  C   UNL     1       7.565   5.828  19.363  0.00  0.00    +0.000 A 
ATOM     29  C   UNL     1       7.958   6.754  18.398  0.00  0.00    +0.000 A 
ATOM     30  C   UNL     1       7.127   7.027  17.314  0.00  0.00    +0.000 A 
ATOM     31  C   UNL     1       5.900   6.374  17.194  0.00  0.00    +0.000 A 
ENDBRANCH  25  26
ENDBRANCH  23  25
ENDBRANCH  19  20
ENDBRANCH   2  19
TORSDOF 7
ENDMDL
MODEL 6
REMARK VINA RESULT:      -7.5      3.267      7.177
REMARK  Name = 
REMARK  8 active torsions:
REMARK  status: ('A' for Active; 'I' for Inactive)
REMARK    1  A    between atoms: C_1  and  N_2
REMARK    2  A    between atoms: N_2  and  C_3
REMARK    3  A    between atoms: C_3  and  C_4
REMARK    4  A    between atoms: N_7  and  C_8
REMARK    5  A    between atoms: C_8  and  C_9
REMARK    6  A    between atoms: C_16  and  C_18
REMARK    7  A    between atoms: C_20  and  C_21
REMARK    8  A    between atoms: N_25  and  C_26
REMARK                            x       y       z     vdW  Elec       q    Type
REMARK                         _______ _______ _______ _____ _____    ______ ____
ROOT
ATOM      1  C   UNL     1      -0.048   8.789  21.113  0.00  0.00    +0.000 C 
ATOM      2  N   UNL     1       0.988   8.840  20.094  0.00  0.00    +0.000 N 
ATOM      3  C   UNL     1       0.907   9.570  18.900  0.00  0.00    +0.000 C 
ATOM      4  O   UNL     1       1.768   9.435  18.032  0.00  0.00    +0.000 OA
ENDROOT
BRANCH   3   5
ATOM      5  C   UNL     1      -0.183  10.511  18.730  0.00  0.00    +0.000 A 
ATOM      6  C   UNL     1      -1.485  10.273  18.316  0.00  0.00    +0.000 A 
ATOM      7  C   UNL     1      -2.105  11.522  18.254  0.00  0.00    +0.000 A 
ATOM      8  N   UNL     1      -1.260  12.513  18.509  0.00  0.00    +0.000 NA
ATOM      9  N   UNL     1      -0.075  11.902  18.811  0.00  0.00    +0.000 N 
BRANCH   9  10
ATOM     10  C   UNL     1       1.026  12.730  19.188  0.00  0.00    +0.000 A 
ATOM     11  C   UNL     1       1.315  13.030  20.524  0.00  0.00    +0.000 A 
ATOM     12  C   UNL     1       2.425  13.821  20.844  0.00  0.00    +0.000 A 
ATOM     13  C   UNL     1       3.251  14.319  19.838  0.00  0.00    +0.000 A 
ATOM     14  C   UNL     1       2.956  14.047  18.505  0.00  0.00    +0.000 A 
ATOM     15  C   UNL     1       1.841  13.270  18.178  0.00  0.00    +0.000 A 
ENDBRANCH   9  10
BRANCH   7  16
ATOM     16  C   UNL     1      -3.571  11.700  17.898  0.00  0.00    +0.000 C 
ATOM     17  C   UNL     1      -4.414  10.458  17.700  0.00  0.00    +0.000 C 
ATOM     18  C   UNL     1      -4.065  11.302  16.522  0.00  0.00    +0.000 C 
ENDBRANCH   7  16
ENDBRANCH   3   5
BRANCH   2  19
ATOM     19  C   UNL     1       2.209   8.084  20.360  0.00  0.00    +0.000 C 
BRANCH  19  20
ATOM     20  C   UNL     1       2.169   6.713  19.786  0.00  0.00    +0.000 A 
ATOM     21  C   UNL     1       1.720   5.538  20.435  0.00  0.00    +0.000 A 
ATOM     22  N   UNL     1       1.914   4.435  19.708  0.00  0.00    +0.000 NA
ATOM     23  N   UNL     1       2.489   4.896  18.578  0.00  0.00    +0.000 N 
ATOM     24  C   UNL     1       2.639   6.256  18.572  0.00  0.00    +0.000 A 
BRANCH  23  25
ATOM     25  C   UNL     1       2.999   3.969  17.580  0.00  0.00    +0.000 C 
BRANCH  25  26
ATOM     26  C   UNL     1       4.460   4.204  17.299  0.00  0.00    +0.000 A 
ATOM     27  C   UNL     1       4.947   4.191  15.984  0.00  0.00    +0.000 A 
ATOM     28  C   UNL     1       6.306   4.390  15.734  0.00  0.00    +0.000 A 
ATOM     29  C   UNL     1       7.187   4.604  16.792  0.00  0.00    +0.000 A 
ATOM     30  C   UNL     1       6.714   4.617  18.102  0.00  0.00    +0.000 A 
ATOM     31  C   UNL     1       5.358   4.413  18.356  0.00  0.00    +0.000 A 
ENDBRANCH  25  26
ENDBRANCH  23  25
ENDBRANCH  19  20
ENDBRANCH   2  19
TORSDOF 7
ENDMDL
MODEL 7
REMARK VINA RESULT:      -7.4      3.278      7.235
REMARK  Name = 
REMARK  8 active torsions:
REMARK  status: ('A' for Active; 'I' for Inactive)
REMARK    1  A    between atoms: C_1  and  N_2
REMARK    2  A    between atoms: N_2  and  C_3
REMARK    3  A    between atoms: C_3  and  C_4
REMARK    4  A    between atoms: N_7  and  C_8
REMARK    5  A    between atoms: C_8  and  C_9
REMARK    6  A    between atoms: C_16  and  C_18
REMARK    7  A    between atoms: C_20  and  C_21
REMARK    8  A    between atoms: N_25  and  C_26
REMARK                            x       y       z     vdW  Elec       q    Type
REMARK                         _______ _______ _______ _____ _____    ______ ____
ROOT
ATOM      1  C   UNL     1      -0.046   8.782  21.185  0.00  0.00    +0.000 C 
ATOM      2  N   UNL     1       0.979   8.851  20.155  0.00  0.00    +0.000 N 
ATOM      3  C   UNL     1       0.879   9.590  18.968  0.00  0.00    +0.000 C 
ATOM      4  O   UNL     1       1.732   9.470  18.091  0.00  0.00    +0.000 OA
ENDROOT
BRANCH   3   5
ATOM      5  C   UNL     1      -0.222  10.520  18.816  0.00  0.00    +0.000 A 
ATOM      6  C   UNL     1      -1.537  10.266  18.458  0.00  0.00    +0.000 A 
ATOM      7  C   UNL     1      -2.167  11.510  18.389  0.00  0.00    +0.000 A 
ATOM      8  N   UNL     1      -1.319  12.511  18.588  0.00  0.00    +0.000 NA
ATOM      9  N   UNL     1      -0.119  11.914  18.859  0.00  0.00    +0.000 N 
BRANCH   9  10
ATOM     10  C   UNL     1       0.990  12.756  19.174  0.00  0.00    +0.000 A 
ATOM     11  C   UNL     1       1.969  13.091  18.232  0.00  0.00    +0.000 A 
ATOM     12  C   UNL     1       3.021  13.946  18.582  0.00  0.00    +0.000 A 
ATOM     13  C   UNL     1       3.106  14.469  19.872  0.00  0.00    +0.000 A 
ATOM     14  C   UNL     1       2.151  14.120  20.823  0.00  0.00    +0.000 A 
ATOM     15  C   UNL     1       1.107  13.256  20.484  0.00  0.00    +0.000 A 
ENDBRANCH   9  10
BRANCH   7  16
ATOM     16  C   UNL     1      -3.647  11.672  18.085  0.00  0.00    +0.000 C 
ATOM     17  C   UNL     1      -4.440  10.436  17.715  0.00  0.00    +0.000 C 
ATOM     18  C   UNL     1      -4.152  11.461  16.672  0.00  0.00    +0.000 C 
ENDBRANCH   7  16
ENDBRANCH   3   5
BRANCH   2  19
ATOM     19  C   UNL     1       2.211   8.106  20.403  0.00  0.00    +0.000 C 
BRANCH  19  20
ATOM     20  C   UNL     1       2.179   6.740  19.818  0.00  0.00    +0.000 A 
ATOM     21  C   UNL     1       1.786   5.548  20.473  0.00  0.00    +0.000 A 
ATOM     22  N   UNL     1       1.975   4.457  19.728  0.00  0.00    +0.000 NA
ATOM     23  N   UNL     1       2.491   4.942  18.580  0.00  0.00    +0.000 N 
ATOM     24  C   UNL     1       2.609   6.304  18.581  0.00  0.00    +0.000 A 
BRANCH  23  25
ATOM     25  C   UNL     1       2.981   4.036  17.552  0.00  0.00    +0.000 C 
BRANCH  25  26
ATOM     26  C   UNL     1       4.456   4.218  17.309  0.00  0.00    +0.000 A 
ATOM     27  C   UNL     1       5.333   4.460  18.377  0.00  0.00    +0.000 A 
ATOM     28  C   UNL     1       6.696   4.649  18.141  0.00  0.00    +0.000 A 
ATOM     29  C   UNL     1       7.194   4.597  16.840  0.00  0.00    +0.000 A 
ATOM     30  C   UNL     1       6.331   4.360  15.772  0.00  0.00    +0.000 A 
ATOM     31  C   UNL     1       4.968   4.176  16.004  0.00  0.00    +0.000 A 
ENDBRANCH  25  26
ENDBRANCH  23  25
ENDBRANCH  19  20
ENDBRANCH   2  19
TORSDOF 7
ENDMDL
MODEL 8
REMARK VINA RESULT:      -7.4      3.306      7.122
REMARK  Name = 
REMARK  8 active torsions:
REMARK  status: ('A' for Active; 'I' for Inactive)
REMARK    1  A    between atoms: C_1  and  N_2
REMARK    2  A    between atoms: N_2  and  C_3
REMARK    3  A    between atoms: C_3  and  C_4
REMARK    4  A    between atoms: N_7  and  C_8
REMARK    5  A    between atoms: C_8  and  C_9
REMARK    6  A    between atoms: C_16  and  C_18
REMARK    7  A    between atoms: C_20  and  C_21
REMARK    8  A    between atoms: N_25  and  C_26
REMARK                            x       y       z     vdW  Elec       q    Type
REMARK                         _______ _______ _______ _____ _____    ______ ____
ROOT
ATOM      1  C   UNL     1       1.783   8.787  18.085  0.00  0.00    +0.000 C 
ATOM      2  N   UNL     1       1.414   8.768  19.491  0.00  0.00    +0.000 N 
ATOM      3  C   UNL     1       0.474   9.619  20.087  0.00  0.00    +0.000 C 
ATOM      4  O   UNL     1       0.335   9.629  21.309  0.00  0.00    +0.000 OA
ENDROOT
BRANCH   3   5
ATOM      5  C   UNL     1      -0.354  10.451  19.236  0.00  0.00    +0.000 A 
ATOM      6  C   UNL     1      -1.460  10.097  18.479  0.00  0.00    +0.000 A 
ATOM      7  C   UNL     1      -1.844  11.250  17.791  0.00  0.00    +0.000 A 
ATOM      8  N   UNL     1      -1.006  12.257  17.998  0.00  0.00    +0.000 NA
ATOM      9  N   UNL     1      -0.088  11.779  18.892  0.00  0.00    +0.000 N 
BRANCH   9  10
ATOM     10  C   UNL     1       0.925  12.675  19.352  0.00  0.00    +0.000 A 
ATOM     11  C   UNL     1       2.012  13.051  18.555  0.00  0.00    +0.000 A 
ATOM     12  C   UNL     1       2.963  13.956  19.041  0.00  0.00    +0.000 A 
ATOM     13  C   UNL     1       2.838  14.490  20.323  0.00  0.00    +0.000 A 
ATOM     14  C   UNL     1       1.774  14.102  21.132  0.00  0.00    +0.000 A 
ATOM     15  C   UNL     1       0.830  13.187  20.658  0.00  0.00    +0.000 A 
ENDBRANCH   9  10
BRANCH   7  16
ATOM     16  C   UNL     1      -3.066  11.306  16.890  0.00  0.00    +0.000 C 
ATOM     17  C   UNL     1      -3.628  10.001  16.365  0.00  0.00    +0.000 C 
ATOM     18  C   UNL     1      -2.939  10.932  15.427  0.00  0.00    +0.000 C 
ENDBRANCH   7  16
ENDBRANCH   3   5
BRANCH   2  19
ATOM     19  C   UNL     1       2.065   7.764  20.328  0.00  0.00    +0.000 C 
BRANCH  19  20
ATOM     20  C   UNL     1       2.109   6.424  19.684  0.00  0.00    +0.000 A 
ATOM     21  C   UNL     1       1.786   5.185  20.288  0.00  0.00    +0.000 A 
ATOM     22  N   UNL     1       2.034   4.139  19.496  0.00  0.00    +0.000 NA
ATOM     23  N   UNL     1       2.516   4.702  18.369  0.00  0.00    +0.000 N 
ATOM     24  C   UNL     1       2.556   6.067  18.428  0.00  0.00    +0.000 A 
BRANCH  23  25
ATOM     25  C   UNL     1       3.052   3.870  17.301  0.00  0.00    +0.000 C 
BRANCH  25  26
ATOM     26  C   UNL     1       4.510   4.155  17.055  0.00  0.00    +0.000 A 
ATOM     27  C   UNL     1       5.021   4.190  15.749  0.00  0.00    +0.000 A 
ATOM     28  C   UNL     1       6.378   4.435  15.530  0.00  0.00    +0.000 A 
ATOM     29  C   UNL     1       7.233   4.647  16.610  0.00  0.00    +0.000 A 
ATOM     30  C   UNL     1       6.736   4.611  17.911  0.00  0.00    +0.000 A 
ATOM     31  C   UNL     1       5.382   4.362  18.134  0.00  0.00    +0.000 A 
ENDBRANCH  25  26
ENDBRANCH  23  25
ENDBRANCH  19  20
ENDBRANCH   2  19
TORSDOF 7
ENDMDL
MODEL 9
REMARK VINA RESULT:      -7.4      3.630      9.816
REMARK  Name = 
REMARK  8 active torsions:
REMARK  status: ('A' for Active; 'I' for Inactive)
REMARK    1  A    between atoms: C_1  and  N_2
REMARK    2  A    between atoms: N_2  and  C_3
REMARK    3  A    between atoms: C_3  and  C_4
REMARK    4  A    between atoms: N_7  and  C_8
REMARK    5  A    between atoms: C_8  and  C_9
REMARK    6  A    between atoms: C_16  and  C_18
REMARK    7  A    between atoms: C_20  and  C_21
REMARK    8  A    between atoms: N_25  and  C_26
REMARK                            x       y       z     vdW  Elec       q    Type
REMARK                         _______ _______ _______ _____ _____    ______ ____
ROOT
ATOM      1  C   UNL     1       1.161   8.884  20.529  0.00  0.00    +0.000 C 
ATOM      2  N   UNL     1       1.635   8.988  19.158  0.00  0.00    +0.000 N 
ATOM      3  C   UNL     1       2.398   8.018  18.495  0.00  0.00    +0.000 C 
ATOM      4  O   UNL     1       2.877   8.259  17.388  0.00  0.00    +0.000 OA
ENDROOT
BRANCH   3   5
ATOM      5  C   UNL     1       2.574   6.722  19.119  0.00  0.00    +0.000 A 
ATOM      6  C   UNL     1       1.843   6.140  20.143  0.00  0.00    +0.000 A 
ATOM      7  C   UNL     1       2.465   4.920  20.417  0.00  0.00    +0.000 A 
ATOM      8  N   UNL     1       3.571   4.752  19.704  0.00  0.00    +0.000 NA
ATOM      9  N   UNL     1       3.645   5.852  18.895  0.00  0.00    +0.000 N 
BRANCH   9  10
ATOM     10  C   UNL     1       4.722   5.922  17.960  0.00  0.00    +0.000 A 
ATOM     11  C   UNL     1       4.565   5.590  16.610  0.00  0.00    +0.000 A 
ATOM     12  C   UNL     1       5.645   5.705  15.726  0.00  0.00    +0.000 A 
ATOM     13  C   UNL     1       6.886   6.149  16.181  0.00  0.00    +0.000 A 
ATOM     14  C   UNL     1       7.057   6.457  17.529  0.00  0.00    +0.000 A 
ATOM     15  C   UNL     1       5.987   6.330  18.418  0.00  0.00    +0.000 A 
ENDBRANCH   9  10
BRANCH   7  16
ATOM     16  C   UNL     1       1.934   3.934  21.444  0.00  0.00    +0.000 C 
ATOM     17  C   UNL     1       2.648   2.607  21.597  0.00  0.00    +0.000 C 
ATOM     18  C   UNL     1       1.290   2.643  20.984  0.00  0.00    +0.000 C 
ENDBRANCH   7  16
ENDBRANCH   3   5
BRANCH   2  19
ATOM     19  C   UNL     1       1.258  10.193  18.423  0.00  0.00    +0.000 C 
BRANCH  19  20
ATOM     20  C   UNL     1      -0.215  10.379  18.346  0.00  0.00    +0.000 A 
ATOM     21  C   UNL     1      -1.002  11.241  19.148  0.00  0.00    +0.000 A 
ATOM     22  N   UNL     1      -2.312  11.105  18.928  0.00  0.00    +0.000 NA
ATOM     23  N   UNL     1      -2.377  10.152  17.975  0.00  0.00    +0.000 N 
ATOM     24  C   UNL     1      -1.146   9.706  17.581  0.00  0.00    +0.000 A 
BRANCH  23  25
ATOM     25  C   UNL     1      -3.662   9.607  17.565  0.00  0.00    +0.000 C 
BRANCH  25  26
ATOM     26  C   UNL     1      -4.763  10.628  17.691  0.00  0.00    +0.000 A 
ATOM     27  C   UNL     1      -5.796  10.455  18.624  0.00  0.00    +0.000 A 
ATOM     28  C   UNL     1      -6.823  11.395  18.720  0.00  0.00    +0.000 A 
ATOM     29  C   UNL     1      -6.828  12.513  17.887  0.00  0.00    +0.000 A 
ATOM     30  C   UNL     1      -5.808  12.692  16.955  0.00  0.00    +0.000 A 
ATOM     31  C   UNL     1      -4.783  11.753  16.853  0.00  0.00    +0.000 A 
ENDBRANCH  25  26
ENDBRANCH  23  25
ENDBRANCH  19  20
ENDBRANCH   2  19
TORSDOF 7
ENDMDL
