MODEL 1
REMARK VINA RESULT:      -8.3      0.000      0.000
REMARK  Name = 
REMARK  4 active torsions:
REMARK  status: ('A' for Active; 'I' for Inactive)
REMARK    1  A    between atoms: S_2  and  N_4
REMARK    2  A    between atoms: S_2  and  C_14
REMARK    3  A    between atoms: N_4  and  C_5
REMARK    4  A    between atoms: C_16  and  C_17
REMARK                            x       y       z     vdW  Elec       q    Type
REMARK                         _______ _______ _______ _____ _____    ______ ____
ROOT
ATOM      1  O   UNL     1       1.934   3.471  16.809  0.00  0.00    +0.000 OA
ATOM      2  S   UNL     1       2.117   3.263  18.231  0.00  0.00    +0.000 S 
ATOM      3  O   UNL     1       1.223   2.399  18.972  0.00  0.00    +0.000 OA
ENDROOT
BRANCH   2   4
ATOM      4  C   UNL     1       2.078   4.869  18.998  0.00  0.00    +0.000 A 
ATOM      5  C   UNL     1       2.115   6.017  18.185  0.00  0.00    +0.000 A 
ATOM      6  C   UNL     1       2.036   7.301  18.756  0.00  0.00    +0.000 A 
ATOM      7  C   UNL     1       1.917   7.415  20.148  0.00  0.00    +0.000 A 
ATOM      8  C   UNL     1       1.899   6.273  20.954  0.00  0.00    +0.000 A 
ATOM      9  C   UNL     1       1.991   4.999  20.387  0.00  0.00    +0.000 A 
ATOM     10 CL   UNL     1       1.929   3.663  21.481  0.00  0.00    +0.000 Cl
BRANCH   6  11
ATOM     11  C   UNL     1       2.062   8.553  17.901  0.00  0.00    +0.000 C 
ATOM     12  F   UNL     1       2.456   9.665  18.577  0.00  0.00    +0.000 F 
ATOM     13  F   UNL     1       2.911   8.433  16.844  0.00  0.00    +0.000 F 
ATOM     14  F   UNL     1       0.842   8.844  17.373  0.00  0.00    +0.000 F 
ENDBRANCH   6  11
ENDBRANCH   2   4
BRANCH   2  15
ATOM     15  N   UNL     1       3.715   2.730  18.480  0.00  0.00    +0.000 N 
ATOM     16  H   UNL     1       3.786   1.728  18.280  0.00  0.00    +0.000 HD
BRANCH  15  17
ATOM     17  C   UNL     1       4.761   3.540  17.951  0.00  0.00    +0.000 A 
ATOM     18  C   UNL     1       5.422   4.435  18.793  0.00  0.00    +0.000 A 
ATOM     19  C   UNL     1       6.408   5.302  18.300  0.00  0.00    +0.000 A 
ATOM     20  C   UNL     1       6.683   5.233  16.932  0.00  0.00    +0.000 A 
ATOM     21  N   UNL     1       7.554   5.931  16.137  0.00  0.00    +0.000 N 
ATOM     22  N   UNL     1       7.527   5.568  14.842  0.00  0.00    +0.000 NA
ATOM     23  C   UNL     1       6.605   4.605  14.807  0.00  0.00    +0.000 A 
ATOM     24  C   UNL     1       6.039   4.349  16.075  0.00  0.00    +0.000 A 
ATOM     25  C   UNL     1       5.063   3.478  16.586  0.00  0.00    +0.000 A 
ATOM     26  H   UNL     1       8.192   6.668  16.416  0.00  0.00    +0.000 HD
ENDBRANCH  15  17
ENDBRANCH   2  15
TORSDOF 4
ENDMDL
MODEL 2
REMARK VINA RESULT:      -8.1      1.107      1.864
REMARK  Name = 
REMARK  4 active torsions:
REMARK  status: ('A' for Active; 'I' for Inactive)
REMARK    1  A    between atoms: S_2  and  N_4
REMARK    2  A    between atoms: S_2  and  C_14
REMARK    3  A    between atoms: N_4  and  C_5
REMARK    4  A    between atoms: C_16  and  C_17
REMARK                            x       y       z     vdW  Elec       q    Type
REMARK                         _______ _______ _______ _____ _____    ______ ____
ROOT
ATOM      1  O   UNL     1       2.174   3.227  16.520  0.00  0.00    +0.000 OA
ATOM      2  S   UNL     1       2.721   2.909  17.824  0.00  0.00    +0.000 S 
ATOM      3  O   UNL     1       2.249   1.756  18.561  0.00  0.00    +0.000 OA
ENDROOT
BRANCH   2   4
ATOM      4  C   UNL     1       2.481   4.344  18.850  0.00  0.00    +0.000 A 
ATOM      5  C   UNL     1       2.439   5.615  18.249  0.00  0.00    +0.000 A 
ATOM      6  C   UNL     1       2.201   6.766  19.025  0.00  0.00    +0.000 A 
ATOM      7  C   UNL     1       2.006   6.621  20.406  0.00  0.00    +0.000 A 
ATOM      8  C   UNL     1       2.068   5.358  21.001  0.00  0.00    +0.000 A 
ATOM      9  C   UNL     1       2.317   4.218  20.232  0.00  0.00    +0.000 A 
ATOM     10 CL   UNL     1       2.341   2.710  21.075  0.00  0.00    +0.000 Cl
BRANCH   6  11
ATOM     11  C   UNL     1       2.138   8.146  18.400  0.00  0.00    +0.000 C 
ATOM     12  F   UNL     1       3.329   8.571  17.900  0.00  0.00    +0.000 F 
ATOM     13  F   UNL     1       1.255   8.199  17.366  0.00  0.00    +0.000 F 
ATOM     14  F   UNL     1       1.739   9.097  19.286  0.00  0.00    +0.000 F 
ENDBRANCH   6  11
ENDBRANCH   2   4
BRANCH   2  15
ATOM     15  N   UNL     1       4.412   2.796  17.667  0.00  0.00    +0.000 N 
ATOM     16  H   UNL     1       4.658   2.013  17.054  0.00  0.00    +0.000 HD
BRANCH  15  17
ATOM     17  C   UNL     1       5.126   4.008  17.434  0.00  0.00    +0.000 A 
ATOM     18  C   UNL     1       5.015   4.636  16.194  0.00  0.00    +0.000 A 
ATOM     19  C   UNL     1       5.754   5.790  15.895  0.00  0.00    +0.000 A 
ATOM     20  C   UNL     1       6.610   6.266  16.891  0.00  0.00    +0.000 A 
ATOM     21  N   UNL     1       7.469   7.334  16.926  0.00  0.00    +0.000 N 
ATOM     22  N   UNL     1       8.134   7.465  18.088  0.00  0.00    +0.000 NA
ATOM     23  C   UNL     1       7.686   6.445  18.821  0.00  0.00    +0.000 A 
ATOM     24  C   UNL     1       6.736   5.659  18.134  0.00  0.00    +0.000 A 
ATOM     25  C   UNL     1       5.980   4.511  18.422  0.00  0.00    +0.000 A 
ATOM     26  H   UNL     1       7.649   8.007  16.190  0.00  0.00    +0.000 HD
ENDBRANCH  15  17
ENDBRANCH   2  15
TORSDOF 4
ENDMDL
MODEL 3
REMARK VINA RESULT:      -7.8      3.895      6.153
REMARK  Name = 
REMARK  4 active torsions:
REMARK  status: ('A' for Active; 'I' for Inactive)
REMARK    1  A    between atoms: S_2  and  N_4
REMARK    2  A    between atoms: S_2  and  C_14
REMARK    3  A    between atoms: N_4  and  C_5
REMARK    4  A    between atoms: C_16  and  C_17
REMARK                            x       y       z     vdW  Elec       q    Type
REMARK                         _______ _______ _______ _____ _____    ______ ____
ROOT
ATOM      1  O   UNL     1       2.721   3.636  20.870  0.00  0.00    +0.000 OA
ATOM      2  S   UNL     1       2.504   4.639  19.847  0.00  0.00    +0.000 S 
ATOM      3  O   UNL     1       1.299   4.628  19.046  0.00  0.00    +0.000 OA
ENDROOT
BRANCH   2   4
ATOM      4  C   UNL     1       3.894   4.555  18.737  0.00  0.00    +0.000 A 
ATOM      5  C   UNL     1       5.133   5.078  19.151  0.00  0.00    +0.000 A 
ATOM      6  C   UNL     1       6.264   4.984  18.318  0.00  0.00    +0.000 A 
ATOM      7  C   UNL     1       6.133   4.358  17.070  0.00  0.00    +0.000 A 
ATOM      8  C   UNL     1       4.896   3.858  16.654  0.00  0.00    +0.000 A 
ATOM      9  C   UNL     1       3.771   3.964  17.477  0.00  0.00    +0.000 A 
ATOM     10 CL   UNL     1       2.304   3.282  16.869  0.00  0.00    +0.000 Cl
BRANCH   6  11
ATOM     11  C   UNL     1       7.613   5.528  18.746  0.00  0.00    +0.000 C 
ATOM     12  F   UNL     1       7.948   6.694  18.132  0.00  0.00    +0.000 F 
ATOM     13  F   UNL     1       7.663   5.776  20.082  0.00  0.00    +0.000 F 
ATOM     14  F   UNL     1       8.627   4.658  18.486  0.00  0.00    +0.000 F 
ENDBRANCH   6  11
ENDBRANCH   2   4
BRANCH   2  15
ATOM     15  N   UNL     1       2.655   6.170  20.577  0.00  0.00    +0.000 N 
ATOM     16  H   UNL     1       3.599   6.285  20.960  0.00  0.00    +0.000 HD
BRANCH  15  17
ATOM     17  C   UNL     1       2.142   7.287  19.857  0.00  0.00    +0.000 A 
ATOM     18  C   UNL     1       2.507   7.463  18.521  0.00  0.00    +0.000 A 
ATOM     19  C   UNL     1       2.084   8.585  17.795  0.00  0.00    +0.000 A 
ATOM     20  C   UNL     1       1.297   9.517  18.475  0.00  0.00    +0.000 A 
ATOM     21  N   UNL     1       0.740  10.707  18.081  0.00  0.00    +0.000 N 
ATOM     22  N   UNL     1       0.035  11.328  19.044  0.00  0.00    +0.000 NA
ATOM     23  C   UNL     1       0.145  10.508  20.090  0.00  0.00    +0.000 A 
ATOM     24  C   UNL     1       0.919   9.363  19.803  0.00  0.00    +0.000 A 
ATOM     25  C   UNL     1       1.340   8.227  20.514  0.00  0.00    +0.000 A 
ATOM     26  H   UNL     1       0.807  11.150  17.172  0.00  0.00    +0.000 HD
ENDBRANCH  15  17
ENDBRANCH   2  15
TORSDOF 4
ENDMDL
MODEL 4
REMARK VINA RESULT:      -7.7      3.727      6.097
REMARK  Name = 
REMARK  4 active torsions:
REMARK  status: ('A' for Active; 'I' for Inactive)
REMARK    1  A    between atoms: S_2  and  N_4
REMARK    2  A    between atoms: S_2  and  C_14
REMARK    3  A    between atoms: N_4  and  C_5
REMARK    4  A    between atoms: C_16  and  C_17
REMARK                            x       y       z     vdW  Elec       q    Type
REMARK                         _______ _______ _______ _____ _____    ______ ____
ROOT
ATOM      1  O   UNL     1       2.855   3.841  20.604  0.00  0.00    +0.000 OA
ATOM      2  S   UNL     1       2.585   4.848  19.598  0.00  0.00    +0.000 S 
ATOM      3  O   UNL     1       1.312   4.879  18.908  0.00  0.00    +0.000 OA
ENDROOT
BRANCH   2   4
ATOM      4  C   UNL     1       3.864   4.708  18.368  0.00  0.00    +0.000 A 
ATOM      5  C   UNL     1       4.910   5.649  18.357  0.00  0.00    +0.000 A 
ATOM      6  C   UNL     1       5.963   5.539  17.430  0.00  0.00    +0.000 A 
ATOM      7  C   UNL     1       5.952   4.473  16.519  0.00  0.00    +0.000 A 
ATOM      8  C   UNL     1       4.901   3.551  16.520  0.00  0.00    +0.000 A 
ATOM      9  C   UNL     1       3.849   3.669  17.432  0.00  0.00    +0.000 A 
ATOM     10 CL   UNL     1       2.624   2.454  17.357  0.00  0.00    +0.000 Cl
BRANCH   6  11
ATOM     11  C   UNL     1       7.108   6.533  17.406  0.00  0.00    +0.000 C 
ATOM     12  F   UNL     1       6.708   7.825  17.541  0.00  0.00    +0.000 F 
ATOM     13  F   UNL     1       8.001   6.308  18.408  0.00  0.00    +0.000 F 
ATOM     14  F   UNL     1       7.819   6.476  16.248  0.00  0.00    +0.000 F 
ENDBRANCH   6  11
ENDBRANCH   2   4
BRANCH   2  15
ATOM     15  N   UNL     1       2.857   6.375  20.299  0.00  0.00    +0.000 N 
ATOM     16  H   UNL     1       3.860   6.513  20.463  0.00  0.00    +0.000 HD
BRANCH  15  17
ATOM     17  C   UNL     1       2.168   7.485  19.731  0.00  0.00    +0.000 A 
ATOM     18  C   UNL     1       2.396   7.817  18.395  0.00  0.00    +0.000 A 
ATOM     19  C   UNL     1       1.794   8.942  17.814  0.00  0.00    +0.000 A 
ATOM     20  C   UNL     1       0.973   9.716  18.638  0.00  0.00    +0.000 A 
ATOM     21  N   UNL     1       0.261  10.863  18.404  0.00  0.00    +0.000 N 
ATOM     22  N   UNL     1      -0.421  11.313  19.473  0.00  0.00    +0.000 NA
ATOM     23  C   UNL     1      -0.134  10.424  20.423  0.00  0.00    +0.000 A 
ATOM     24  C   UNL     1       0.730   9.404  19.970  0.00  0.00    +0.000 A 
ATOM     25  C   UNL     1       1.330   8.266  20.534  0.00  0.00    +0.000 A 
ATOM     26  H   UNL     1       0.202  11.389  17.539  0.00  0.00    +0.000 HD
ENDBRANCH  15  17
ENDBRANCH   2  15
TORSDOF 4
ENDMDL
MODEL 5
REMARK VINA RESULT:      -7.7      3.845      6.141
REMARK  Name = 
REMARK  4 active torsions:
REMARK  status: ('A' for Active; 'I' for Inactive)
REMARK    1  A    between atoms: S_2  and  N_4
REMARK    2  A    between atoms: S_2  and  C_14
REMARK    3  A    between atoms: N_4  and  C_5
REMARK    4  A    between atoms: C_16  and  C_17
REMARK                            x       y       z     vdW  Elec       q    Type
REMARK                         _______ _______ _______ _____ _____    ______ ____
ROOT
ATOM      1  O   UNL     1       2.413   4.256  21.665  0.00  0.00    +0.000 OA
ATOM      2  S   UNL     1       1.982   4.965  20.477  0.00  0.00    +0.000 S 
ATOM      3  O   UNL     1       0.575   5.183  20.218  0.00  0.00    +0.000 OA
ENDROOT
BRANCH   2   4
ATOM      4  C   UNL     1       2.662   4.095  19.080  0.00  0.00    +0.000 A 
ATOM      5  C   UNL     1       3.858   4.558  18.501  0.00  0.00    +0.000 A 
ATOM      6  C   UNL     1       4.449   3.865  17.427  0.00  0.00    +0.000 A 
ATOM      7  C   UNL     1       3.824   2.705  16.947  0.00  0.00    +0.000 A 
ATOM      8  C   UNL     1       2.625   2.260  17.511  0.00  0.00    +0.000 A 
ATOM      9  C   UNL     1       2.033   2.956  18.569  0.00  0.00    +0.000 A 
ATOM     10 CL   UNL     1       0.570   2.293  19.204  0.00  0.00    +0.000 Cl
BRANCH   6  11
ATOM     11  C   UNL     1       5.743   4.336  16.795  0.00  0.00    +0.000 C 
ATOM     12  F   UNL     1       6.184   3.528  15.794  0.00  0.00    +0.000 F 
ATOM     13  F   UNL     1       5.626   5.579  16.254  0.00  0.00    +0.000 F 
ATOM     14  F   UNL     1       6.761   4.412  17.695  0.00  0.00    +0.000 F 
ENDBRANCH   6  11
ENDBRANCH   2   4
BRANCH   2  15
ATOM     15  N   UNL     1       2.778   6.469  20.449  0.00  0.00    +0.000 N 
ATOM     16  H   UNL     1       3.759   6.343  20.179  0.00  0.00    +0.000 HD
BRANCH  15  17
ATOM     17  C   UNL     1       2.100   7.552  19.818  0.00  0.00    +0.000 A 
ATOM     18  C   UNL     1       2.301   7.782  18.457  0.00  0.00    +0.000 A 
ATOM     19  C   UNL     1       1.711   8.877  17.810  0.00  0.00    +0.000 A 
ATOM     20  C   UNL     1       0.929   9.728  18.596  0.00  0.00    +0.000 A 
ATOM     21  N   UNL     1       0.238  10.873  18.297  0.00  0.00    +0.000 N 
ATOM     22  N   UNL     1      -0.406  11.415  19.346  0.00  0.00    +0.000 NA
ATOM     23  C   UNL     1      -0.116  10.589  20.351  0.00  0.00    +0.000 A 
ATOM     24  C   UNL     1       0.713   9.518  19.953  0.00  0.00    +0.000 A 
ATOM     25  C   UNL     1       1.300   8.409  20.583  0.00  0.00    +0.000 A 
ATOM     26  H   UNL     1       0.169  11.336  17.398  0.00  0.00    +0.000 HD
ENDBRANCH  15  17
ENDBRANCH   2  15
TORSDOF 4
ENDMDL
MODEL 6
REMARK VINA RESULT:      -7.4      3.755      6.228
REMARK  Name = 
REMARK  4 active torsions:
REMARK  status: ('A' for Active; 'I' for Inactive)
REMARK    1  A    between atoms: S_2  and  N_4
REMARK    2  A    between atoms: S_2  and  C_14
REMARK    3  A    between atoms: N_4  and  C_5
REMARK    4  A    between atoms: C_16  and  C_17
REMARK                            x       y       z     vdW  Elec       q    Type
REMARK                         _______ _______ _______ _____ _____    ______ ____
ROOT
ATOM      1  O   UNL     1       3.784   3.045  19.249  0.00  0.00    +0.000 OA
ATOM      2  S   UNL     1       3.589   4.241  18.454  0.00  0.00    +0.000 S 
ATOM      3  O   UNL     1       2.426   4.378  17.603  0.00  0.00    +0.000 OA
ENDROOT
BRANCH   2   4
ATOM      4  C   UNL     1       5.034   4.423  17.430  0.00  0.00    +0.000 A 
ATOM      5  C   UNL     1       4.946   4.115  16.060  0.00  0.00    +0.000 A 
ATOM      6  C   UNL     1       6.056   4.294  15.213  0.00  0.00    +0.000 A 
ATOM      7  C   UNL     1       7.249   4.788  15.760  0.00  0.00    +0.000 A 
ATOM      8  C   UNL     1       7.339   5.075  17.125  0.00  0.00    +0.000 A 
ATOM      9  C   UNL     1       6.240   4.883  17.967  0.00  0.00    +0.000 A 
ATOM     10 CL   UNL     1       6.461   5.301  19.629  0.00  0.00    +0.000 Cl
BRANCH   6  11
ATOM     11  C   UNL     1       5.983   3.982  13.732  0.00  0.00    +0.000 C 
ATOM     12  F   UNL     1       6.335   2.704  13.428  0.00  0.00    +0.000 F 
ATOM     13  F   UNL     1       4.729   4.156  13.233  0.00  0.00    +0.000 F 
ATOM     14  F   UNL     1       6.797   4.784  12.993  0.00  0.00    +0.000 F 
ENDBRANCH   6  11
ENDBRANCH   2   4
BRANCH   2  15
ATOM     15  N   UNL     1       3.656   5.582  19.500  0.00  0.00    +0.000 N 
ATOM     16  H   UNL     1       4.618   5.727  19.823  0.00  0.00    +0.000 HD
BRANCH  15  17
ATOM     17  C   UNL     1       2.957   6.757  19.098  0.00  0.00    +0.000 A 
ATOM     18  C   UNL     1       3.229   7.317  17.850  0.00  0.00    +0.000 A 
ATOM     19  C   UNL     1       2.618   8.512  17.442  0.00  0.00    +0.000 A 
ATOM     20  C   UNL     1       1.741   9.113  18.348  0.00  0.00    +0.000 A 
ATOM     21  N   UNL     1       1.004  10.267  18.280  0.00  0.00    +0.000 N 
ATOM     22  N   UNL     1       0.265  10.512  19.377  0.00  0.00    +0.000 NA
ATOM     23  C   UNL     1       0.540   9.479  20.175  0.00  0.00    +0.000 A 
ATOM     24  C   UNL     1       1.453   8.572  19.595  0.00  0.00    +0.000 A 
ATOM     25  C   UNL     1       2.063   7.369  19.983  0.00  0.00    +0.000 A 
ATOM     26  H   UNL     1       0.964  10.931  17.515  0.00  0.00    +0.000 HD
ENDBRANCH  15  17
ENDBRANCH   2  15
TORSDOF 4
ENDMDL
MODEL 7
REMARK VINA RESULT:      -7.4      4.633      7.061
REMARK  Name = 
REMARK  4 active torsions:
REMARK  status: ('A' for Active; 'I' for Inactive)
REMARK    1  A    between atoms: S_2  and  N_4
REMARK    2  A    between atoms: S_2  and  C_14
REMARK    3  A    between atoms: N_4  and  C_5
REMARK    4  A    between atoms: C_16  and  C_17
REMARK                            x       y       z     vdW  Elec       q    Type
REMARK                         _______ _______ _______ _____ _____    ______ ____
ROOT
ATOM      1  O   UNL     1       4.617   5.618  17.477  0.00  0.00    +0.000 OA
ATOM      2  S   UNL     1       5.492   4.478  17.297  0.00  0.00    +0.000 S 
ATOM      3  O   UNL     1       6.544   4.197  18.250  0.00  0.00    +0.000 OA
ENDROOT
BRANCH   2   4
ATOM      4  C   UNL     1       6.247   4.655  15.694  0.00  0.00    +0.000 A 
ATOM      5  C   UNL     1       5.844   3.802  14.650  0.00  0.00    +0.000 A 
ATOM      6  C   UNL     1       6.385   3.947  13.358  0.00  0.00    +0.000 A 
ATOM      7  C   UNL     1       7.331   4.957  13.132  0.00  0.00    +0.000 A 
ATOM      8  C   UNL     1       7.743   5.789  14.176  0.00  0.00    +0.000 A 
ATOM      9  C   UNL     1       7.215   5.636  15.461  0.00  0.00    +0.000 A 
ATOM     10 CL   UNL     1       7.779   6.742  16.663  0.00  0.00    +0.000 Cl
BRANCH   6  11
ATOM     11  C   UNL     1       5.958   3.050  12.213  0.00  0.00    +0.000 C 
ATOM     12  F   UNL     1       6.940   2.832  11.298  0.00  0.00    +0.000 F 
ATOM     13  F   UNL     1       5.566   1.821  12.646  0.00  0.00    +0.000 F 
ATOM     14  F   UNL     1       4.903   3.561  11.522  0.00  0.00    +0.000 F 
ENDBRANCH   6  11
ENDBRANCH   2   4
BRANCH   2  15
ATOM     15  N   UNL     1       4.519   3.091  17.139  0.00  0.00    +0.000 N 
ATOM     16  H   UNL     1       5.106   2.265  16.987  0.00  0.00    +0.000 HD
BRANCH  15  17
ATOM     17  C   UNL     1       3.460   2.929  18.079  0.00  0.00    +0.000 A 
ATOM     18  C   UNL     1       2.139   2.967  17.630  0.00  0.00    +0.000 A 
ATOM     19  C   UNL     1       1.064   2.883  18.526  0.00  0.00    +0.000 A 
ATOM     20  C   UNL     1       1.382   2.775  19.883  0.00  0.00    +0.000 A 
ATOM     21  N   UNL     1       0.595   2.692  21.003  0.00  0.00    +0.000 N 
ATOM     22  N   UNL     1       1.287   2.599  22.153  0.00  0.00    +0.000 NA
ATOM     23  C   UNL     1       2.559   2.624  21.755  0.00  0.00    +0.000 A 
ATOM     24  C   UNL     1       2.688   2.734  20.354  0.00  0.00    +0.000 A 
ATOM     25  C   UNL     1       3.753   2.806  19.441  0.00  0.00    +0.000 A 
ATOM     26  H   UNL     1      -0.417   2.697  21.050  0.00  0.00    +0.000 HD
ENDBRANCH  15  17
ENDBRANCH   2  15
TORSDOF 4
ENDMDL
MODEL 8
REMARK VINA RESULT:      -7.3      3.872      4.714
REMARK  Name = 
REMARK  4 active torsions:
REMARK  status: ('A' for Active; 'I' for Inactive)
REMARK    1  A    between atoms: S_2  and  N_4
REMARK    2  A    between atoms: S_2  and  C_14
REMARK    3  A    between atoms: N_4  and  C_5
REMARK    4  A    between atoms: C_16  and  C_17
REMARK                            x       y       z     vdW  Elec       q    Type
REMARK                         _______ _______ _______ _____ _____    ______ ____
ROOT
ATOM      1  O   UNL     1       7.034   5.422  20.074  0.00  0.00    +0.000 OA
ATOM      2  S   UNL     1       6.536   5.557  18.721  0.00  0.00    +0.000 S 
ATOM      3  O   UNL     1       6.705   6.796  17.992  0.00  0.00    +0.000 OA
ENDROOT
BRANCH   2   4
ATOM      4  C   UNL     1       4.794   5.192  18.772  0.00  0.00    +0.000 A 
ATOM      5  C   UNL     1       4.314   4.274  19.724  0.00  0.00    +0.000 A 
ATOM      6  C   UNL     1       2.937   4.000  19.825  0.00  0.00    +0.000 A 
ATOM      7  C   UNL     1       2.053   4.661  18.960  0.00  0.00    +0.000 A 
ATOM      8  C   UNL     1       2.535   5.557  18.002  0.00  0.00    +0.000 A 
ATOM      9  C   UNL     1       3.904   5.818  17.895  0.00  0.00    +0.000 A 
ATOM     10 CL   UNL     1       4.377   6.967  16.694  0.00  0.00    +0.000 Cl
BRANCH   6  11
ATOM     11  C   UNL     1       2.394   3.025  20.850  0.00  0.00    +0.000 C 
ATOM     12  F   UNL     1       3.363   2.354  21.528  0.00  0.00    +0.000 F 
ATOM     13  F   UNL     1       1.634   3.646  21.793  0.00  0.00    +0.000 F 
ATOM     14  F   UNL     1       1.597   2.075  20.290  0.00  0.00    +0.000 F 
ENDBRANCH   6  11
ENDBRANCH   2   4
BRANCH   2  15
ATOM     15  N   UNL     1       7.191   4.289  17.794  0.00  0.00    +0.000 N 
ATOM     16  H   UNL     1       7.096   3.400  18.296  0.00  0.00    +0.000 HD
BRANCH  15  17
ATOM     17  C   UNL     1       6.855   4.253  16.409  0.00  0.00    +0.000 A 
ATOM     18  C   UNL     1       5.731   3.535  16.000  0.00  0.00    +0.000 A 
ATOM     19  C   UNL     1       5.403   3.413  14.642  0.00  0.00    +0.000 A 
ATOM     20  C   UNL     1       6.260   4.031  13.728  0.00  0.00    +0.000 A 
ATOM     21  N   UNL     1       6.245   4.095  12.358  0.00  0.00    +0.000 N 
ATOM     22  N   UNL     1       7.263   4.799  11.831  0.00  0.00    +0.000 NA
ATOM     23  C   UNL     1       7.952   5.198  12.900  0.00  0.00    +0.000 A 
ATOM     24  C   UNL     1       7.383   4.753  14.112  0.00  0.00    +0.000 A 
ATOM     25  C   UNL     1       7.691   4.876  15.476  0.00  0.00    +0.000 A 
ATOM     26  H   UNL     1       5.570   3.677  11.727  0.00  0.00    +0.000 HD
ENDBRANCH  15  17
ENDBRANCH   2  15
TORSDOF 4
ENDMDL
MODEL 9
REMARK VINA RESULT:      -7.3      4.081      6.769
REMARK  Name = 
REMARK  4 active torsions:
REMARK  status: ('A' for Active; 'I' for Inactive)
REMARK    1  A    between atoms: S_2  and  N_4
REMARK    2  A    between atoms: S_2  and  C_14
REMARK    3  A    between atoms: N_4  and  C_5
REMARK    4  A    between atoms: C_16  and  C_17
REMARK                            x       y       z     vdW  Elec       q    Type
REMARK                         _______ _______ _______ _____ _____    ______ ____
ROOT
ATOM      1  O   UNL     1       2.570   4.853  21.552  0.00  0.00    +0.000 OA
ATOM      2  S   UNL     1       1.998   5.466  20.370  0.00  0.00    +0.000 S 
ATOM      3  O   UNL     1       0.567   5.452  20.152  0.00  0.00    +0.000 OA
ENDROOT
BRANCH   2   4
ATOM      4  C   UNL     1       2.769   4.694  18.963  0.00  0.00    +0.000 A 
ATOM      5  C   UNL     1       3.596   5.466  18.127  0.00  0.00    +0.000 A 
ATOM      6  C   UNL     1       4.260   4.876  17.034  0.00  0.00    +0.000 A 
ATOM      7  C   UNL     1       4.082   3.506  16.796  0.00  0.00    +0.000 A 
ATOM      8  C   UNL     1       3.244   2.747  17.617  0.00  0.00    +0.000 A 
ATOM      9  C   UNL     1       2.575   3.336  18.694  0.00  0.00    +0.000 A 
ATOM     10 CL   UNL     1       1.591   2.291  19.655  0.00  0.00    +0.000 Cl
BRANCH   6  11
ATOM     11  C   UNL     1       5.167   5.683  16.126  0.00  0.00    +0.000 C 
ATOM     12  F   UNL     1       5.288   5.162  14.877  0.00  0.00    +0.000 F 
ATOM     13  F   UNL     1       4.723   6.959  15.962  0.00  0.00    +0.000 F 
ATOM     14  F   UNL     1       6.432   5.785  16.617  0.00  0.00    +0.000 F 
ENDBRANCH   6  11
ENDBRANCH   2   4
BRANCH   2  15
ATOM     15  N   UNL     1       2.541   7.077  20.301  0.00  0.00    +0.000 N 
ATOM     16  H   UNL     1       3.130   7.215  19.474  0.00  0.00    +0.000 HD
BRANCH  15  17
ATOM     17  C   UNL     1       1.580   8.100  20.551  0.00  0.00    +0.000 A 
ATOM     18  C   UNL     1       1.182   8.930  19.503  0.00  0.00    +0.000 A 
ATOM     19  C   UNL     1       0.293   9.993  19.716  0.00  0.00    +0.000 A 
ATOM     20  C   UNL     1      -0.158  10.185  21.025  0.00  0.00    +0.000 A 
ATOM     21  N   UNL     1      -1.000  11.117  21.575  0.00  0.00    +0.000 N 
ATOM     22  N   UNL     1      -1.194  10.967  22.898  0.00  0.00    +0.000 NA
ATOM     23  C   UNL     1      -0.450   9.903  23.204  0.00  0.00    +0.000 A 
ATOM     24  C   UNL     1       0.222   9.370  22.084  0.00  0.00    +0.000 A 
ATOM     25  C   UNL     1       1.103   8.301  21.851  0.00  0.00    +0.000 A 
ATOM     26  H   UNL     1      -1.470  11.880  21.103  0.00  0.00    +0.000 HD
ENDBRANCH  15  17
ENDBRANCH   2  15
TORSDOF 4
ENDMDL
