MODEL 1
REMARK VINA RESULT:      -8.6      0.000      0.000
REMARK  Name = 
REMARK  6 active torsions:
REMARK  status: ('A' for Active; 'I' for Inactive)
REMARK    1  A    between atoms: C_1  and  C_2
REMARK    2  A    between atoms: N_10  and  C_11
REMARK    3  A    between atoms: C_11  and  C_12
REMARK    4  A    between atoms: N_14  and  C_15
REMARK    5  A    between atoms: N_19  and  C_20
REMARK    6  A    between atoms: C_20  and  C_21
REMARK                            x       y       z     vdW  Elec       q    Type
REMARK                         _______ _______ _______ _____ _____    ______ ____
ROOT
ATOM      1  C   UNL     1       3.762   3.315  17.222  0.00  0.00    +0.000 C 
ATOM      2  O   UNL     1       2.927   4.055  16.713  0.00  0.00    +0.000 OA
ATOM      3  N   UNL     1       3.691   2.939  18.616  0.00  0.00    +0.000 N 
ATOM      4  H   UNL     1       4.538   2.546  19.017  0.00  0.00    +0.000 HD
ENDROOT
BRANCH   3   5
ATOM      5  C   UNL     1       2.655   3.273  19.485  0.00  0.00    +0.000 A 
ATOM      6  C   UNL     1       1.558   2.514  19.827  0.00  0.00    +0.000 A 
ATOM      7  C   UNL     1       0.804   3.315  20.701  0.00  0.00    +0.000 A 
ATOM      8  N   UNL     1       1.366   4.504  20.913  0.00  0.00    +0.000 NA
ATOM      9  N   UNL     1       2.497   4.467  20.168  0.00  0.00    +0.000 N 
BRANCH   9  10
ATOM     10  C   UNL     1       3.289   5.687  20.054  0.00  0.00    +0.000 C 
BRANCH  10  11
ATOM     11  C   UNL     1       2.527   6.875  19.511  0.00  0.00    +0.000 A 
ATOM     12  C   UNL     1       2.584   7.227  18.152  0.00  0.00    +0.000 A 
ATOM     13  C   UNL     1       1.988   8.406  17.689  0.00  0.00    +0.000 A 
ATOM     14  C   UNL     1       1.328   9.254  18.578  0.00  0.00    +0.000 A 
ATOM     15  C   UNL     1       1.262   8.914  19.924  0.00  0.00    +0.000 A 
ATOM     16 CL   UNL     1       0.472   9.967  21.033  0.00  0.00    +0.000 Cl
ATOM     17  C   UNL     1       1.852   7.737  20.392  0.00  0.00    +0.000 A 
ENDBRANCH  10  11
ENDBRANCH   9  10
ENDBRANCH   3   5
BRANCH   1  18
ATOM     18  C   UNL     1       5.036   2.836  16.494  0.00  0.00    +0.000 C 
BRANCH  18  28
ATOM     19  C   UNL     1       7.690   6.781  17.800  0.00  0.00    +0.000 C 
ATOM     20  C   UNL     1       6.959   6.041  16.692  0.00  0.00    +0.000 C 
ATOM     21  O   UNL     1       7.733   6.070  15.504  0.00  0.00    +0.000 OA
ATOM     22  C   UNL     1       7.247   5.231  14.528  0.00  0.00    +0.000 A 
ATOM     23  C   UNL     1       7.775   5.445  13.252  0.00  0.00    +0.000 A 
ATOM     24  C   UNL     1       7.400   4.616  12.199  0.00  0.00    +0.000 A 
ATOM     25  C   UNL     1       6.499   3.577  12.423  0.00  0.00    +0.000 A 
ATOM     26  C   UNL     1       5.961   3.366  13.700  0.00  0.00    +0.000 A 
ATOM     27  C   UNL     1       6.324   4.190  14.775  0.00  0.00    +0.000 A 
ATOM     28  N   UNL     1       5.875   3.963  16.110  0.00  0.00    +0.000 N 
ATOM     29  C   UNL     1       6.578   4.624  17.119  0.00  0.00    +0.000 C 
ATOM     30  O   UNL     1       6.726   4.144  18.242  0.00  0.00    +0.000 OA
ENDBRANCH  18  28
ENDBRANCH   1  18
TORSDOF 5
ENDMDL
MODEL 2
REMARK VINA RESULT:      -8.2      3.983      6.276
REMARK  Name = 
REMARK  6 active torsions:
REMARK  status: ('A' for Active; 'I' for Inactive)
REMARK    1  A    between atoms: C_1  and  C_2
REMARK    2  A    between atoms: N_10  and  C_11
REMARK    3  A    between atoms: C_11  and  C_12
REMARK    4  A    between atoms: N_14  and  C_15
REMARK    5  A    between atoms: N_19  and  C_20
REMARK    6  A    between atoms: C_20  and  C_21
REMARK                            x       y       z     vdW  Elec       q    Type
REMARK                         _______ _______ _______ _____ _____    ______ ____
ROOT
ATOM      1  C   UNL     1       2.026   8.429  18.438  0.00  0.00    +0.000 C 
ATOM      2  O   UNL     1       1.903   8.326  19.653  0.00  0.00    +0.000 OA
ATOM      3  N   UNL     1       1.683   9.649  17.743  0.00  0.00    +0.000 N 
ATOM      4  H   UNL     1       1.569   9.573  16.736  0.00  0.00    +0.000 HD
ENDROOT
BRANCH   3   5
ATOM      5  C   UNL     1       1.287  10.836  18.355  0.00  0.00    +0.000 A 
ATOM      6  C   UNL     1       2.048  11.958  18.599  0.00  0.00    +0.000 A 
ATOM      7  C   UNL     1       1.194  12.853  19.265  0.00  0.00    +0.000 A 
ATOM      8  N   UNL     1      -0.028  12.353  19.441  0.00  0.00    +0.000 NA
ATOM      9  N   UNL     1       0.039  11.123  18.880  0.00  0.00    +0.000 N 
BRANCH   9  10
ATOM     10  C   UNL     1      -1.107  10.231  19.030  0.00  0.00    +0.000 C 
BRANCH  10  11
ATOM     11  C   UNL     1      -2.130  10.342  17.922  0.00  0.00    +0.000 A 
ATOM     12  C   UNL     1      -1.906   9.779  16.654  0.00  0.00    +0.000 A 
ATOM     13  C   UNL     1      -2.795  10.006  15.598  0.00  0.00    +0.000 A 
ATOM     14  C   UNL     1      -3.924  10.803  15.791  0.00  0.00    +0.000 A 
ATOM     15  C   UNL     1      -4.158  11.362  17.042  0.00  0.00    +0.000 A 
ATOM     16 CL   UNL     1      -5.534  12.368  17.284  0.00  0.00    +0.000 Cl
ATOM     17  C   UNL     1      -3.275  11.136  18.102  0.00  0.00    +0.000 A 
ENDBRANCH  10  11
ENDBRANCH   9  10
ENDBRANCH   3   5
BRANCH   1  18
ATOM     18  C   UNL     1       2.405   7.250  17.514  0.00  0.00    +0.000 C 
BRANCH  18  28
ATOM     19  C   UNL     1       2.685   3.242  20.372  0.00  0.00    +0.000 C 
ATOM     20  C   UNL     1       3.385   4.475  19.827  0.00  0.00    +0.000 C 
ATOM     21  O   UNL     1       4.713   4.147  19.452  0.00  0.00    +0.000 OA
ATOM     22  C   UNL     1       5.332   5.150  18.743  0.00  0.00    +0.000 A 
ATOM     23  C   UNL     1       6.717   5.013  18.617  0.00  0.00    +0.000 A 
ATOM     24  C   UNL     1       7.440   5.937  17.869  0.00  0.00    +0.000 A 
ATOM     25  C   UNL     1       6.778   6.994  17.249  0.00  0.00    +0.000 A 
ATOM     26  C   UNL     1       5.390   7.140  17.380  0.00  0.00    +0.000 A 
ATOM     27  C   UNL     1       4.642   6.220  18.130  0.00  0.00    +0.000 A 
ATOM     28  N   UNL     1       3.219   6.272  18.222  0.00  0.00    +0.000 N 
ATOM     29  C   UNL     1       2.589   5.119  18.693  0.00  0.00    +0.000 C 
ATOM     30  O   UNL     1       1.469   4.779  18.314  0.00  0.00    +0.000 OA
ENDBRANCH  18  28
ENDBRANCH   1  18
TORSDOF 5
ENDMDL
MODEL 3
REMARK VINA RESULT:      -8.2      4.018      6.325
REMARK  Name = 
REMARK  6 active torsions:
REMARK  status: ('A' for Active; 'I' for Inactive)
REMARK    1  A    between atoms: C_1  and  C_2
REMARK    2  A    between atoms: N_10  and  C_11
REMARK    3  A    between atoms: C_11  and  C_12
REMARK    4  A    between atoms: N_14  and  C_15
REMARK    5  A    between atoms: N_19  and  C_20
REMARK    6  A    between atoms: C_20  and  C_21
REMARK                            x       y       z     vdW  Elec       q    Type
REMARK                         _______ _______ _______ _____ _____    ______ ____
ROOT
ATOM      1  C   UNL     1       2.058   8.214  18.437  0.00  0.00    +0.000 C 
ATOM      2  O   UNL     1       2.069   8.211  19.663  0.00  0.00    +0.000 OA
ATOM      3  N   UNL     1       1.696   9.395  17.687  0.00  0.00    +0.000 N 
ATOM      4  H   UNL     1       1.465   9.249  16.708  0.00  0.00    +0.000 HD
ENDROOT
BRANCH   3   5
ATOM      5  C   UNL     1       1.426  10.645  18.239  0.00  0.00    +0.000 A 
ATOM      6  C   UNL     1       2.300  11.692  18.431  0.00  0.00    +0.000 A 
ATOM      7  C   UNL     1       1.545  12.703  19.050  0.00  0.00    +0.000 A 
ATOM      8  N   UNL     1       0.278  12.342  19.247  0.00  0.00    +0.000 NA
ATOM      9  N   UNL     1       0.215  11.085  18.746  0.00  0.00    +0.000 N 
BRANCH   9  10
ATOM     10  C   UNL     1      -1.016  10.326  18.935  0.00  0.00    +0.000 C 
BRANCH  10  11
ATOM     11  C   UNL     1      -2.135  10.713  17.994  0.00  0.00    +0.000 A 
ATOM     12  C   UNL     1      -3.296  11.354  18.456  0.00  0.00    +0.000 A 
ATOM     13  C   UNL     1      -4.382  11.582  17.602  0.00  0.00    +0.000 A 
ATOM     14  C   UNL     1      -4.325  11.167  16.272  0.00  0.00    +0.000 A 
ATOM     15  C   UNL     1      -3.180  10.535  15.802  0.00  0.00    +0.000 A 
ATOM     16 CL   UNL     1      -3.110   9.997  14.168  0.00  0.00    +0.000 Cl
ATOM     17  C   UNL     1      -2.092  10.308  16.649  0.00  0.00    +0.000 A 
ENDBRANCH  10  11
ENDBRANCH   9  10
ENDBRANCH   3   5
BRANCH   1  18
ATOM     18  C   UNL     1       2.276   6.950  17.577  0.00  0.00    +0.000 C 
BRANCH  18  28
ATOM     19  C   UNL     1       2.813   2.949  20.408  0.00  0.00    +0.000 C 
ATOM     20  C   UNL     1       3.444   4.210  19.843  0.00  0.00    +0.000 C 
ATOM     21  O   UNL     1       4.770   3.935  19.420  0.00  0.00    +0.000 OA
ATOM     22  C   UNL     1       5.324   4.963  18.693  0.00  0.00    +0.000 A 
ATOM     23  C   UNL     1       6.708   4.880  18.518  0.00  0.00    +0.000 A 
ATOM     24  C   UNL     1       7.368   5.834  17.748  0.00  0.00    +0.000 A 
ATOM     25  C   UNL     1       6.643   6.866  17.155  0.00  0.00    +0.000 A 
ATOM     26  C   UNL     1       5.256   6.956  17.336  0.00  0.00    +0.000 A 
ATOM     27  C   UNL     1       4.572   6.007  18.110  0.00  0.00    +0.000 A 
ATOM     28  N   UNL     1       3.152   6.003  18.252  0.00  0.00    +0.000 N 
ATOM     29  C   UNL     1       2.584   4.825  18.741  0.00  0.00    +0.000 C 
ATOM     30  O   UNL     1       1.465   4.442  18.400  0.00  0.00    +0.000 OA
ENDBRANCH  18  28
ENDBRANCH   1  18
TORSDOF 5
ENDMDL
MODEL 4
REMARK VINA RESULT:      -8.0      2.203      3.701
REMARK  Name = 
REMARK  6 active torsions:
REMARK  status: ('A' for Active; 'I' for Inactive)
REMARK    1  A    between atoms: C_1  and  C_2
REMARK    2  A    between atoms: N_10  and  C_11
REMARK    3  A    between atoms: C_11  and  C_12
REMARK    4  A    between atoms: N_14  and  C_15
REMARK    5  A    between atoms: N_19  and  C_20
REMARK    6  A    between atoms: C_20  and  C_21
REMARK                            x       y       z     vdW  Elec       q    Type
REMARK                         _______ _______ _______ _____ _____    ______ ____
ROOT
ATOM      1  C   UNL     1       2.889   4.908  17.511  0.00  0.00    +0.000 C 
ATOM      2  O   UNL     1       1.692   4.706  17.340  0.00  0.00    +0.000 OA
ATOM      3  N   UNL     1       3.380   6.175  18.003  0.00  0.00    +0.000 N 
ATOM      4  H   UNL     1       4.373   6.350  17.876  0.00  0.00    +0.000 HD
ENDROOT
BRANCH   3   5
ATOM      5  C   UNL     1       2.581   7.237  18.421  0.00  0.00    +0.000 A 
ATOM      6  C   UNL     1       2.215   8.355  17.705  0.00  0.00    +0.000 A 
ATOM      7  C   UNL     1       1.441   9.129  18.586  0.00  0.00    +0.000 A 
ATOM      8  N   UNL     1       1.313   8.560  19.783  0.00  0.00    +0.000 NA
ATOM      9  N   UNL     1       2.010   7.405  19.672  0.00  0.00    +0.000 N 
BRANCH   9  10
ATOM     10  C   UNL     1       2.201   6.593  20.869  0.00  0.00    +0.000 C 
BRANCH  10  11
ATOM     11  C   UNL     1       2.067   5.104  20.639  0.00  0.00    +0.000 A 
ATOM     12  C   UNL     1       0.812   4.495  20.476  0.00  0.00    +0.000 A 
ATOM     13  C   UNL     1       0.692   3.102  20.403  0.00  0.00    +0.000 A 
ATOM     14  C   UNL     1       1.826   2.295  20.494  0.00  0.00    +0.000 A 
ATOM     15  C   UNL     1       3.074   2.887  20.651  0.00  0.00    +0.000 A 
ATOM     16 CL   UNL     1       4.477   1.899  20.790  0.00  0.00    +0.000 Cl
ATOM     17  C   UNL     1       3.200   4.277  20.722  0.00  0.00    +0.000 A 
ENDBRANCH  10  11
ENDBRANCH   9  10
ENDBRANCH   3   5
BRANCH   1  18
ATOM     18  C   UNL     1       3.993   3.914  17.088  0.00  0.00    +0.000 C 
BRANCH  18  28
ATOM     19  C   UNL     1       7.897   6.714  18.199  0.00  0.00    +0.000 C 
ATOM     20  C   UNL     1       6.959   6.198  17.122  0.00  0.00    +0.000 C 
ATOM     21  O   UNL     1       7.703   5.837  15.970  0.00  0.00    +0.000 OA
ATOM     22  C   UNL     1       6.954   5.152  15.041  0.00  0.00    +0.000 A 
ATOM     23  C   UNL     1       7.539   5.044  13.777  0.00  0.00    +0.000 A 
ATOM     24  C   UNL     1       6.899   4.320  12.776  0.00  0.00    +0.000 A 
ATOM     25  C   UNL     1       5.676   3.707  13.040  0.00  0.00    +0.000 A 
ATOM     26  C   UNL     1       5.082   3.821  14.305  0.00  0.00    +0.000 A 
ATOM     27  C   UNL     1       5.710   4.547  15.328  0.00  0.00    +0.000 A 
ATOM     28  N   UNL     1       5.193   4.619  16.655  0.00  0.00    +0.000 N 
ATOM     29  C   UNL     1       6.077   5.063  17.640  0.00  0.00    +0.000 C 
ATOM     30  O   UNL     1       6.025   4.663  18.802  0.00  0.00    +0.000 OA
ENDBRANCH  18  28
ENDBRANCH   1  18
TORSDOF 5
ENDMDL
MODEL 5
REMARK VINA RESULT:      -7.9      3.870      6.620
REMARK  Name = 
REMARK  6 active torsions:
REMARK  status: ('A' for Active; 'I' for Inactive)
REMARK    1  A    between atoms: C_1  and  C_2
REMARK    2  A    between atoms: N_10  and  C_11
REMARK    3  A    between atoms: C_11  and  C_12
REMARK    4  A    between atoms: N_14  and  C_15
REMARK    5  A    between atoms: N_19  and  C_20
REMARK    6  A    between atoms: C_20  and  C_21
REMARK                            x       y       z     vdW  Elec       q    Type
REMARK                         _______ _______ _______ _____ _____    ______ ____
ROOT
ATOM      1  C   UNL     1       2.062   7.673  18.405  0.00  0.00    +0.000 C 
ATOM      2  O   UNL     1       2.249   7.752  19.614  0.00  0.00    +0.000 OA
ATOM      3  N   UNL     1       1.655   8.821  17.626  0.00  0.00    +0.000 N 
ATOM      4  H   UNL     1       1.279   8.624  16.702  0.00  0.00    +0.000 HD
ENDROOT
BRANCH   3   5
ATOM      5  C   UNL     1       1.531  10.119  18.115  0.00  0.00    +0.000 A 
ATOM      6  C   UNL     1       2.509  11.083  18.216  0.00  0.00    +0.000 A 
ATOM      7  C   UNL     1       1.882  12.195  18.802  0.00  0.00    +0.000 A 
ATOM      8  N   UNL     1       0.595  11.973  19.063  0.00  0.00    +0.000 NA
ATOM      9  N   UNL     1       0.390  10.704  18.637  0.00  0.00    +0.000 N 
BRANCH   9  10
ATOM     10  C   UNL     1      -0.901  10.082  18.912  0.00  0.00    +0.000 C 
BRANCH  10  11
ATOM     11  C   UNL     1      -2.024  10.560  18.020  0.00  0.00    +0.000 A 
ATOM     12  C   UNL     1      -3.125  11.263  18.535  0.00  0.00    +0.000 A 
ATOM     13  C   UNL     1      -4.222  11.578  17.725  0.00  0.00    +0.000 A 
ATOM     14  C   UNL     1      -4.237  11.193  16.384  0.00  0.00    +0.000 A 
ATOM     15  C   UNL     1      -3.150  10.501  15.861  0.00  0.00    +0.000 A 
ATOM     16 CL   UNL     1      -3.170   9.999  14.215  0.00  0.00    +0.000 Cl
ATOM     17  C   UNL     1      -2.051  10.186  16.665  0.00  0.00    +0.000 A 
ENDBRANCH  10  11
ENDBRANCH   9  10
ENDBRANCH   3   5
BRANCH   1  18
ATOM     18  C   UNL     1       2.090   6.343  17.620  0.00  0.00    +0.000 C 
BRANCH  18  28
ATOM     19  C   UNL     1       6.741   4.746  17.979  0.00  0.00    +0.000 C 
ATOM     20  C   UNL     1       5.266   4.449  18.193  0.00  0.00    +0.000 C 
ATOM     21  O   UNL     1       5.083   3.810  19.446  0.00  0.00    +0.000 OA
ATOM     22  C   UNL     1       3.759   3.716  19.810  0.00  0.00    +0.000 A 
ATOM     23  C   UNL     1       3.500   2.838  20.866  0.00  0.00    +0.000 A 
ATOM     24  C   UNL     1       2.205   2.709  21.359  0.00  0.00    +0.000 A 
ATOM     25  C   UNL     1       1.173   3.456  20.795  0.00  0.00    +0.000 A 
ATOM     26  C   UNL     1       1.428   4.331  19.730  0.00  0.00    +0.000 A 
ATOM     27  C   UNL     1       2.726   4.476  19.218  0.00  0.00    +0.000 A 
ATOM     28  N   UNL     1       3.054   5.416  18.196  0.00  0.00    +0.000 N 
ATOM     29  C   UNL     1       4.410   5.704  18.034  0.00  0.00    +0.000 C 
ATOM     30  O   UNL     1       4.811   6.809  17.672  0.00  0.00    +0.000 OA
ENDBRANCH  18  28
ENDBRANCH   1  18
TORSDOF 5
ENDMDL
MODEL 6
REMARK VINA RESULT:      -7.9      3.374      5.522
REMARK  Name = 
REMARK  6 active torsions:
REMARK  status: ('A' for Active; 'I' for Inactive)
REMARK    1  A    between atoms: C_1  and  C_2
REMARK    2  A    between atoms: N_10  and  C_11
REMARK    3  A    between atoms: C_11  and  C_12
REMARK    4  A    between atoms: N_14  and  C_15
REMARK    5  A    between atoms: N_19  and  C_20
REMARK    6  A    between atoms: C_20  and  C_21
REMARK                            x       y       z     vdW  Elec       q    Type
REMARK                         _______ _______ _______ _____ _____    ______ ____
ROOT
ATOM      1  C   UNL     1       2.053   7.400  19.426  0.00  0.00    +0.000 C 
ATOM      2  O   UNL     1       2.210   6.644  20.378  0.00  0.00    +0.000 OA
ATOM      3  N   UNL     1       1.398   8.680  19.576  0.00  0.00    +0.000 N 
ATOM      4  H   UNL     1       1.082   9.124  18.718  0.00  0.00    +0.000 HD
ENDROOT
BRANCH   3   5
ATOM      5  C   UNL     1       0.977   9.228  20.785  0.00  0.00    +0.000 A 
ATOM      6  C   UNL     1       0.816   8.590  21.995  0.00  0.00    +0.000 A 
ATOM      7  C   UNL     1       0.341   9.574  22.879  0.00  0.00    +0.000 A 
ATOM      8  N   UNL     1       0.203  10.761  22.291  0.00  0.00    +0.000 NA
ATOM      9  N   UNL     1       0.596  10.540  21.014  0.00  0.00    +0.000 N 
BRANCH   9  10
ATOM     10  C   UNL     1       0.428  11.616  20.043  0.00  0.00    +0.000 C 
BRANCH  10  11
ATOM     11  C   UNL     1      -0.924  11.636  19.366  0.00  0.00    +0.000 A 
ATOM     12  C   UNL     1      -2.023  12.299  19.936  0.00  0.00    +0.000 A 
ATOM     13  C   UNL     1      -3.299  12.195  19.372  0.00  0.00    +0.000 A 
ATOM     14  C   UNL     1      -3.499  11.422  18.228  0.00  0.00    +0.000 A 
ATOM     15  C   UNL     1      -2.418  10.764  17.651  0.00  0.00    +0.000 A 
ATOM     16 CL   UNL     1      -2.658   9.788  16.254  0.00  0.00    +0.000 Cl
ATOM     17  C   UNL     1      -1.140  10.868  18.209  0.00  0.00    +0.000 A 
ENDBRANCH  10  11
ENDBRANCH   9  10
ENDBRANCH   3   5
BRANCH   1  18
ATOM     18  C   UNL     1       2.389   7.020  17.967  0.00  0.00    +0.000 C 
BRANCH  18  28
ATOM     19  C   UNL     1       2.466   2.091  18.084  0.00  0.00    +0.000 C 
ATOM     20  C   UNL     1       3.247   3.386  18.227  0.00  0.00    +0.000 C 
ATOM     21  O   UNL     1       4.500   3.265  17.574  0.00  0.00    +0.000 OA
ATOM     22  C   UNL     1       5.165   4.465  17.464  0.00  0.00    +0.000 A 
ATOM     23  C   UNL     1       6.514   4.360  17.114  0.00  0.00    +0.000 A 
ATOM     24  C   UNL     1       7.270   5.511  16.916  0.00  0.00    +0.000 A 
ATOM     25  C   UNL     1       6.677   6.763  17.068  0.00  0.00    +0.000 A 
ATOM     26  C   UNL     1       5.326   6.871  17.428  0.00  0.00    +0.000 A 
ATOM     27  C   UNL     1       4.546   5.723  17.633  0.00  0.00    +0.000 A 
ATOM     28  N   UNL     1       3.148   5.778  17.913  0.00  0.00    +0.000 N 
ATOM     29  C   UNL     1       2.438   4.588  17.744  0.00  0.00    +0.000 C 
ATOM     30  O   UNL     1       1.263   4.568  17.382  0.00  0.00    +0.000 OA
ENDBRANCH  18  28
ENDBRANCH   1  18
TORSDOF 5
ENDMDL
MODEL 7
REMARK VINA RESULT:      -7.8      3.790      6.509
REMARK  Name = 
REMARK  6 active torsions:
REMARK  status: ('A' for Active; 'I' for Inactive)
REMARK    1  A    between atoms: C_1  and  C_2
REMARK    2  A    between atoms: N_10  and  C_11
REMARK    3  A    between atoms: C_11  and  C_12
REMARK    4  A    between atoms: N_14  and  C_15
REMARK    5  A    between atoms: N_19  and  C_20
REMARK    6  A    between atoms: C_20  and  C_21
REMARK                            x       y       z     vdW  Elec       q    Type
REMARK                         _______ _______ _______ _____ _____    ______ ____
ROOT
ATOM      1  C   UNL     1       2.042   7.699  18.418  0.00  0.00    +0.000 C 
ATOM      2  O   UNL     1       2.260   7.772  19.622  0.00  0.00    +0.000 OA
ATOM      3  N   UNL     1       1.588   8.843  17.660  0.00  0.00    +0.000 N 
ATOM      4  H   UNL     1       1.191   8.644  16.745  0.00  0.00    +0.000 HD
ENDROOT
BRANCH   3   5
ATOM      5  C   UNL     1       1.446  10.134  18.163  0.00  0.00    +0.000 A 
ATOM      6  C   UNL     1       2.404  11.120  18.247  0.00  0.00    +0.000 A 
ATOM      7  C   UNL     1       1.767  12.212  18.859  0.00  0.00    +0.000 A 
ATOM      8  N   UNL     1       0.492  11.958  19.151  0.00  0.00    +0.000 NA
ATOM      9  N   UNL     1       0.306  10.688  18.720  0.00  0.00    +0.000 N 
BRANCH   9  10
ATOM     10  C   UNL     1      -0.963  10.033  19.023  0.00  0.00    +0.000 C 
BRANCH  10  11
ATOM     11  C   UNL     1      -2.031  10.231  17.970  0.00  0.00    +0.000 A 
ATOM     12  C   UNL     1      -1.874   9.745  16.662  0.00  0.00    +0.000 A 
ATOM     13  C   UNL     1      -2.804  10.053  15.663  0.00  0.00    +0.000 A 
ATOM     14  C   UNL     1      -3.906  10.857  15.955  0.00  0.00    +0.000 A 
ATOM     15  C   UNL     1      -4.075  11.341  17.247  0.00  0.00    +0.000 A 
ATOM     16 CL   UNL     1      -5.418  12.353  17.612  0.00  0.00    +0.000 Cl
ATOM     17  C   UNL     1      -3.150  11.033  18.250  0.00  0.00    +0.000 A 
ENDBRANCH  10  11
ENDBRANCH   9  10
ENDBRANCH   3   5
BRANCH   1  18
ATOM     18  C   UNL     1       2.080   6.377  17.621  0.00  0.00    +0.000 C 
BRANCH  18  28
ATOM     19  C   UNL     1       6.729   4.776  17.987  0.00  0.00    +0.000 C 
ATOM     20  C   UNL     1       5.254   4.478  18.195  0.00  0.00    +0.000 C 
ATOM     21  O   UNL     1       5.067   3.835  19.446  0.00  0.00    +0.000 OA
ATOM     22  C   UNL     1       3.742   3.740  19.806  0.00  0.00    +0.000 A 
ATOM     23  C   UNL     1       3.480   2.858  20.857  0.00  0.00    +0.000 A 
ATOM     24  C   UNL     1       2.184   2.727  21.345  0.00  0.00    +0.000 A 
ATOM     25  C   UNL     1       1.154   3.477  20.782  0.00  0.00    +0.000 A 
ATOM     26  C   UNL     1       1.411   4.356  19.721  0.00  0.00    +0.000 A 
ATOM     27  C   UNL     1       2.711   4.502  19.213  0.00  0.00    +0.000 A 
ATOM     28  N   UNL     1       3.042   5.447  18.196  0.00  0.00    +0.000 N 
ATOM     29  C   UNL     1       4.399   5.735  18.039  0.00  0.00    +0.000 C 
ATOM     30  O   UNL     1       4.801   6.841  17.682  0.00  0.00    +0.000 OA
ENDBRANCH  18  28
ENDBRANCH   1  18
TORSDOF 5
ENDMDL
MODEL 8
REMARK VINA RESULT:      -7.8      4.253      8.413
REMARK  Name = 
REMARK  6 active torsions:
REMARK  status: ('A' for Active; 'I' for Inactive)
REMARK    1  A    between atoms: C_1  and  C_2
REMARK    2  A    between atoms: N_10  and  C_11
REMARK    3  A    between atoms: C_11  and  C_12
REMARK    4  A    between atoms: N_14  and  C_15
REMARK    5  A    between atoms: N_19  and  C_20
REMARK    6  A    between atoms: C_20  and  C_21
REMARK                            x       y       z     vdW  Elec       q    Type
REMARK                         _______ _______ _______ _____ _____    ______ ____
ROOT
ATOM      1  C   UNL     1       1.373   8.335  20.125  0.00  0.00    +0.000 C 
ATOM      2  O   UNL     1       0.833   8.057  21.190  0.00  0.00    +0.000 OA
ATOM      3  N   UNL     1       2.163   7.365  19.402  0.00  0.00    +0.000 N 
ATOM      4  H   UNL     1       2.775   7.735  18.680  0.00  0.00    +0.000 HD
ENDROOT
BRANCH   3   5
ATOM      5  C   UNL     1       2.316   6.027  19.759  0.00  0.00    +0.000 A 
ATOM      6  C   UNL     1       2.198   5.466  21.012  0.00  0.00    +0.000 A 
ATOM      7  C   UNL     1       2.480   4.101  20.840  0.00  0.00    +0.000 A 
ATOM      8  N   UNL     1       2.760   3.795  19.574  0.00  0.00    +0.000 NA
ATOM      9  N   UNL     1       2.654   4.978  18.922  0.00  0.00    +0.000 N 
BRANCH   9  10
ATOM     10  C   UNL     1       3.046   5.030  17.518  0.00  0.00    +0.000 C 
BRANCH  10  11
ATOM     11  C   UNL     1       4.538   4.958  17.285  0.00  0.00    +0.000 A 
ATOM     12  C   UNL     1       5.078   4.302  16.167  0.00  0.00    +0.000 A 
ATOM     13  C   UNL     1       6.460   4.122  16.035  0.00  0.00    +0.000 A 
ATOM     14  C   UNL     1       7.325   4.592  17.023  0.00  0.00    +0.000 A 
ATOM     15  C   UNL     1       6.803   5.246  18.133  0.00  0.00    +0.000 A 
ATOM     16 CL   UNL     1       7.861   5.808  19.369  0.00  0.00    +0.000 Cl
ATOM     17  C   UNL     1       5.424   5.432  18.268  0.00  0.00    +0.000 A 
ENDBRANCH  10  11
ENDBRANCH   9  10
ENDBRANCH   3   5
BRANCH   1  18
ATOM     18  C   UNL     1       1.399   9.758  19.525  0.00  0.00    +0.000 C 
BRANCH  18  28
ATOM     19  C   UNL     1      -1.029  12.697  22.653  0.00  0.00    +0.000 C 
ATOM     20  C   UNL     1      -1.110  11.711  21.500  0.00  0.00    +0.000 C 
ATOM     21  O   UNL     1      -2.043  12.175  20.537  0.00  0.00    +0.000 OA
ATOM     22  C   UNL     1      -2.003  11.457  19.364  0.00  0.00    +0.000 A 
ATOM     23  C   UNL     1      -3.090  11.665  18.511  0.00  0.00    +0.000 A 
ATOM     24  C   UNL     1      -3.127  11.037  17.269  0.00  0.00    +0.000 A 
ATOM     25  C   UNL     1      -2.078  10.204  16.885  0.00  0.00    +0.000 A 
ATOM     26  C   UNL     1      -0.991   9.987  17.742  0.00  0.00    +0.000 A 
ATOM     27  C   UNL     1      -0.935  10.609  18.998  0.00  0.00    +0.000 A 
ATOM     28  N   UNL     1       0.189  10.492  19.869  0.00  0.00    +0.000 N 
ATOM     29  C   UNL     1       0.267  11.426  20.904  0.00  0.00    +0.000 C 
ATOM     30  O   UNL     1       1.342  11.835  21.342  0.00  0.00    +0.000 OA
ENDBRANCH  18  28
ENDBRANCH   1  18
TORSDOF 5
ENDMDL
MODEL 9
REMARK VINA RESULT:      -7.8      3.471      5.572
REMARK  Name = 
REMARK  6 active torsions:
REMARK  status: ('A' for Active; 'I' for Inactive)
REMARK    1  A    between atoms: C_1  and  C_2
REMARK    2  A    between atoms: N_10  and  C_11
REMARK    3  A    between atoms: C_11  and  C_12
REMARK    4  A    between atoms: N_14  and  C_15
REMARK    5  A    between atoms: N_19  and  C_20
REMARK    6  A    between atoms: C_20  and  C_21
REMARK                            x       y       z     vdW  Elec       q    Type
REMARK                         _______ _______ _______ _____ _____    ______ ____
ROOT
ATOM      1  C   UNL     1       2.033   7.507  19.324  0.00  0.00    +0.000 C 
ATOM      2  O   UNL     1       2.063   6.773  20.305  0.00  0.00    +0.000 OA
ATOM      3  N   UNL     1       1.403   8.807  19.371  0.00  0.00    +0.000 N 
ATOM      4  H   UNL     1       1.196   9.236  18.473  0.00  0.00    +0.000 HD
ENDROOT
BRANCH   3   5
ATOM      5  C   UNL     1       0.868   9.399  20.512  0.00  0.00    +0.000 A 
ATOM      6  C   UNL     1       0.837   8.894  21.793  0.00  0.00    +0.000 A 
ATOM      7  C   UNL     1       0.161   9.856  22.561  0.00  0.00    +0.000 A 
ATOM      8  N   UNL     1      -0.220  10.907  21.837  0.00  0.00    +0.000 NA
ATOM      9  N   UNL     1       0.219  10.619  20.588  0.00  0.00    +0.000 N 
BRANCH   9  10
ATOM     10  C   UNL     1      -0.166  11.509  19.498  0.00  0.00    +0.000 C 
BRANCH  10  11
ATOM     11  C   UNL     1      -1.445  11.114  18.795  0.00  0.00    +0.000 A 
ATOM     12  C   UNL     1      -1.449  10.186  17.740  0.00  0.00    +0.000 A 
ATOM     13  C   UNL     1      -2.615   9.933  17.008  0.00  0.00    +0.000 A 
ATOM     14  C   UNL     1      -3.796  10.607  17.316  0.00  0.00    +0.000 A 
ATOM     15  C   UNL     1      -3.806  11.525  18.361  0.00  0.00    +0.000 A 
ATOM     16 CL   UNL     1      -5.253  12.380  18.733  0.00  0.00    +0.000 Cl
ATOM     17  C   UNL     1      -2.646  11.779  19.098  0.00  0.00    +0.000 A 
ENDBRANCH  10  11
ENDBRANCH   9  10
ENDBRANCH   3   5
BRANCH   1  18
ATOM     18  C   UNL     1       2.516   7.079  17.921  0.00  0.00    +0.000 C 
BRANCH  18  28
ATOM     19  C   UNL     1       2.521   2.167  18.349  0.00  0.00    +0.000 C 
ATOM     20  C   UNL     1       3.311   3.461  18.451  0.00  0.00    +0.000 C 
ATOM     21  O   UNL     1       4.594   3.286  17.871  0.00  0.00    +0.000 OA
ATOM     22  C   UNL     1       5.279   4.469  17.721  0.00  0.00    +0.000 A 
ATOM     23  C   UNL     1       6.642   4.329  17.448  0.00  0.00    +0.000 A 
ATOM     24  C   UNL     1       7.423   5.458  17.217  0.00  0.00    +0.000 A 
ATOM     25  C   UNL     1       6.839   6.722  17.260  0.00  0.00    +0.000 A 
ATOM     26  C   UNL     1       5.474   6.867  17.543  0.00  0.00    +0.000 A 
ATOM     27  C   UNL     1       4.669   5.743  17.779  0.00  0.00    +0.000 A 
ATOM     28  N   UNL     1       3.260   5.829  17.982  0.00  0.00    +0.000 N 
ATOM     29  C   UNL     1       2.543   4.638  17.852  0.00  0.00    +0.000 C 
ATOM     30  O   UNL     1       1.387   4.607  17.433  0.00  0.00    +0.000 OA
ENDBRANCH  18  28
ENDBRANCH   1  18
TORSDOF 5
ENDMDL
