MODEL 1
REMARK VINA RESULT:      -8.9      0.000      0.000
REMARK  Name = 
REMARK  4 active torsions:
REMARK  status: ('A' for Active; 'I' for Inactive)
REMARK    1  A    between atoms: C_1  and  C_2
REMARK    2  A    between atoms: C_9  and  C_10
REMARK    3  A    between atoms: N_12  and  C_13
REMARK    4  A    between atoms: N_22  and  C_23
REMARK                            x       y       z     vdW  Elec       q    Type
REMARK                         _______ _______ _______ _____ _____    ______ ____
ROOT
ATOM      1  C   UNL     1       7.947   7.521  17.943  0.00  0.00    +0.000 C 
ATOM      2  O   UNL     1       8.491   7.203  19.000  0.00  0.00    +0.000 OA
ATOM      3  N   UNL     1       7.818   8.827  17.483  0.00  0.00    +0.000 N 
ATOM      4  H   UNL     1       7.120   9.001  16.770  0.00  0.00    +0.000 HD
ENDROOT
BRANCH   1  13
ATOM      5  C   UNL     1       0.442   2.134  18.831  0.00  0.00    +0.000 C 
ATOM      6  C   UNL     1       1.648   3.016  18.787  0.00  0.00    +0.000 A 
ATOM      7  C   UNL     1       2.629   2.957  19.765  0.00  0.00    +0.000 A 
ATOM      8  C   UNL     1       3.742   3.791  19.667  0.00  0.00    +0.000 A 
ATOM      9  C   UNL     1       3.875   4.680  18.600  0.00  0.00    +0.000 A 
ATOM     10  N   UNL     1       4.987   5.487  18.483  0.00  0.00    +0.000 N 
ATOM     11  C   UNL     1       4.876   6.787  17.829  0.00  0.00    +0.000 C 
ATOM     12  C   UNL     1       5.856   6.879  16.657  0.00  0.00    +0.000 C 
ATOM     13  C   UNL     1       7.290   6.467  17.049  0.00  0.00    +0.000 C 
ATOM     14  C   UNL     1       7.264   5.086  17.712  0.00  0.00    +0.000 C 
ATOM     15  C   UNL     1       6.308   5.048  18.906  0.00  0.00    +0.000 C 
ATOM     16  N   UNL     1       2.909   4.758  17.661  0.00  0.00    +0.000 NA
ATOM     17  C   UNL     1       1.837   3.933  17.763  0.00  0.00    +0.000 A 
ENDBRANCH   1  13
BRANCH   3  18
ATOM     18  C   UNL     1       8.412   9.960  18.087  0.00  0.00    +0.000 A 
ATOM     19  C   UNL     1       9.167   9.864  19.277  0.00  0.00    +0.000 A 
ATOM     20  C   UNL     1       9.691  10.994  19.913  0.00  0.00    +0.000 A 
ATOM     21  C   UNL     1       9.453  12.203  19.318  0.00  0.00    +0.000 A 
ATOM     22  C   UNL     1       8.759  12.321  18.132  0.00  0.00    +0.000 A 
ATOM     23  C   UNL     1       8.242  11.215  17.479  0.00  0.00    +0.000 A 
ATOM     24  O   UNL     1       8.636  13.641  17.723  0.00  0.00    +0.000 OA
ATOM     25  C   UNL     1       9.294  14.345  18.748  0.00  0.00    +0.000 A 
ATOM     26  O   UNL     1       9.389  15.565  18.762  0.00  0.00    +0.000 OA
ATOM     27  N   UNL     1       9.789  13.477  19.698  0.00  0.00    +0.000 N 
ATOM     28  C   UNL     1      10.516  13.819  20.888  0.00  0.00    +0.000 C 
ENDBRANCH   3  18
TORSDOF 2
ENDMDL
MODEL 2
REMARK VINA RESULT:      -8.5      1.065      1.113
REMARK  Name = 
REMARK  4 active torsions:
REMARK  status: ('A' for Active; 'I' for Inactive)
REMARK    1  A    between atoms: C_1  and  C_2
REMARK    2  A    between atoms: C_9  and  C_10
REMARK    3  A    between atoms: N_12  and  C_13
REMARK    4  A    between atoms: N_22  and  C_23
REMARK                            x       y       z     vdW  Elec       q    Type
REMARK                         _______ _______ _______ _____ _____    ______ ____
ROOT
ATOM      1  C   UNL     1       7.788   7.904  17.796  0.00  0.00    +0.000 C 
ATOM      2  O   UNL     1       7.103   8.644  17.091  0.00  0.00    +0.000 OA
ATOM      3  N   UNL     1       8.774   8.340  18.674  0.00  0.00    +0.000 N 
ATOM      4  H   UNL     1       9.458   7.657  18.980  0.00  0.00    +0.000 HD
ENDROOT
BRANCH   1  13
ATOM      5  C   UNL     1       0.626   2.073  18.713  0.00  0.00    +0.000 C 
ATOM      6  C   UNL     1       1.724   3.081  18.612  0.00  0.00    +0.000 A 
ATOM      7  C   UNL     1       2.011   3.953  19.652  0.00  0.00    +0.000 A 
ATOM      8  C   UNL     1       3.057   4.864  19.512  0.00  0.00    +0.000 A 
ATOM      9  C   UNL     1       3.813   4.905  18.340  0.00  0.00    +0.000 A 
ATOM     10  N   UNL     1       4.867   5.785  18.206  0.00  0.00    +0.000 N 
ATOM     11  C   UNL     1       5.225   6.295  16.886  0.00  0.00    +0.000 C 
ATOM     12  C   UNL     1       6.688   5.973  16.570  0.00  0.00    +0.000 C 
ATOM     13  C   UNL     1       7.645   6.382  17.709  0.00  0.00    +0.000 C 
ATOM     14  C   UNL     1       7.160   5.775  19.030  0.00  0.00    +0.000 C 
ATOM     15  C   UNL     1       5.710   6.156  19.332  0.00  0.00    +0.000 C 
ATOM     16  N   UNL     1       3.520   4.076  17.316  0.00  0.00    +0.000 NA
ATOM     17  C   UNL     1       2.505   3.188  17.471  0.00  0.00    +0.000 A 
ENDBRANCH   1  13
BRANCH   3  18
ATOM     18  C   UNL     1       9.036   9.694  18.991  0.00  0.00    +0.000 A 
ATOM     19  C   UNL     1       9.097  10.151  20.326  0.00  0.00    +0.000 A 
ATOM     20  C   UNL     1       9.282  11.502  20.636  0.00  0.00    +0.000 A 
ATOM     21  C   UNL     1       9.418  12.365  19.582  0.00  0.00    +0.000 A 
ATOM     22  C   UNL     1       9.408  11.938  18.271  0.00  0.00    +0.000 A 
ATOM     23  C   UNL     1       9.238  10.604  17.940  0.00  0.00    +0.000 A 
ATOM     24  O   UNL     1       9.555  12.987  17.375  0.00  0.00    +0.000 OA
ATOM     25  C   UNL     1       9.647  14.107  18.223  0.00  0.00    +0.000 A 
ATOM     26  O   UNL     1       9.771  15.250  17.804  0.00  0.00    +0.000 OA
ATOM     27  N   UNL     1       9.572  13.726  19.545  0.00  0.00    +0.000 N 
ATOM     28  C   UNL     1       9.627  14.582  20.697  0.00  0.00    +0.000 C 
ENDBRANCH   3  18
TORSDOF 2
ENDMDL
MODEL 3
REMARK VINA RESULT:      -8.5      1.412      1.886
REMARK  Name = 
REMARK  4 active torsions:
REMARK  status: ('A' for Active; 'I' for Inactive)
REMARK    1  A    between atoms: C_1  and  C_2
REMARK    2  A    between atoms: C_9  and  C_10
REMARK    3  A    between atoms: N_12  and  C_13
REMARK    4  A    between atoms: N_22  and  C_23
REMARK                            x       y       z     vdW  Elec       q    Type
REMARK                         _______ _______ _______ _____ _____    ______ ____
ROOT
ATOM      1  C   UNL     1       7.953   7.259  17.870  0.00  0.00    +0.000 C 
ATOM      2  O   UNL     1       7.639   7.703  16.766  0.00  0.00    +0.000 OA
ATOM      3  N   UNL     1       8.566   7.999  18.874  0.00  0.00    +0.000 N 
ATOM      4  H   UNL     1       9.032   7.485  19.612  0.00  0.00    +0.000 HD
ENDROOT
BRANCH   1  13
ATOM      5  C   UNL     1       0.431   1.885  18.694  0.00  0.00    +0.000 C 
ATOM      6  C   UNL     1       1.582   2.830  18.569  0.00  0.00    +0.000 A 
ATOM      7  C   UNL     1       1.664   3.982  19.336  0.00  0.00    +0.000 A 
ATOM      8  C   UNL     1       2.768   4.822  19.192  0.00  0.00    +0.000 A 
ATOM      9  C   UNL     1       3.785   4.513  18.288  0.00  0.00    +0.000 A 
ATOM     10  N   UNL     1       4.892   5.325  18.161  0.00  0.00    +0.000 N 
ATOM     11  C   UNL     1       5.588   5.410  16.881  0.00  0.00    +0.000 C 
ATOM     12  C   UNL     1       7.062   5.029  17.049  0.00  0.00    +0.000 C 
ATOM     13  C   UNL     1       7.740   5.782  18.212  0.00  0.00    +0.000 C 
ATOM     14  C   UNL     1       6.915   5.602  19.491  0.00  0.00    +0.000 C 
ATOM     15  C   UNL     1       5.462   6.035  19.295  0.00  0.00    +0.000 C 
ATOM     16  N   UNL     1       3.695   3.405  17.521  0.00  0.00    +0.000 NA
ATOM     17  C   UNL     1       2.620   2.593  17.680  0.00  0.00    +0.000 A 
ENDBRANCH   1  13
BRANCH   3  18
ATOM     18  C   UNL     1       8.790   9.396  18.828  0.00  0.00    +0.000 A 
ATOM     19  C   UNL     1       8.320  10.193  17.761  0.00  0.00    +0.000 A 
ATOM     20  C   UNL     1       8.605  11.560  17.680  0.00  0.00    +0.000 A 
ATOM     21  C   UNL     1       9.350  12.098  18.695  0.00  0.00    +0.000 A 
ATOM     22  C   UNL     1       9.781  11.351  19.771  0.00  0.00    +0.000 A 
ATOM     23  C   UNL     1       9.501   9.999  19.879  0.00  0.00    +0.000 A 
ATOM     24  O   UNL     1      10.523  12.103  20.670  0.00  0.00    +0.000 OA
ATOM     25  C   UNL     1      10.536  13.377  20.071  0.00  0.00    +0.000 A 
ATOM     26  O   UNL     1      11.116  14.336  20.560  0.00  0.00    +0.000 OA
ATOM     27  N   UNL     1       9.823  13.369  18.891  0.00  0.00    +0.000 N 
ATOM     28  C   UNL     1       9.613  14.475  17.999  0.00  0.00    +0.000 C 
ENDBRANCH   3  18
TORSDOF 2
ENDMDL
MODEL 4
REMARK VINA RESULT:      -8.1      1.154      1.574
REMARK  Name = 
REMARK  4 active torsions:
REMARK  status: ('A' for Active; 'I' for Inactive)
REMARK    1  A    between atoms: C_1  and  C_2
REMARK    2  A    between atoms: C_9  and  C_10
REMARK    3  A    between atoms: N_12  and  C_13
REMARK    4  A    between atoms: N_22  and  C_23
REMARK                            x       y       z     vdW  Elec       q    Type
REMARK                         _______ _______ _______ _____ _____    ______ ____
ROOT
ATOM      1  C   UNL     1       7.959   7.562  17.897  0.00  0.00    +0.000 C 
ATOM      2  O   UNL     1       8.521   7.444  18.984  0.00  0.00    +0.000 OA
ATOM      3  N   UNL     1       7.727   8.773  17.255  0.00  0.00    +0.000 N 
ATOM      4  H   UNL     1       7.020   8.786  16.528  0.00  0.00    +0.000 HD
ENDROOT
BRANCH   1  13
ATOM      5  C   UNL     1       0.346   2.374  19.025  0.00  0.00    +0.000 C 
ATOM      6  C   UNL     1       1.558   3.244  18.937  0.00  0.00    +0.000 A 
ATOM      7  C   UNL     1       2.425   3.396  20.008  0.00  0.00    +0.000 A 
ATOM      8  C   UNL     1       3.551   4.207  19.867  0.00  0.00    +0.000 A 
ATOM      9  C   UNL     1       3.810   4.863  18.663  0.00  0.00    +0.000 A 
ATOM     10  N   UNL     1       4.936   5.644  18.508  0.00  0.00    +0.000 N 
ATOM     11  C   UNL     1       4.911   6.783  17.596  0.00  0.00    +0.000 C 
ATOM     12  C   UNL     1       6.016   6.647  16.545  0.00  0.00    +0.000 C 
ATOM     13  C   UNL     1       7.393   6.340  17.168  0.00  0.00    +0.000 C 
ATOM     14  C   UNL     1       7.280   5.123  18.090  0.00  0.00    +0.000 C 
ATOM     15  C   UNL     1       6.198   5.315  19.154  0.00  0.00    +0.000 C 
ATOM     16  N   UNL     1       2.954   4.737  17.627  0.00  0.00    +0.000 NA
ATOM     17  C   UNL     1       1.869   3.936  17.776  0.00  0.00    +0.000 A 
ENDBRANCH   1  13
BRANCH   3  18
ATOM     18  C   UNL     1       8.224  10.026  17.685  0.00  0.00    +0.000 A 
ATOM     19  C   UNL     1       7.626  11.243  17.290  0.00  0.00    +0.000 A 
ATOM     20  C   UNL     1       8.162  12.483  17.655  0.00  0.00    +0.000 A 
ATOM     21  C   UNL     1       9.290  12.464  18.429  0.00  0.00    +0.000 A 
ATOM     22  C   UNL     1       9.867  11.290  18.867  0.00  0.00    +0.000 A 
ATOM     23  C   UNL     1       9.347  10.052  18.528  0.00  0.00    +0.000 A 
ATOM     24  O   UNL     1      11.003  11.515  19.631  0.00  0.00    +0.000 OA
ATOM     25  C   UNL     1      11.102  12.919  19.631  0.00  0.00    +0.000 A 
ATOM     26  O   UNL     1      12.004  13.522  20.198  0.00  0.00    +0.000 OA
ATOM     27  N   UNL     1      10.068  13.482  18.916  0.00  0.00    +0.000 N 
ATOM     28  C   UNL     1       9.831  14.881  18.691  0.00  0.00    +0.000 C 
ENDBRANCH   3  18
TORSDOF 2
ENDMDL
MODEL 5
REMARK VINA RESULT:      -8.1      5.879      7.722
REMARK  Name = 
REMARK  4 active torsions:
REMARK  status: ('A' for Active; 'I' for Inactive)
REMARK    1  A    between atoms: C_1  and  C_2
REMARK    2  A    between atoms: C_9  and  C_10
REMARK    3  A    between atoms: N_12  and  C_13
REMARK    4  A    between atoms: N_22  and  C_23
REMARK                            x       y       z     vdW  Elec       q    Type
REMARK                         _______ _______ _______ _____ _____    ______ ____
ROOT
ATOM      1  C   UNL     1       2.807   5.609  19.761  0.00  0.00    +0.000 C 
ATOM      2  O   UNL     1       1.748   5.049  20.042  0.00  0.00    +0.000 OA
ATOM      3  N   UNL     1       2.963   6.984  19.629  0.00  0.00    +0.000 N 
ATOM      4  H   UNL     1       3.778   7.313  19.125  0.00  0.00    +0.000 HD
ENDROOT
BRANCH   1  13
ATOM      5  C   UNL     1       7.587   3.813  12.011  0.00  0.00    +0.000 C 
ATOM      6  C   UNL     1       6.740   4.129  13.200  0.00  0.00    +0.000 A 
ATOM      7  C   UNL     1       5.391   3.812  13.239  0.00  0.00    +0.000 A 
ATOM      8  C   UNL     1       4.650   4.115  14.381  0.00  0.00    +0.000 A 
ATOM      9  C   UNL     1       5.252   4.731  15.478  0.00  0.00    +0.000 A 
ATOM     10  N   UNL     1       4.531   5.008  16.621  0.00  0.00    +0.000 N 
ATOM     11  C   UNL     1       4.899   6.148  17.454  0.00  0.00    +0.000 C 
ATOM     12  C   UNL     1       5.188   5.690  18.886  0.00  0.00    +0.000 C 
ATOM     13  C   UNL     1       4.069   4.797  19.460  0.00  0.00    +0.000 C 
ATOM     14  C   UNL     1       3.792   3.639  18.496  0.00  0.00    +0.000 C 
ATOM     15  C   UNL     1       3.463   4.138  17.089  0.00  0.00    +0.000 C 
ATOM     16  N   UNL     1       6.559   5.065  15.434  0.00  0.00    +0.000 NA
ATOM     17  C   UNL     1       7.270   4.754  14.320  0.00  0.00    +0.000 A 
ENDBRANCH   1  13
BRANCH   3  18
ATOM     18  C   UNL     1       1.970   7.945  19.936  0.00  0.00    +0.000 A 
ATOM     19  C   UNL     1       1.470   8.839  18.963  0.00  0.00    +0.000 A 
ATOM     20  C   UNL     1       0.544   9.837  19.284  0.00  0.00    +0.000 A 
ATOM     21  C   UNL     1       0.129   9.898  20.587  0.00  0.00    +0.000 A 
ATOM     22  C   UNL     1       0.567   9.008  21.546  0.00  0.00    +0.000 A 
ATOM     23  C   UNL     1       1.474   8.005  21.248  0.00  0.00    +0.000 A 
ATOM     24  O   UNL     1       0.018   9.267  22.794  0.00  0.00    +0.000 OA
ATOM     25  C   UNL     1      -0.788  10.394  22.549  0.00  0.00    +0.000 A 
ATOM     26  O   UNL     1      -1.441  10.948  23.424  0.00  0.00    +0.000 OA
ATOM     27  N   UNL     1      -0.725  10.762  21.223  0.00  0.00    +0.000 N 
ATOM     28  C   UNL     1      -1.406  11.860  20.595  0.00  0.00    +0.000 C 
ENDBRANCH   3  18
TORSDOF 2
ENDMDL
MODEL 6
REMARK VINA RESULT:      -8.0      7.710     10.462
REMARK  Name = 
REMARK  4 active torsions:
REMARK  status: ('A' for Active; 'I' for Inactive)
REMARK    1  A    between atoms: C_1  and  C_2
REMARK    2  A    between atoms: C_9  and  C_10
REMARK    3  A    between atoms: N_12  and  C_13
REMARK    4  A    between atoms: N_22  and  C_23
REMARK                            x       y       z     vdW  Elec       q    Type
REMARK                         _______ _______ _______ _____ _____    ______ ____
ROOT
ATOM      1  C   UNL     1       0.613  10.147  18.466  0.00  0.00    +0.000 C 
ATOM      2  O   UNL     1      -0.177   9.505  17.777  0.00  0.00    +0.000 OA
ATOM      3  N   UNL     1       1.685   9.596  19.159  0.00  0.00    +0.000 N 
ATOM      4  H   UNL     1       2.088  10.148  19.908  0.00  0.00    +0.000 HD
ENDROOT
BRANCH   1  13
ATOM      5  C   UNL     1      -3.137  15.291  25.220  0.00  0.00    +0.000 C 
ATOM      6  C   UNL     1      -2.583  14.384  24.170  0.00  0.00    +0.000 A 
ATOM      7  C   UNL     1      -3.360  13.406  23.569  0.00  0.00    +0.000 A 
ATOM      8  C   UNL     1      -2.797  12.597  22.582  0.00  0.00    +0.000 A 
ATOM      9  C   UNL     1      -1.466  12.762  22.198  0.00  0.00    +0.000 A 
ATOM     10  N   UNL     1      -0.912  11.984  21.203  0.00  0.00    +0.000 N 
ATOM     11  C   UNL     1       0.515  11.678  21.229  0.00  0.00    +0.000 C 
ATOM     12  C   UNL     1       1.182  12.140  19.931  0.00  0.00    +0.000 C 
ATOM     13  C   UNL     1       0.432  11.653  18.673  0.00  0.00    +0.000 C 
ATOM     14  C   UNL     1      -1.045  12.046  18.771  0.00  0.00    +0.000 C 
ATOM     15  C   UNL     1      -1.686  11.528  20.059  0.00  0.00    +0.000 C 
ATOM     16  N   UNL     1      -0.700  13.696  22.800  0.00  0.00    +0.000 NA
ATOM     17  C   UNL     1      -1.264  14.483  23.751  0.00  0.00    +0.000 A 
ENDBRANCH   1  13
BRANCH   3  18
ATOM     18  C   UNL     1       2.107   8.248  19.061  0.00  0.00    +0.000 A 
ATOM     19  C   UNL     1       2.751   7.750  17.907  0.00  0.00    +0.000 A 
ATOM     20  C   UNL     1       3.101   6.401  17.781  0.00  0.00    +0.000 A 
ATOM     21  C   UNL     1       2.803   5.585  18.838  0.00  0.00    +0.000 A 
ATOM     22  C   UNL     1       2.216   6.056  19.994  0.00  0.00    +0.000 A 
ATOM     23  C   UNL     1       1.873   7.389  20.146  0.00  0.00    +0.000 A 
ATOM     24  O   UNL     1       2.004   5.048  20.924  0.00  0.00    +0.000 OA
ATOM     25  C   UNL     1       2.491   3.907  20.260  0.00  0.00    +0.000 A 
ATOM     26  O   UNL     1       2.465   2.788  20.755  0.00  0.00    +0.000 OA
ATOM     27  N   UNL     1       2.977   4.236  19.014  0.00  0.00    +0.000 N 
ATOM     28  C   UNL     1       3.551   3.345  18.044  0.00  0.00    +0.000 C 
ENDBRANCH   3  18
TORSDOF 2
ENDMDL
MODEL 7
REMARK VINA RESULT:      -7.9      7.589     10.265
REMARK  Name = 
REMARK  4 active torsions:
REMARK  status: ('A' for Active; 'I' for Inactive)
REMARK    1  A    between atoms: C_1  and  C_2
REMARK    2  A    between atoms: C_9  and  C_10
REMARK    3  A    between atoms: N_12  and  C_13
REMARK    4  A    between atoms: N_22  and  C_23
REMARK                            x       y       z     vdW  Elec       q    Type
REMARK                         _______ _______ _______ _____ _____    ______ ____
ROOT
ATOM      1  C   UNL     1       0.700  10.116  18.607  0.00  0.00    +0.000 C 
ATOM      2  O   UNL     1      -0.024   9.546  17.792  0.00  0.00    +0.000 OA
ATOM      3  N   UNL     1       1.621   9.475  19.428  0.00  0.00    +0.000 N 
ATOM      4  H   UNL     1       1.948   9.981  20.243  0.00  0.00    +0.000 HD
ENDROOT
BRANCH   1  13
ATOM      5  C   UNL     1      -3.109  15.353  25.255  0.00  0.00    +0.000 C 
ATOM      6  C   UNL     1      -2.552  14.433  24.218  0.00  0.00    +0.000 A 
ATOM      7  C   UNL     1      -3.349  13.510  23.558  0.00  0.00    +0.000 A 
ATOM      8  C   UNL     1      -2.781  12.687  22.587  0.00  0.00    +0.000 A 
ATOM      9  C   UNL     1      -1.425  12.783  22.275  0.00  0.00    +0.000 A 
ATOM     10  N   UNL     1      -0.863  11.991  21.296  0.00  0.00    +0.000 N 
ATOM     11  C   UNL     1       0.541  11.605  21.390  0.00  0.00    +0.000 C 
ATOM     12  C   UNL     1       1.300  12.049  20.137  0.00  0.00    +0.000 C 
ATOM     13  C   UNL     1       0.593  11.626  18.833  0.00  0.00    +0.000 C 
ATOM     14  C   UNL     1      -0.863  12.101  18.861  0.00  0.00    +0.000 C 
ATOM     15  C   UNL     1      -1.600  11.599  20.104  0.00  0.00    +0.000 C 
ATOM     16  N   UNL     1      -0.641  13.662  22.934  0.00  0.00    +0.000 NA
ATOM     17  C   UNL     1      -1.209  14.464  23.870  0.00  0.00    +0.000 A 
ENDBRANCH   1  13
BRANCH   3  18
ATOM     18  C   UNL     1       1.961   8.104  19.348  0.00  0.00    +0.000 A 
ATOM     19  C   UNL     1       1.614   7.188  20.366  0.00  0.00    +0.000 A 
ATOM     20  C   UNL     1       2.015   5.848  20.322  0.00  0.00    +0.000 A 
ATOM     21  C   UNL     1       2.748   5.458  19.234  0.00  0.00    +0.000 A 
ATOM     22  C   UNL     1       3.060   6.322  18.204  0.00  0.00    +0.000 A 
ATOM     23  C   UNL     1       2.664   7.649  18.221  0.00  0.00    +0.000 A 
ATOM     24  O   UNL     1       3.815   5.709  17.214  0.00  0.00    +0.000 OA
ATOM     25  C   UNL     1       3.963   4.398  17.705  0.00  0.00    +0.000 A 
ATOM     26  O   UNL     1       4.594   3.533  17.113  0.00  0.00    +0.000 OA
ATOM     27  N   UNL     1       3.314   4.252  18.912  0.00  0.00    +0.000 N 
ATOM     28  C   UNL     1       3.241   3.065  19.718  0.00  0.00    +0.000 C 
ENDBRANCH   3  18
TORSDOF 2
ENDMDL
MODEL 8
REMARK VINA RESULT:      -7.8      5.415      6.206
REMARK  Name = 
REMARK  4 active torsions:
REMARK  status: ('A' for Active; 'I' for Inactive)
REMARK    1  A    between atoms: C_1  and  C_2
REMARK    2  A    between atoms: C_9  and  C_10
REMARK    3  A    between atoms: N_12  and  C_13
REMARK    4  A    between atoms: N_22  and  C_23
REMARK                            x       y       z     vdW  Elec       q    Type
REMARK                         _______ _______ _______ _____ _____    ______ ____
ROOT
ATOM      1  C   UNL     1       0.985  11.282  19.749  0.00  0.00    +0.000 C 
ATOM      2  O   UNL     1       1.281  11.511  20.921  0.00  0.00    +0.000 OA
ATOM      3  N   UNL     1       1.258  12.134  18.685  0.00  0.00    +0.000 N 
ATOM      4  H   UNL     1       0.731  11.994  17.830  0.00  0.00    +0.000 HD
ENDROOT
BRANCH   1  13
ATOM      5  C   UNL     1       3.446   2.507  17.997  0.00  0.00    +0.000 C 
ATOM      6  C   UNL     1       3.146   3.946  18.265  0.00  0.00    +0.000 A 
ATOM      7  C   UNL     1       3.733   4.962  17.527  0.00  0.00    +0.000 A 
ATOM      8  C   UNL     1       3.404   6.288  17.807  0.00  0.00    +0.000 A 
ATOM      9  C   UNL     1       2.496   6.598  18.819  0.00  0.00    +0.000 A 
ATOM     10  N   UNL     1       2.146   7.906  19.083  0.00  0.00    +0.000 N 
ATOM     11  C   UNL     1       1.764   8.298  20.436  0.00  0.00    +0.000 C 
ATOM     12  C   UNL     1       0.365   8.919  20.435  0.00  0.00    +0.000 C 
ATOM     13  C   UNL     1       0.206  10.021  19.367  0.00  0.00    +0.000 C 
ATOM     14  C   UNL     1       0.630   9.476  18.000  0.00  0.00    +0.000 C 
ATOM     15  C   UNL     1       2.049   8.906  18.031  0.00  0.00    +0.000 C 
ATOM     16  N   UNL     1       1.943   5.613  19.557  0.00  0.00    +0.000 NA
ATOM     17  C   UNL     1       2.263   4.326  19.265  0.00  0.00    +0.000 A 
ENDBRANCH   1  13
BRANCH   3  18
ATOM     18  C   UNL     1       2.036  13.313  18.770  0.00  0.00    +0.000 A 
ATOM     19  C   UNL     1       3.349  13.381  18.253  0.00  0.00    +0.000 A 
ATOM     20  C   UNL     1       4.144  14.522  18.403  0.00  0.00    +0.000 A 
ATOM     21  C   UNL     1       3.584  15.582  19.064  0.00  0.00    +0.000 A 
ATOM     22  C   UNL     1       2.289  15.558  19.537  0.00  0.00    +0.000 A 
ATOM     23  C   UNL     1       1.480  14.444  19.389  0.00  0.00    +0.000 A 
ATOM     24  O   UNL     1       1.940  16.739  20.176  0.00  0.00    +0.000 OA
ATOM     25  C   UNL     1       3.119  17.502  20.079  0.00  0.00    +0.000 A 
ATOM     26  O   UNL     1       3.223  18.628  20.548  0.00  0.00    +0.000 OA
ATOM     27  N   UNL     1       4.098  16.807  19.403  0.00  0.00    +0.000 N 
ATOM     28  C   UNL     1       5.431  17.253  19.108  0.00  0.00    +0.000 C 
ENDBRANCH   3  18
TORSDOF 2
ENDMDL
MODEL 9
REMARK VINA RESULT:      -7.8      5.455      6.254
REMARK  Name = 
REMARK  4 active torsions:
REMARK  status: ('A' for Active; 'I' for Inactive)
REMARK    1  A    between atoms: C_1  and  C_2
REMARK    2  A    between atoms: C_9  and  C_10
REMARK    3  A    between atoms: N_12  and  C_13
REMARK    4  A    between atoms: N_22  and  C_23
REMARK                            x       y       z     vdW  Elec       q    Type
REMARK                         _______ _______ _______ _____ _____    ______ ____
ROOT
ATOM      1  C   UNL     1       0.793  11.245  20.311  0.00  0.00    +0.000 C 
ATOM      2  O   UNL     1       1.081  11.300  21.506  0.00  0.00    +0.000 OA
ATOM      3  N   UNL     1       1.009  12.272  19.399  0.00  0.00    +0.000 N 
ATOM      4  H   UNL     1       0.486  12.240  18.531  0.00  0.00    +0.000 HD
ENDROOT
BRANCH   1  13
ATOM      5  C   UNL     1       3.725   2.888  17.536  0.00  0.00    +0.000 C 
ATOM      6  C   UNL     1       3.348   4.265  17.977  0.00  0.00    +0.000 A 
ATOM      7  C   UNL     1       3.919   5.394  17.409  0.00  0.00    +0.000 A 
ATOM      8  C   UNL     1       3.520   6.656  17.846  0.00  0.00    +0.000 A 
ATOM      9  C   UNL     1       2.555   6.792  18.845  0.00  0.00    +0.000 A 
ATOM     10  N   UNL     1       2.135   8.038  19.262  0.00  0.00    +0.000 N 
ATOM     11  C   UNL     1       1.677   8.229  20.634  0.00  0.00    +0.000 C 
ATOM     12  C   UNL     1       0.252   8.789  20.647  0.00  0.00    +0.000 C 
ATOM     13  C   UNL     1       0.090  10.017  19.728  0.00  0.00    +0.000 C 
ATOM     14  C   UNL     1       0.597   9.678  18.323  0.00  0.00    +0.000 C 
ATOM     15  C   UNL     1       2.038   9.165  18.348  0.00  0.00    +0.000 C 
ATOM     16  N   UNL     1       2.015   5.695  19.418  0.00  0.00    +0.000 NA
ATOM     17  C   UNL     1       2.406   4.473  18.975  0.00  0.00    +0.000 A 
ENDBRANCH   1  13
BRANCH   3  18
ATOM     18  C   UNL     1       1.715  13.467  19.676  0.00  0.00    +0.000 A 
ATOM     19  C   UNL     1       1.288  14.373  20.673  0.00  0.00    +0.000 A 
ATOM     20  C   UNL     1       1.943  15.588  20.896  0.00  0.00    +0.000 A 
ATOM     21  C   UNL     1       3.033  15.855  20.111  0.00  0.00    +0.000 A 
ATOM     22  C   UNL     1       3.497  14.968  19.163  0.00  0.00    +0.000 A 
ATOM     23  C   UNL     1       2.872  13.754  18.934  0.00  0.00    +0.000 A 
ATOM     24  O   UNL     1       4.607  15.454  18.487  0.00  0.00    +0.000 OA
ATOM     25  C   UNL     1       4.797  16.718  19.074  0.00  0.00    +0.000 A 
ATOM     26  O   UNL     1       5.688  17.484  18.730  0.00  0.00    +0.000 OA
ATOM     27  N   UNL     1       3.856  16.950  20.053  0.00  0.00    +0.000 N 
ATOM     28  C   UNL     1       3.725  18.125  20.869  0.00  0.00    +0.000 C 
ENDBRANCH   3  18
TORSDOF 2
ENDMDL
