MODEL 1
REMARK VINA RESULT:      -8.6      0.000      0.000
REMARK  Name = 
REMARK  7 active torsions:
REMARK  status: ('A' for Active; 'I' for Inactive)
REMARK    1  A    between atoms: C_1  and  C_2
REMARK    2  A    between atoms: N_5  and  C_6
REMARK    3  A    between atoms: C_10  and  C_11
REMARK    4  A    between atoms: C_11  and  C_12
REMARK    5  A    between atoms: C_12  and  C_13
REMARK    6  A    between atoms: N_17  and  C_18
REMARK    7  A    between atoms: C_23  and  N_24
REMARK                            x       y       z     vdW  Elec       q    Type
REMARK                         _______ _______ _______ _____ _____    ______ ____
ROOT
ATOM      1  C   UNL     1       2.653   6.111  18.255  0.00  0.00    +0.000 A 
ATOM      2  C   UNL     1       1.839   5.017  17.926  0.00  0.00    +0.000 A 
ATOM      3  C   UNL     1       2.366   3.862  17.351  0.00  0.00    +0.000 A 
ATOM      4  C   UNL     1       3.728   3.779  17.077  0.00  0.00    +0.000 A 
ATOM      5  C   UNL     1       4.590   4.860  17.326  0.00  0.00    +0.000 A 
ATOM      6  C   UNL     1       4.016   6.001  17.942  0.00  0.00    +0.000 A 
ENDROOT
BRANCH   1  11
ATOM      7  C   UNL     1       0.675  11.151  20.175  0.00  0.00    +0.000 C 
ATOM      8  C   UNL     1       1.164   9.849  19.622  0.00  0.00    +0.000 C 
ATOM      9  C   UNL     1       1.426   9.654  18.325  0.00  0.00    +0.000 C 
ATOM     10  C   UNL     1       1.839   8.328  17.760  0.00  0.00    +0.000 C 
ATOM     11  N   UNL     1       2.108   7.310  18.801  0.00  0.00    +0.000 N 
ATOM     12  C   UNL     1       1.766   7.523  20.146  0.00  0.00    +0.000 C 
ATOM     13  C   UNL     1       1.312   8.735  20.536  0.00  0.00    +0.000 C 
BRANCH  12  14
ATOM     14  N   UNL     1       1.835   6.540  21.116  0.00  0.00    +0.000 N 
ATOM     15  H   UNL     1       1.753   5.616  20.724  0.00  0.00    +0.000 HD
ATOM     16  H   UNL     1       2.628   6.645  21.741  0.00  0.00    +0.000 HD
ENDBRANCH  12  14
ENDBRANCH   1  11
BRANCH   5  17
ATOM     17  C   UNL     1       6.105   4.886  16.812  0.00  0.00    +0.000 C 
ATOM     18  C   UNL     1       7.129   4.640  17.963  0.00  0.00    +0.000 C 
ATOM     19  O   UNL     1       7.995   5.681  17.454  0.00  0.00    +0.000 OA
ATOM     20  C   UNL     1       6.870   6.238  16.716  0.00  0.00    +0.000 C 
BRANCH  17  21
ATOM     21  C   UNL     1       6.354   3.943  15.621  0.00  0.00    +0.000 C 
BRANCH  21  22
ATOM     22  C   UNL     1       6.951   4.599  14.416  0.00  0.00    +0.000 A 
ATOM     23  N   UNL     1       7.898   5.518  14.422  0.00  0.00    +0.000 NA
ATOM     24  N   UNL     1       8.248   5.786  13.122  0.00  0.00    +0.000 NA
ATOM     25  C   UNL     1       7.511   5.027  12.344  0.00  0.00    +0.000 A 
ATOM     26  N   UNL     1       6.673   4.280  13.115  0.00  0.00    +0.000 N 
ATOM     27  C   UNL     1       5.704   3.341  12.614  0.00  0.00    +0.000 C 
ENDBRANCH  21  22
ENDBRANCH  17  21
ENDBRANCH   5  17
TORSDOF 5
ENDMDL
MODEL 2
REMARK VINA RESULT:      -8.6      1.781      3.017
REMARK  Name = 
REMARK  7 active torsions:
REMARK  status: ('A' for Active; 'I' for Inactive)
REMARK    1  A    between atoms: C_1  and  C_2
REMARK    2  A    between atoms: N_5  and  C_6
REMARK    3  A    between atoms: C_10  and  C_11
REMARK    4  A    between atoms: C_11  and  C_12
REMARK    5  A    between atoms: C_12  and  C_13
REMARK    6  A    between atoms: N_17  and  C_18
REMARK    7  A    between atoms: C_23  and  N_24
REMARK                            x       y       z     vdW  Elec       q    Type
REMARK                         _______ _______ _______ _____ _____    ______ ____
ROOT
ATOM      1  C   UNL     1       2.634   5.866  18.196  0.00  0.00    +0.000 A 
ATOM      2  C   UNL     1       1.824   4.721  18.214  0.00  0.00    +0.000 A 
ATOM      3  C   UNL     1       2.267   3.506  17.692  0.00  0.00    +0.000 A 
ATOM      4  C   UNL     1       3.534   3.412  17.124  0.00  0.00    +0.000 A 
ATOM      5  C   UNL     1       4.373   4.533  17.021  0.00  0.00    +0.000 A 
ATOM      6  C   UNL     1       3.896   5.739  17.594  0.00  0.00    +0.000 A 
ENDROOT
BRANCH   1  11
ATOM      7  C   UNL     1       0.972  11.100  19.883  0.00  0.00    +0.000 C 
ATOM      8  C   UNL     1       1.378   9.746  19.391  0.00  0.00    +0.000 C 
ATOM      9  C   UNL     1       1.608   9.472  18.102  0.00  0.00    +0.000 C 
ATOM     10  C   UNL     1       1.937   8.098  17.600  0.00  0.00    +0.000 C 
ATOM     11  N   UNL     1       2.166   7.120  18.688  0.00  0.00    +0.000 N 
ATOM     12  C   UNL     1       1.859   7.419  20.025  0.00  0.00    +0.000 C 
ATOM     13  C   UNL     1       1.479   8.673  20.359  0.00  0.00    +0.000 C 
BRANCH  12  14
ATOM     14  N   UNL     1       1.889   6.484  21.042  0.00  0.00    +0.000 N 
ATOM     15  H   UNL     1       1.705   5.553  20.705  0.00  0.00    +0.000 HD
ATOM     16  H   UNL     1       2.719   6.547  21.624  0.00  0.00    +0.000 HD
ENDBRANCH  12  14
ENDBRANCH   1  11
BRANCH   5  17
ATOM     17  C   UNL     1       5.730   4.516  16.173  0.00  0.00    +0.000 C 
ATOM     18  C   UNL     1       5.760   5.624  15.075  0.00  0.00    +0.000 C 
ATOM     19  O   UNL     1       6.330   4.700  14.118  0.00  0.00    +0.000 OA
ATOM     20  C   UNL     1       5.858   3.588  14.929  0.00  0.00    +0.000 C 
BRANCH  17  21
ATOM     21  C   UNL     1       6.992   4.556  17.053  0.00  0.00    +0.000 C 
BRANCH  21  22
ATOM     22  C   UNL     1       7.472   5.930  17.397  0.00  0.00    +0.000 A 
ATOM     23  N   UNL     1       7.526   6.962  16.576  0.00  0.00    +0.000 NA
ATOM     24  N   UNL     1       7.918   8.066  17.292  0.00  0.00    +0.000 NA
ATOM     25  C   UNL     1       8.097   7.691  18.538  0.00  0.00    +0.000 A 
ATOM     26  N   UNL     1       7.843   6.357  18.643  0.00  0.00    +0.000 N 
ATOM     27  C   UNL     1       7.951   5.586  19.854  0.00  0.00    +0.000 C 
ENDBRANCH  21  22
ENDBRANCH  17  21
ENDBRANCH   5  17
TORSDOF 5
ENDMDL
MODEL 3
REMARK VINA RESULT:      -8.5      2.714      4.295
REMARK  Name = 
REMARK  7 active torsions:
REMARK  status: ('A' for Active; 'I' for Inactive)
REMARK    1  A    between atoms: C_1  and  C_2
REMARK    2  A    between atoms: N_5  and  C_6
REMARK    3  A    between atoms: C_10  and  C_11
REMARK    4  A    between atoms: C_11  and  C_12
REMARK    5  A    between atoms: C_12  and  C_13
REMARK    6  A    between atoms: N_17  and  C_18
REMARK    7  A    between atoms: C_23  and  N_24
REMARK                            x       y       z     vdW  Elec       q    Type
REMARK                         _______ _______ _______ _____ _____    ______ ____
ROOT
ATOM      1  C   UNL     1       1.959   8.014  19.145  0.00  0.00    +0.000 A 
ATOM      2  C   UNL     1       2.689   8.573  18.086  0.00  0.00    +0.000 A 
ATOM      3  C   UNL     1       3.471   7.785  17.242  0.00  0.00    +0.000 A 
ATOM      4  C   UNL     1       3.551   6.411  17.449  0.00  0.00    +0.000 A 
ATOM      5  C   UNL     1       2.892   5.795  18.525  0.00  0.00    +0.000 A 
ATOM      6  C   UNL     1       2.082   6.630  19.337  0.00  0.00    +0.000 A 
ENDROOT
BRANCH   1  11
ATOM      7  C   UNL     1      -1.156  10.950  22.977  0.00  0.00    +0.000 C 
ATOM      8  C   UNL     1      -0.302  10.177  22.021  0.00  0.00    +0.000 C 
ATOM      9  C   UNL     1       0.540   9.210  22.404  0.00  0.00    +0.000 C 
ATOM     10  C   UNL     1       1.452   8.491  21.455  0.00  0.00    +0.000 C 
ATOM     11  N   UNL     1       1.195   8.825  20.035  0.00  0.00    +0.000 N 
ATOM     12  C   UNL     1       0.350   9.885  19.668  0.00  0.00    +0.000 C 
ATOM     13  C   UNL     1      -0.362  10.532  20.617  0.00  0.00    +0.000 C 
BRANCH  12  14
ATOM     14  N   UNL     1       0.220  10.342  18.369  0.00  0.00    +0.000 N 
ATOM     15  H   UNL     1       0.117   9.586  17.711  0.00  0.00    +0.000 HD
ATOM     16  H   UNL     1      -0.482  11.067  18.265  0.00  0.00    +0.000 HD
ENDBRANCH  12  14
ENDBRANCH   1  11
BRANCH   5  17
ATOM     17  C   UNL     1       3.147   4.268  18.928  0.00  0.00    +0.000 C 
ATOM     18  C   UNL     1       1.915   3.358  18.629  0.00  0.00    +0.000 C 
ATOM     19  O   UNL     1       2.080   2.671  19.891  0.00  0.00    +0.000 OA
ATOM     20  C   UNL     1       2.871   3.790  20.383  0.00  0.00    +0.000 C 
BRANCH  17  21
ATOM     21  C   UNL     1       4.438   3.691  18.317  0.00  0.00    +0.000 C 
BRANCH  21  22
ATOM     22  C   UNL     1       5.682   4.450  18.651  0.00  0.00    +0.000 A 
ATOM     23  N   UNL     1       6.028   4.888  19.847  0.00  0.00    +0.000 NA
ATOM     24  N   UNL     1       7.283   5.438  19.761  0.00  0.00    +0.000 NA
ATOM     25  C   UNL     1       7.684   5.328  18.515  0.00  0.00    +0.000 A 
ATOM     26  N   UNL     1       6.703   4.728  17.784  0.00  0.00    +0.000 N 
ATOM     27  C   UNL     1       6.775   4.453  16.373  0.00  0.00    +0.000 C 
ENDBRANCH  21  22
ENDBRANCH  17  21
ENDBRANCH   5  17
TORSDOF 5
ENDMDL
MODEL 4
REMARK VINA RESULT:      -8.4      2.111      3.242
REMARK  Name = 
REMARK  7 active torsions:
REMARK  status: ('A' for Active; 'I' for Inactive)
REMARK    1  A    between atoms: C_1  and  C_2
REMARK    2  A    between atoms: N_5  and  C_6
REMARK    3  A    between atoms: C_10  and  C_11
REMARK    4  A    between atoms: C_11  and  C_12
REMARK    5  A    between atoms: C_12  and  C_13
REMARK    6  A    between atoms: N_17  and  C_18
REMARK    7  A    between atoms: C_23  and  N_24
REMARK                            x       y       z     vdW  Elec       q    Type
REMARK                         _______ _______ _______ _____ _____    ______ ____
ROOT
ATOM      1  C   UNL     1       2.757   5.979  18.144  0.00  0.00    +0.000 A 
ATOM      2  C   UNL     1       2.053   4.775  18.300  0.00  0.00    +0.000 A 
ATOM      3  C   UNL     1       2.533   3.576  17.774  0.00  0.00    +0.000 A 
ATOM      4  C   UNL     1       3.729   3.556  17.064  0.00  0.00    +0.000 A 
ATOM      5  C   UNL     1       4.454   4.734  16.820  0.00  0.00    +0.000 A 
ATOM      6  C   UNL     1       3.946   5.924  17.401  0.00  0.00    +0.000 A 
ENDROOT
BRANCH   1  11
ATOM      7  C   UNL     1       0.920  11.143  19.862  0.00  0.00    +0.000 C 
ATOM      8  C   UNL     1       1.372   9.808  19.361  0.00  0.00    +0.000 C 
ATOM      9  C   UNL     1       1.630   9.555  18.073  0.00  0.00    +0.000 C 
ATOM     10  C   UNL     1       2.007   8.196  17.561  0.00  0.00    +0.000 C 
ATOM     11  N   UNL     1       2.245   7.213  18.642  0.00  0.00    +0.000 N 
ATOM     12  C   UNL     1       1.909   7.488  19.977  0.00  0.00    +0.000 C 
ATOM     13  C   UNL     1       1.488   8.727  20.318  0.00  0.00    +0.000 C 
BRANCH  12  14
ATOM     14  N   UNL     1       1.949   6.542  20.985  0.00  0.00    +0.000 N 
ATOM     15  H   UNL     1       1.038   6.157  21.178  0.00  0.00    +0.000 HD
ATOM     16  H   UNL     1       2.666   5.837  20.847  0.00  0.00    +0.000 HD
ENDBRANCH  12  14
ENDBRANCH   1  11
BRANCH   5  17
ATOM     17  C   UNL     1       5.699   4.784  15.817  0.00  0.00    +0.000 C 
ATOM     18  C   UNL     1       5.259   4.843  14.322  0.00  0.00    +0.000 C 
ATOM     19  O   UNL     1       6.285   3.892  13.952  0.00  0.00    +0.000 OA
ATOM     20  C   UNL     1       6.369   3.462  15.340  0.00  0.00    +0.000 C 
BRANCH  17  21
ATOM     21  C   UNL     1       6.701   5.903  16.156  0.00  0.00    +0.000 C 
BRANCH  21  22
ATOM     22  C   UNL     1       7.258   5.846  17.544  0.00  0.00    +0.000 A 
ATOM     23  N   UNL     1       7.400   4.760  18.280  0.00  0.00    +0.000 NA
ATOM     24  N   UNL     1       8.043   5.105  19.442  0.00  0.00    +0.000 NA
ATOM     25  C   UNL     1       8.284   6.396  19.398  0.00  0.00    +0.000 A 
ATOM     26  N   UNL     1       7.793   6.900  18.232  0.00  0.00    +0.000 N 
ATOM     27  C   UNL     1       7.855   8.284  17.838  0.00  0.00    +0.000 C 
ENDBRANCH  21  22
ENDBRANCH  17  21
ENDBRANCH   5  17
TORSDOF 5
ENDMDL
MODEL 5
REMARK VINA RESULT:      -8.3      0.949      1.026
REMARK  Name = 
REMARK  7 active torsions:
REMARK  status: ('A' for Active; 'I' for Inactive)
REMARK    1  A    between atoms: C_1  and  C_2
REMARK    2  A    between atoms: N_5  and  C_6
REMARK    3  A    between atoms: C_10  and  C_11
REMARK    4  A    between atoms: C_11  and  C_12
REMARK    5  A    between atoms: C_12  and  C_13
REMARK    6  A    between atoms: N_17  and  C_18
REMARK    7  A    between atoms: C_23  and  N_24
REMARK                            x       y       z     vdW  Elec       q    Type
REMARK                         _______ _______ _______ _____ _____    ______ ____
ROOT
ATOM      1  C   UNL     1       2.834   6.580  18.512  0.00  0.00    +0.000 A 
ATOM      2  C   UNL     1       2.191   5.401  18.108  0.00  0.00    +0.000 A 
ATOM      3  C   UNL     1       2.911   4.278  17.703  0.00  0.00    +0.000 A 
ATOM      4  C   UNL     1       4.303   4.315  17.680  0.00  0.00    +0.000 A 
ATOM      5  C   UNL     1       5.008   5.482  18.015  0.00  0.00    +0.000 A 
ATOM      6  C   UNL     1       4.236   6.588  18.453  0.00  0.00    +0.000 A 
ENDROOT
BRANCH   1  11
ATOM      7  C   UNL     1       0.092  11.479  19.733  0.00  0.00    +0.000 C 
ATOM      8  C   UNL     1       0.785  10.206  19.359  0.00  0.00    +0.000 C 
ATOM      9  C   UNL     1       1.220   9.943  18.121  0.00  0.00    +0.000 C 
ATOM     10  C   UNL     1       1.843   8.636  17.729  0.00  0.00    +0.000 C 
ATOM     11  N   UNL     1       2.098   7.743  18.883  0.00  0.00    +0.000 N 
ATOM     12  C   UNL     1       1.578   8.020  20.158  0.00  0.00    +0.000 C 
ATOM     13  C   UNL     1       0.948   9.194  20.383  0.00  0.00    +0.000 C 
BRANCH  12  14
ATOM     14  N   UNL     1       1.641   7.132  21.216  0.00  0.00    +0.000 N 
ATOM     15  H   UNL     1       1.053   6.327  21.070  0.00  0.00    +0.000 HD
ATOM     16  H   UNL     1       2.589   6.895  21.489  0.00  0.00    +0.000 HD
ENDBRANCH  12  14
ENDBRANCH   1  11
BRANCH   5  17
ATOM     17  C   UNL     1       6.583   5.631  17.777  0.00  0.00    +0.000 C 
ATOM     18  C   UNL     1       7.377   5.775  19.113  0.00  0.00    +0.000 C 
ATOM     19  O   UNL     1       8.209   6.811  18.540  0.00  0.00    +0.000 OA
ATOM     20  C   UNL     1       7.201   7.035  17.514  0.00  0.00    +0.000 C 
BRANCH  17  21
ATOM     21  C   UNL     1       7.167   4.517  16.889  0.00  0.00    +0.000 C 
BRANCH  21  22
ATOM     22  C   UNL     1       7.221   4.842  15.430  0.00  0.00    +0.000 A 
ATOM     23  N   UNL     1       8.101   5.633  14.843  0.00  0.00    +0.000 NA
ATOM     24  N   UNL     1       7.885   5.589  13.488  0.00  0.00    +0.000 NA
ATOM     25  C   UNL     1       6.879   4.774  13.269  0.00  0.00    +0.000 A 
ATOM     26  N   UNL     1       6.424   4.298  14.461  0.00  0.00    +0.000 N 
ATOM     27  C   UNL     1       5.318   3.390  14.622  0.00  0.00    +0.000 C 
ENDBRANCH  21  22
ENDBRANCH  17  21
ENDBRANCH   5  17
TORSDOF 5
ENDMDL
MODEL 6
REMARK VINA RESULT:      -8.3      0.682      1.442
REMARK  Name = 
REMARK  7 active torsions:
REMARK  status: ('A' for Active; 'I' for Inactive)
REMARK    1  A    between atoms: C_1  and  C_2
REMARK    2  A    between atoms: N_5  and  C_6
REMARK    3  A    between atoms: C_10  and  C_11
REMARK    4  A    between atoms: C_11  and  C_12
REMARK    5  A    between atoms: C_12  and  C_13
REMARK    6  A    between atoms: N_17  and  C_18
REMARK    7  A    between atoms: C_23  and  N_24
REMARK                            x       y       z     vdW  Elec       q    Type
REMARK                         _______ _______ _______ _____ _____    ______ ____
ROOT
ATOM      1  C   UNL     1       2.599   5.896  18.536  0.00  0.00    +0.000 A 
ATOM      2  C   UNL     1       1.779   4.841  18.110  0.00  0.00    +0.000 A 
ATOM      3  C   UNL     1       2.291   3.761  17.393  0.00  0.00    +0.000 A 
ATOM      4  C   UNL     1       3.644   3.718  17.071  0.00  0.00    +0.000 A 
ATOM      5  C   UNL     1       4.511   4.769  17.414  0.00  0.00    +0.000 A 
ATOM      6  C   UNL     1       3.953   5.830  18.172  0.00  0.00    +0.000 A 
ENDROOT
BRANCH   1  11
ATOM      7  C   UNL     1       0.216  10.175  21.538  0.00  0.00    +0.000 C 
ATOM      8  C   UNL     1       0.858   9.038  20.807  0.00  0.00    +0.000 C 
ATOM      9  C   UNL     1       1.046   7.829  21.349  0.00  0.00    +0.000 C 
ATOM     10  C   UNL     1       1.760   6.714  20.644  0.00  0.00    +0.000 C 
ATOM     11  N   UNL     1       2.069   7.023  19.229  0.00  0.00    +0.000 N 
ATOM     12  C   UNL     1       1.915   8.317  18.707  0.00  0.00    +0.000 C 
ATOM     13  C   UNL     1       1.341   9.279  19.463  0.00  0.00    +0.000 C 
BRANCH  12  14
ATOM     14  N   UNL     1       2.355   8.689  17.450  0.00  0.00    +0.000 N 
ATOM     15  H   UNL     1       3.207   9.224  17.491  0.00  0.00    +0.000 HD
ATOM     16  H   UNL     1       2.393   7.918  16.791  0.00  0.00    +0.000 HD
ENDBRANCH  12  14
ENDBRANCH   1  11
BRANCH   5  17
ATOM     17  C   UNL     1       6.009   4.862  16.861  0.00  0.00    +0.000 C 
ATOM     18  C   UNL     1       7.073   4.677  17.988  0.00  0.00    +0.000 C 
ATOM     19  O   UNL     1       7.874   5.753  17.447  0.00  0.00    +0.000 OA
ATOM     20  C   UNL     1       6.707   6.248  16.733  0.00  0.00    +0.000 C 
BRANCH  17  21
ATOM     21  C   UNL     1       6.273   3.918  15.674  0.00  0.00    +0.000 C 
BRANCH  21  22
ATOM     22  C   UNL     1       6.892   4.573  14.480  0.00  0.00    +0.000 A 
ATOM     23  N   UNL     1       7.853   5.477  14.501  0.00  0.00    +0.000 NA
ATOM     24  N   UNL     1       8.221   5.749  13.206  0.00  0.00    +0.000 NA
ATOM     25  C   UNL     1       7.481   5.006  12.416  0.00  0.00    +0.000 A 
ATOM     26  N   UNL     1       6.624   4.267  13.174  0.00  0.00    +0.000 N 
ATOM     27  C   UNL     1       5.645   3.346  12.657  0.00  0.00    +0.000 C 
ENDBRANCH  21  22
ENDBRANCH  17  21
ENDBRANCH   5  17
TORSDOF 5
ENDMDL
MODEL 7
REMARK VINA RESULT:      -8.3      0.826      1.437
REMARK  Name = 
REMARK  7 active torsions:
REMARK  status: ('A' for Active; 'I' for Inactive)
REMARK    1  A    between atoms: C_1  and  C_2
REMARK    2  A    between atoms: N_5  and  C_6
REMARK    3  A    between atoms: C_10  and  C_11
REMARK    4  A    between atoms: C_11  and  C_12
REMARK    5  A    between atoms: C_12  and  C_13
REMARK    6  A    between atoms: N_17  and  C_18
REMARK    7  A    between atoms: C_23  and  N_24
REMARK                            x       y       z     vdW  Elec       q    Type
REMARK                         _______ _______ _______ _____ _____    ______ ____
ROOT
ATOM      1  C   UNL     1       2.660   6.298  18.256  0.00  0.00    +0.000 A 
ATOM      2  C   UNL     1       1.917   5.112  18.166  0.00  0.00    +0.000 A 
ATOM      3  C   UNL     1       2.453   3.956  17.599  0.00  0.00    +0.000 A 
ATOM      4  C   UNL     1       3.750   3.965  17.094  0.00  0.00    +0.000 A 
ATOM      5  C   UNL     1       4.527   5.135  17.099  0.00  0.00    +0.000 A 
ATOM      6  C   UNL     1       3.954   6.276  17.714  0.00  0.00    +0.000 A 
ENDROOT
BRANCH   1  11
ATOM      7  C   UNL     1       0.610  11.322  20.142  0.00  0.00    +0.000 C 
ATOM      8  C   UNL     1       1.117  10.024  19.598  0.00  0.00    +0.000 C 
ATOM      9  C   UNL     1       1.387   9.826  18.302  0.00  0.00    +0.000 C 
ATOM     10  C   UNL     1       1.820   8.502  17.746  0.00  0.00    +0.000 C 
ATOM     11  N   UNL     1       2.097   7.493  18.794  0.00  0.00    +0.000 N 
ATOM     12  C   UNL     1       1.748   7.709  20.137  0.00  0.00    +0.000 C 
ATOM     13  C   UNL     1       1.276   8.917  20.518  0.00  0.00    +0.000 C 
BRANCH  12  14
ATOM     14  N   UNL     1       1.826   6.732  21.112  0.00  0.00    +0.000 N 
ATOM     15  H   UNL     1       1.307   5.906  20.862  0.00  0.00    +0.000 HD
ATOM     16  H   UNL     1       2.776   6.537  21.412  0.00  0.00    +0.000 HD
ENDBRANCH  12  14
ENDBRANCH   1  11
BRANCH   5  17
ATOM     17  C   UNL     1       5.922   5.242  16.322  0.00  0.00    +0.000 C 
ATOM     18  C   UNL     1       6.737   3.912  16.374  0.00  0.00    +0.000 C 
ATOM     19  O   UNL     1       7.963   4.639  16.616  0.00  0.00    +0.000 OA
ATOM     20  C   UNL     1       7.182   5.786  17.057  0.00  0.00    +0.000 C 
BRANCH  17  21
ATOM     21  C   UNL     1       5.771   5.757  14.879  0.00  0.00    +0.000 C 
BRANCH  21  22
ATOM     22  C   UNL     1       6.012   4.731  13.819  0.00  0.00    +0.000 A 
ATOM     23  N   UNL     1       5.177   3.773  13.461  0.00  0.00    +0.000 NA
ATOM     24  N   UNL     1       5.714   3.110  12.386  0.00  0.00    +0.000 NA
ATOM     25  C   UNL     1       6.866   3.673  12.103  0.00  0.00    +0.000 A 
ATOM     26  N   UNL     1       7.097   4.682  12.988  0.00  0.00    +0.000 N 
ATOM     27  C   UNL     1       8.270   5.517  13.003  0.00  0.00    +0.000 C 
ENDBRANCH  21  22
ENDBRANCH  17  21
ENDBRANCH   5  17
TORSDOF 5
ENDMDL
MODEL 8
REMARK VINA RESULT:      -8.2      1.915      3.335
REMARK  Name = 
REMARK  7 active torsions:
REMARK  status: ('A' for Active; 'I' for Inactive)
REMARK    1  A    between atoms: C_1  and  C_2
REMARK    2  A    between atoms: N_5  and  C_6
REMARK    3  A    between atoms: C_10  and  C_11
REMARK    4  A    between atoms: C_11  and  C_12
REMARK    5  A    between atoms: C_12  and  C_13
REMARK    6  A    between atoms: N_17  and  C_18
REMARK    7  A    between atoms: C_23  and  N_24
REMARK                            x       y       z     vdW  Elec       q    Type
REMARK                         _______ _______ _______ _____ _____    ______ ____
ROOT
ATOM      1  C   UNL     1       2.611   5.555  18.492  0.00  0.00    +0.000 A 
ATOM      2  C   UNL     1       1.790   4.424  18.372  0.00  0.00    +0.000 A 
ATOM      3  C   UNL     1       2.212   3.286  17.687  0.00  0.00    +0.000 A 
ATOM      4  C   UNL     1       3.470   3.257  17.091  0.00  0.00    +0.000 A 
ATOM      5  C   UNL     1       4.318   4.375  17.122  0.00  0.00    +0.000 A 
ATOM      6  C   UNL     1       3.862   5.499  17.858  0.00  0.00    +0.000 A 
ENDROOT
BRANCH   1  11
ATOM      7  C   UNL     1       0.542  10.080  21.363  0.00  0.00    +0.000 C 
ATOM      8  C   UNL     1       1.100   8.879  20.667  0.00  0.00    +0.000 C 
ATOM      9  C   UNL     1       1.189   7.673  21.241  0.00  0.00    +0.000 C 
ATOM     10  C   UNL     1       1.821   6.489  20.571  0.00  0.00    +0.000 C 
ATOM     11  N   UNL     1       2.164   6.737  19.152  0.00  0.00    +0.000 N 
ATOM     12  C   UNL     1       2.115   8.026  18.596  0.00  0.00    +0.000 C 
ATOM     13  C   UNL     1       1.611   9.048  19.322  0.00  0.00    +0.000 C 
BRANCH  12  14
ATOM     14  N   UNL     1       2.593   8.331  17.335  0.00  0.00    +0.000 N 
ATOM     15  H   UNL     1       2.694   9.324  17.199  0.00  0.00    +0.000 HD
ATOM     16  H   UNL     1       3.419   7.801  17.077  0.00  0.00    +0.000 HD
ENDBRANCH  12  14
ENDBRANCH   1  11
BRANCH   5  17
ATOM     17  C   UNL     1       5.661   4.459  16.257  0.00  0.00    +0.000 C 
ATOM     18  C   UNL     1       5.627   5.619  15.214  0.00  0.00    +0.000 C 
ATOM     19  O   UNL     1       6.222   4.770  14.206  0.00  0.00    +0.000 OA
ATOM     20  C   UNL     1       5.811   3.599  14.967  0.00  0.00    +0.000 C 
BRANCH  17  21
ATOM     21  C   UNL     1       6.934   4.512  17.121  0.00  0.00    +0.000 C 
BRANCH  21  22
ATOM     22  C   UNL     1       7.431   5.890  17.421  0.00  0.00    +0.000 A 
ATOM     23  N   UNL     1       7.477   6.901  16.574  0.00  0.00    +0.000 NA
ATOM     24  N   UNL     1       7.891   8.018  17.254  0.00  0.00    +0.000 NA
ATOM     25  C   UNL     1       8.090   7.674  18.506  0.00  0.00    +0.000 A 
ATOM     26  N   UNL     1       7.829   6.345  18.649  0.00  0.00    +0.000 N 
ATOM     27  C   UNL     1       7.954   5.604  19.877  0.00  0.00    +0.000 C 
ENDBRANCH  21  22
ENDBRANCH  17  21
ENDBRANCH   5  17
TORSDOF 5
ENDMDL
MODEL 9
REMARK VINA RESULT:      -8.2      2.964      6.387
REMARK  Name = 
REMARK  7 active torsions:
REMARK  status: ('A' for Active; 'I' for Inactive)
REMARK    1  A    between atoms: C_1  and  C_2
REMARK    2  A    between atoms: N_5  and  C_6
REMARK    3  A    between atoms: C_10  and  C_11
REMARK    4  A    between atoms: C_11  and  C_12
REMARK    5  A    between atoms: C_12  and  C_13
REMARK    6  A    between atoms: N_17  and  C_18
REMARK    7  A    between atoms: C_23  and  N_24
REMARK                            x       y       z     vdW  Elec       q    Type
REMARK                         _______ _______ _______ _____ _____    ______ ____
ROOT
ATOM      1  C   UNL     1       6.577   5.750  16.992  0.00  0.00    +0.000 A 
ATOM      2  C   UNL     1       7.032   5.205  15.782  0.00  0.00    +0.000 A 
ATOM      3  C   UNL     1       6.383   4.131  15.175  0.00  0.00    +0.000 A 
ATOM      4  C   UNL     1       5.262   3.565  15.776  0.00  0.00    +0.000 A 
ATOM      5  C   UNL     1       4.788   4.024  17.016  0.00  0.00    +0.000 A 
ATOM      6  C   UNL     1       5.459   5.139  17.580  0.00  0.00    +0.000 A 
ENDROOT
BRANCH   1  11
ATOM      7  C   UNL     1       9.399  10.232  19.217  0.00  0.00    +0.000 C 
ATOM      8  C   UNL     1       8.621   9.102  18.620  0.00  0.00    +0.000 C 
ATOM      9  C   UNL     1       7.809   9.245  17.565  0.00  0.00    +0.000 C 
ATOM     10  C   UNL     1       6.969   8.131  17.017  0.00  0.00    +0.000 C 
ATOM     11  N   UNL     1       7.267   6.819  17.636  0.00  0.00    +0.000 N 
ATOM     12  C   UNL     1       8.076   6.709  18.778  0.00  0.00    +0.000 C 
ATOM     13  C   UNL     1       8.719   7.801  19.249  0.00  0.00    +0.000 C 
BRANCH  12  14
ATOM     14  N   UNL     1       8.237   5.534  19.489  0.00  0.00    +0.000 N 
ATOM     15  H   UNL     1       7.746   4.764  19.063  0.00  0.00    +0.000 HD
ATOM     16  H   UNL     1       9.205   5.325  19.709  0.00  0.00    +0.000 HD
ENDBRANCH  12  14
ENDBRANCH   1  11
BRANCH   5  17
ATOM     17  C   UNL     1       3.654   3.253  17.841  0.00  0.00    +0.000 C 
ATOM     18  C   UNL     1       4.116   2.881  19.284  0.00  0.00    +0.000 C 
ATOM     19  O   UNL     1       3.512   1.571  19.170  0.00  0.00    +0.000 OA
ATOM     20  C   UNL     1       3.520   1.707  17.721  0.00  0.00    +0.000 C 
BRANCH  17  21
ATOM     21  C   UNL     1       2.306   3.996  17.852  0.00  0.00    +0.000 C 
BRANCH  21  22
ATOM     22  C   UNL     1       2.168   5.028  18.926  0.00  0.00    +0.000 A 
ATOM     23  N   UNL     1       2.529   6.295  18.838  0.00  0.00    +0.000 NA
ATOM     24  N   UNL     1       2.141   6.937  19.987  0.00  0.00    +0.000 NA
ATOM     25  C   UNL     1       1.550   6.054  20.759  0.00  0.00    +0.000 A 
ATOM     26  N   UNL     1       1.561   4.842  20.138  0.00  0.00    +0.000 N 
ATOM     27  C   UNL     1       1.018   3.626  20.686  0.00  0.00    +0.000 C 
ENDBRANCH  21  22
ENDBRANCH  17  21
ENDBRANCH   5  17
TORSDOF 5
ENDMDL
