MODEL 1
REMARK VINA RESULT:      -8.0      0.000      0.000
REMARK  Name = 
REMARK  7 active torsions:
REMARK  status: ('A' for Active; 'I' for Inactive)
REMARK    1  A    between atoms: C_2  and  C_16
REMARK    2  A    between atoms: N_3  and  C_4
REMARK    3  A    between atoms: C_4  and  C_5
REMARK    4  A    between atoms: C_5  and  C_6
REMARK    5  A    between atoms: C_6  and  C_7
REMARK    6  A    between atoms: N_18  and  C_19
REMARK    7  A    between atoms: C_24  and  C_25
REMARK                            x       y       z     vdW  Elec       q    Type
REMARK                         _______ _______ _______ _____ _____    ______ ____
ROOT
ATOM      1  O   UNL     1       3.724   6.172  19.681  0.00  0.00    +0.000 OA
ATOM      2  C   UNL     1       2.565   6.573  19.609  0.00  0.00    +0.000 C 
ATOM      3  N   UNL     1       1.501   5.859  20.107  0.00  0.00    +0.000 N 
ATOM      4  H   UNL     1       0.570   6.252  20.008  0.00  0.00    +0.000 HD
ENDROOT
BRANCH   2   5
ATOM      5  C   UNL     1       2.232   7.841  18.994  0.00  0.00    +0.000 A 
ATOM      6  C   UNL     1       1.629   8.905  19.630  0.00  0.00    +0.000 A 
ATOM      7  N   UNL     1       1.392   9.822  18.642  0.00  0.00    +0.000 N 
ATOM      8  N   UNL     1       1.933   9.387  17.480  0.00  0.00    +0.000 NA
ATOM      9  N   UNL     1       2.434   8.171  17.679  0.00  0.00    +0.000 NA
BRANCH   7  10
ATOM     10  C   UNL     1       0.782  11.087  18.784  0.00  0.00    +0.000 A 
ATOM     11  C   UNL     1       1.582  12.147  19.259  0.00  0.00    +0.000 A 
ATOM     12  C   UNL     1       1.074  13.442  19.336  0.00  0.00    +0.000 A 
ATOM     13  C   UNL     1      -0.236  13.694  18.948  0.00  0.00    +0.000 A 
ATOM     14  C   UNL     1      -1.048  12.641  18.521  0.00  0.00    +0.000 A 
ATOM     15  C   UNL     1      -0.569  11.312  18.457  0.00  0.00    +0.000 A 
BRANCH  15  16
ATOM     16  C   UNL     1      -1.600  10.234  18.180  0.00  0.00    +0.000 C 
ATOM     17  F   UNL     1      -2.869  10.654  17.946  0.00  0.00    +0.000 F 
ATOM     18  F   UNL     1      -1.273   9.534  17.048  0.00  0.00    +0.000 F 
ATOM     19  F   UNL     1      -1.667   9.302  19.169  0.00  0.00    +0.000 F 
ENDBRANCH  15  16
ENDBRANCH   7  10
ENDBRANCH   2   5
BRANCH   3  20
ATOM     20  C   UNL     1       1.690   4.564  20.728  0.00  0.00    +0.000 C 
BRANCH  20  21
ATOM     21  C   UNL     1       1.630   3.409  19.730  0.00  0.00    +0.000 C 
BRANCH  21  22
ATOM     22  C   UNL     1       2.938   2.620  19.692  0.00  0.00    +0.000 C 
BRANCH  22  23
ATOM     23  C   UNL     1       3.889   3.188  18.696  0.00  0.00    +0.000 A 
ATOM     24  N   UNL     1       3.664   3.371  17.412  0.00  0.00    +0.000 NA
ATOM     25  C   UNL     1       4.827   3.903  16.907  0.00  0.00    +0.000 A 
ATOM     26  C   UNL     1       5.144   4.290  15.597  0.00  0.00    +0.000 A 
ATOM     27  C   UNL     1       6.418   4.814  15.340  0.00  0.00    +0.000 A 
ATOM     28  C   UNL     1       7.357   4.946  16.367  0.00  0.00    +0.000 A 
ATOM     29  C   UNL     1       7.059   4.563  17.679  0.00  0.00    +0.000 A 
ATOM     30  C   UNL     1       5.782   4.047  17.906  0.00  0.00    +0.000 A 
ATOM     31  N   UNL     1       5.159   3.583  19.035  0.00  0.00    +0.000 N 
ATOM     32  H   UNL     1       5.564   3.539  19.959  0.00  0.00    +0.000 HD
ENDBRANCH  22  23
ENDBRANCH  21  22
ENDBRANCH  20  21
ENDBRANCH   3  20
TORSDOF 7
ENDMDL
MODEL 2
REMARK VINA RESULT:      -7.9      3.388      8.764
REMARK  Name = 
REMARK  7 active torsions:
REMARK  status: ('A' for Active; 'I' for Inactive)
REMARK    1  A    between atoms: C_2  and  C_16
REMARK    2  A    between atoms: N_3  and  C_4
REMARK    3  A    between atoms: C_4  and  C_5
REMARK    4  A    between atoms: C_5  and  C_6
REMARK    5  A    between atoms: C_6  and  C_7
REMARK    6  A    between atoms: N_18  and  C_19
REMARK    7  A    between atoms: C_24  and  C_25
REMARK                            x       y       z     vdW  Elec       q    Type
REMARK                         _______ _______ _______ _____ _____    ______ ____
ROOT
ATOM      1  O   UNL     1       1.161   5.384  20.431  0.00  0.00    +0.000 OA
ATOM      2  C   UNL     1       2.121   6.095  20.140  0.00  0.00    +0.000 C 
ATOM      3  N   UNL     1       2.159   7.441  20.421  0.00  0.00    +0.000 N 
ATOM      4  H   UNL     1       2.983   7.966  20.148  0.00  0.00    +0.000 HD
ENDROOT
BRANCH   2   5
ATOM      5  C   UNL     1       3.294   5.563  19.479  0.00  0.00    +0.000 A 
ATOM      6  C   UNL     1       3.670   5.828  18.180  0.00  0.00    +0.000 A 
ATOM      7  N   UNL     1       4.748   5.017  17.950  0.00  0.00    +0.000 N 
ATOM      8  N   UNL     1       5.087   4.376  19.093  0.00  0.00    +0.000 NA
ATOM      9  N   UNL     1       4.196   4.690  20.030  0.00  0.00    +0.000 NA
BRANCH   7  10
ATOM     10  C   UNL     1       5.494   4.911  16.756  0.00  0.00    +0.000 A 
ATOM     11  C   UNL     1       5.145   3.880  15.859  0.00  0.00    +0.000 A 
ATOM     12  C   UNL     1       5.774   3.772  14.621  0.00  0.00    +0.000 A 
ATOM     13  C   UNL     1       6.762   4.683  14.266  0.00  0.00    +0.000 A 
ATOM     14  C   UNL     1       7.146   5.677  15.169  0.00  0.00    +0.000 A 
ATOM     15  C   UNL     1       6.543   5.796  16.443  0.00  0.00    +0.000 A 
BRANCH  15  16
ATOM     16  C   UNL     1       7.186   6.777  17.406  0.00  0.00    +0.000 C 
ATOM     17  F   UNL     1       6.347   7.611  18.071  0.00  0.00    +0.000 F 
ATOM     18  F   UNL     1       7.843   6.110  18.406  0.00  0.00    +0.000 F 
ATOM     19  F   UNL     1       8.132   7.555  16.813  0.00  0.00    +0.000 F 
ENDBRANCH  15  16
ENDBRANCH   7  10
ENDBRANCH   2   5
BRANCH   3  20
ATOM     20  C   UNL     1       1.043   8.106  21.062  0.00  0.00    +0.000 C 
BRANCH  20  21
ATOM     21  C   UNL     1       0.943   9.587  20.699  0.00  0.00    +0.000 C 
BRANCH  21  22
ATOM     22  C   UNL     1       1.037   9.813  19.192  0.00  0.00    +0.000 C 
BRANCH  22  23
ATOM     23  C   UNL     1      -0.283  10.192  18.613  0.00  0.00    +0.000 A 
ATOM     24  N   UNL     1      -1.237  10.871  19.214  0.00  0.00    +0.000 NA
ATOM     25  C   UNL     1      -2.256  10.963  18.297  0.00  0.00    +0.000 A 
ATOM     26  C   UNL     1      -3.512  11.579  18.407  0.00  0.00    +0.000 A 
ATOM     27  C   UNL     1      -4.382  11.532  17.309  0.00  0.00    +0.000 A 
ATOM     28  C   UNL     1      -4.010  10.883  16.129  0.00  0.00    +0.000 A 
ATOM     29  C   UNL     1      -2.763  10.261  16.002  0.00  0.00    +0.000 A 
ATOM     30  C   UNL     1      -1.916  10.325  17.110  0.00  0.00    +0.000 A 
ATOM     31  N   UNL     1      -0.654   9.842  17.339  0.00  0.00    +0.000 N 
ATOM     32  H   UNL     1      -0.093   9.318  16.683  0.00  0.00    +0.000 HD
ENDBRANCH  22  23
ENDBRANCH  21  22
ENDBRANCH  20  21
ENDBRANCH   3  20
TORSDOF 7
ENDMDL
MODEL 3
REMARK VINA RESULT:      -7.8      5.870      9.247
REMARK  Name = 
REMARK  7 active torsions:
REMARK  status: ('A' for Active; 'I' for Inactive)
REMARK    1  A    between atoms: C_2  and  C_16
REMARK    2  A    between atoms: N_3  and  C_4
REMARK    3  A    between atoms: C_4  and  C_5
REMARK    4  A    between atoms: C_5  and  C_6
REMARK    5  A    between atoms: C_6  and  C_7
REMARK    6  A    between atoms: N_18  and  C_19
REMARK    7  A    between atoms: C_24  and  C_25
REMARK                            x       y       z     vdW  Elec       q    Type
REMARK                         _______ _______ _______ _____ _____    ______ ____
ROOT
ATOM      1  O   UNL     1       7.542   6.582  16.281  0.00  0.00    +0.000 OA
ATOM      2  C   UNL     1       7.150   6.746  17.434  0.00  0.00    +0.000 C 
ATOM      3  N   UNL     1       7.449   7.871  18.166  0.00  0.00    +0.000 N 
ATOM      4  H   UNL     1       7.094   7.936  19.115  0.00  0.00    +0.000 HD
ENDROOT
BRANCH   2   5
ATOM      5  C   UNL     1       6.334   5.760  18.112  0.00  0.00    +0.000 A 
ATOM      6  C   UNL     1       4.958   5.773  18.181  0.00  0.00    +0.000 A 
ATOM      7  N   UNL     1       4.635   4.740  19.020  0.00  0.00    +0.000 N 
ATOM      8  N   UNL     1       5.756   4.056  19.350  0.00  0.00    +0.000 NA
ATOM      9  N   UNL     1       6.801   4.680  18.814  0.00  0.00    +0.000 NA
BRANCH   7  10
ATOM     10  C   UNL     1       3.341   4.341  19.420  0.00  0.00    +0.000 A 
ATOM     11  C   UNL     1       2.835   4.882  20.620  0.00  0.00    +0.000 A 
ATOM     12  C   UNL     1       1.532   4.606  21.029  0.00  0.00    +0.000 A 
ATOM     13  C   UNL     1       0.723   3.786  20.253  0.00  0.00    +0.000 A 
ATOM     14  C   UNL     1       1.234   3.209  19.088  0.00  0.00    +0.000 A 
ATOM     15  C   UNL     1       2.560   3.449  18.661  0.00  0.00    +0.000 A 
BRANCH  15  16
ATOM     16  C   UNL     1       3.060   2.607  17.502  0.00  0.00    +0.000 C 
ATOM     17  F   UNL     1       4.142   1.824  17.743  0.00  0.00    +0.000 F 
ATOM     18  F   UNL     1       2.098   1.719  17.100  0.00  0.00    +0.000 F 
ATOM     19  F   UNL     1       3.346   3.348  16.397  0.00  0.00    +0.000 F 
ENDBRANCH  15  16
ENDBRANCH   7  10
ENDBRANCH   2   5
BRANCH   3  20
ATOM     20  C   UNL     1       8.275   8.927  17.617  0.00  0.00    +0.000 C 
BRANCH  20  21
ATOM     21  C   UNL     1       8.795   9.892  18.681  0.00  0.00    +0.000 C 
BRANCH  21  22
ATOM     22  C   UNL     1       9.590  11.043  18.067  0.00  0.00    +0.000 C 
BRANCH  22  23
ATOM     23  C   UNL     1       9.540  12.260  18.923  0.00  0.00    +0.000 A 
ATOM     24  N   UNL     1      10.180  12.448  20.058  0.00  0.00    +0.000 NA
ATOM     25  C   UNL     1       9.816  13.703  20.483  0.00  0.00    +0.000 A 
ATOM     26  C   UNL     1      10.200  14.411  21.631  0.00  0.00    +0.000 A 
ATOM     27  C   UNL     1       9.680  15.696  21.835  0.00  0.00    +0.000 A 
ATOM     28  C   UNL     1       8.794  16.263  20.914  0.00  0.00    +0.000 A 
ATOM     29  C   UNL     1       8.398  15.572  19.764  0.00  0.00    +0.000 A 
ATOM     30  C   UNL     1       8.933  14.295  19.587  0.00  0.00    +0.000 A 
ATOM     31  N   UNL     1       8.774  13.353  18.603  0.00  0.00    +0.000 N 
ATOM     32  H   UNL     1       8.192  13.447  17.783  0.00  0.00    +0.000 HD
ENDBRANCH  22  23
ENDBRANCH  21  22
ENDBRANCH  20  21
ENDBRANCH   3  20
TORSDOF 7
ENDMDL
MODEL 4
REMARK VINA RESULT:      -7.8      1.311      3.319
REMARK  Name = 
REMARK  7 active torsions:
REMARK  status: ('A' for Active; 'I' for Inactive)
REMARK    1  A    between atoms: C_2  and  C_16
REMARK    2  A    between atoms: N_3  and  C_4
REMARK    3  A    between atoms: C_4  and  C_5
REMARK    4  A    between atoms: C_5  and  C_6
REMARK    5  A    between atoms: C_6  and  C_7
REMARK    6  A    between atoms: N_18  and  C_19
REMARK    7  A    between atoms: C_24  and  C_25
REMARK                            x       y       z     vdW  Elec       q    Type
REMARK                         _______ _______ _______ _____ _____    ______ ____
ROOT
ATOM      1  O   UNL     1       2.486   5.960  17.621  0.00  0.00    +0.000 OA
ATOM      2  C   UNL     1       2.972   7.067  17.838  0.00  0.00    +0.000 C 
ATOM      3  N   UNL     1       4.252   7.402  17.461  0.00  0.00    +0.000 N 
ATOM      4  H   UNL     1       4.587   8.336  17.678  0.00  0.00    +0.000 HD
ENDROOT
BRANCH   2   5
ATOM      5  C   UNL     1       2.226   8.112  18.507  0.00  0.00    +0.000 A 
ATOM      6  C   UNL     1       1.857   9.316  17.948  0.00  0.00    +0.000 A 
ATOM      7  N   UNL     1       1.295  10.027  18.973  0.00  0.00    +0.000 N 
ATOM      8  N   UNL     1       1.215   9.247  20.077  0.00  0.00    +0.000 NA
ATOM      9  N   UNL     1       1.795   8.081  19.809  0.00  0.00    +0.000 NA
BRANCH   7  10
ATOM     10  C   UNL     1       0.763  11.334  18.912  0.00  0.00    +0.000 A 
ATOM     11  C   UNL     1       1.581  12.391  19.362  0.00  0.00    +0.000 A 
ATOM     12  C   UNL     1       1.160  13.714  19.245  0.00  0.00    +0.000 A 
ATOM     13  C   UNL     1      -0.081  13.997  18.687  0.00  0.00    +0.000 A 
ATOM     14  C   UNL     1      -0.915  12.953  18.284  0.00  0.00    +0.000 A 
ATOM     15  C   UNL     1      -0.526  11.599  18.413  0.00  0.00    +0.000 A 
BRANCH  15  16
ATOM     16  C   UNL     1      -1.595  10.559  18.135  0.00  0.00    +0.000 C 
ATOM     17  F   UNL     1      -2.836  11.027  17.846  0.00  0.00    +0.000 F 
ATOM     18  F   UNL     1      -1.264   9.810  17.037  0.00  0.00    +0.000 F 
ATOM     19  F   UNL     1      -1.735   9.663  19.149  0.00  0.00    +0.000 F 
ENDBRANCH  15  16
ENDBRANCH   7  10
ENDBRANCH   2   5
BRANCH   3  20
ATOM     20  C   UNL     1       5.116   6.445  16.803  0.00  0.00    +0.000 C 
BRANCH  20  21
ATOM     21  C   UNL     1       6.384   6.139  17.598  0.00  0.00    +0.000 C 
BRANCH  21  22
ATOM     22  C   UNL     1       6.506   4.652  17.928  0.00  0.00    +0.000 C 
BRANCH  22  23
ATOM     23  C   UNL     1       5.230   4.107  18.469  0.00  0.00    +0.000 A 
ATOM     24  N   UNL     1       4.711   4.353  19.654  0.00  0.00    +0.000 NA
ATOM     25  C   UNL     1       3.547   3.624  19.704  0.00  0.00    +0.000 A 
ATOM     26  C   UNL     1       2.599   3.515  20.732  0.00  0.00    +0.000 A 
ATOM     27  C   UNL     1       1.481   2.695  20.531  0.00  0.00    +0.000 A 
ATOM     28  C   UNL     1       1.313   1.996  19.332  0.00  0.00    +0.000 A 
ATOM     29  C   UNL     1       2.249   2.091  18.297  0.00  0.00    +0.000 A 
ATOM     30  C   UNL     1       3.352   2.917  18.524  0.00  0.00    +0.000 A 
ATOM     31  N   UNL     1       4.439   3.242  17.755  0.00  0.00    +0.000 N 
ATOM     32  H   UNL     1       4.626   2.903  16.823  0.00  0.00    +0.000 HD
ENDBRANCH  22  23
ENDBRANCH  21  22
ENDBRANCH  20  21
ENDBRANCH   3  20
TORSDOF 7
ENDMDL
MODEL 5
REMARK VINA RESULT:      -7.8      1.982      3.871
REMARK  Name = 
REMARK  7 active torsions:
REMARK  status: ('A' for Active; 'I' for Inactive)
REMARK    1  A    between atoms: C_2  and  C_16
REMARK    2  A    between atoms: N_3  and  C_4
REMARK    3  A    between atoms: C_4  and  C_5
REMARK    4  A    between atoms: C_5  and  C_6
REMARK    5  A    between atoms: C_6  and  C_7
REMARK    6  A    between atoms: N_18  and  C_19
REMARK    7  A    between atoms: C_24  and  C_25
REMARK                            x       y       z     vdW  Elec       q    Type
REMARK                         _______ _______ _______ _____ _____    ______ ____
ROOT
ATOM      1  O   UNL     1       4.176   6.092  19.330  0.00  0.00    +0.000 OA
ATOM      2  C   UNL     1       3.699   6.905  18.540  0.00  0.00    +0.000 C 
ATOM      3  N   UNL     1       4.216   7.107  17.282  0.00  0.00    +0.000 N 
ATOM      4  H   UNL     1       3.772   7.797  16.685  0.00  0.00    +0.000 HD
ENDROOT
BRANCH   2   5
ATOM      5  C   UNL     1       2.544   7.710  18.876  0.00  0.00    +0.000 A 
ATOM      6  C   UNL     1       1.850   8.519  18.002  0.00  0.00    +0.000 A 
ATOM      7  N   UNL     1       0.936   9.178  18.778  0.00  0.00    +0.000 N 
ATOM      8  N   UNL     1       0.990   8.705  20.046  0.00  0.00    +0.000 NA
ATOM      9  N   UNL     1       1.980   7.820  20.121  0.00  0.00    +0.000 NA
BRANCH   7  10
ATOM     10  C   UNL     1      -0.014  10.131  18.350  0.00  0.00    +0.000 A 
ATOM     11  C   UNL     1      -1.108   9.665  17.591  0.00  0.00    +0.000 A 
ATOM     12  C   UNL     1      -2.131  10.531  17.214  0.00  0.00    +0.000 A 
ATOM     13  C   UNL     1      -2.074  11.870  17.582  0.00  0.00    +0.000 A 
ATOM     14  C   UNL     1      -0.971  12.348  18.292  0.00  0.00    +0.000 A 
ATOM     15  C   UNL     1       0.096  11.498  18.667  0.00  0.00    +0.000 A 
BRANCH  15  16
ATOM     16  C   UNL     1       1.324  12.172  19.249  0.00  0.00    +0.000 C 
ATOM     17  F   UNL     1       1.660  11.828  20.518  0.00  0.00    +0.000 F 
ATOM     18  F   UNL     1       2.440  11.855  18.519  0.00  0.00    +0.000 F 
ATOM     19  F   UNL     1       1.248  13.530  19.213  0.00  0.00    +0.000 F 
ENDBRANCH  15  16
ENDBRANCH   7  10
ENDBRANCH   2   5
BRANCH   3  20
ATOM     20  C   UNL     1       5.384   6.382  16.825  0.00  0.00    +0.000 C 
BRANCH  20  21
ATOM     21  C   UNL     1       5.076   5.414  15.682  0.00  0.00    +0.000 C 
BRANCH  21  22
ATOM     22  C   UNL     1       5.209   3.957  16.119  0.00  0.00    +0.000 C 
BRANCH  22  23
ATOM     23  C   UNL     1       4.221   3.613  17.180  0.00  0.00    +0.000 A 
ATOM     24  N   UNL     1       2.910   3.623  17.066  0.00  0.00    +0.000 NA
ATOM     25  C   UNL     1       2.430   3.250  18.298  0.00  0.00    +0.000 A 
ATOM     26  C   UNL     1       1.107   3.096  18.738  0.00  0.00    +0.000 A 
ATOM     27  C   UNL     1       0.881   2.697  20.062  0.00  0.00    +0.000 A 
ATOM     28  C   UNL     1       1.951   2.459  20.930  0.00  0.00    +0.000 A 
ATOM     29  C   UNL     1       3.277   2.610  20.509  0.00  0.00    +0.000 A 
ATOM     30  C   UNL     1       3.472   3.006  19.185  0.00  0.00    +0.000 A 
ATOM     31  N   UNL     1       4.602   3.246  18.447  0.00  0.00    +0.000 N 
ATOM     32  H   UNL     1       5.552   3.166  18.779  0.00  0.00    +0.000 HD
ENDBRANCH  22  23
ENDBRANCH  21  22
ENDBRANCH  20  21
ENDBRANCH   3  20
TORSDOF 7
ENDMDL
MODEL 6
REMARK VINA RESULT:      -7.8      5.846      8.934
REMARK  Name = 
REMARK  7 active torsions:
REMARK  status: ('A' for Active; 'I' for Inactive)
REMARK    1  A    between atoms: C_2  and  C_16
REMARK    2  A    between atoms: N_3  and  C_4
REMARK    3  A    between atoms: C_4  and  C_5
REMARK    4  A    between atoms: C_5  and  C_6
REMARK    5  A    between atoms: C_6  and  C_7
REMARK    6  A    between atoms: N_18  and  C_19
REMARK    7  A    between atoms: C_24  and  C_25
REMARK                            x       y       z     vdW  Elec       q    Type
REMARK                         _______ _______ _______ _____ _____    ______ ____
ROOT
ATOM      1  O   UNL     1       7.564   6.230  16.056  0.00  0.00    +0.000 OA
ATOM      2  C   UNL     1       7.172   6.394  17.209  0.00  0.00    +0.000 C 
ATOM      3  N   UNL     1       7.497   7.505  17.952  0.00  0.00    +0.000 N 
ATOM      4  H   UNL     1       7.140   7.570  18.899  0.00  0.00    +0.000 HD
ENDROOT
BRANCH   2   5
ATOM      5  C   UNL     1       6.327   5.424  17.875  0.00  0.00    +0.000 A 
ATOM      6  C   UNL     1       5.011   5.161  17.561  0.00  0.00    +0.000 A 
ATOM      7  N   UNL     1       4.586   4.285  18.523  0.00  0.00    +0.000 N 
ATOM      8  N   UNL     1       5.628   3.938  19.315  0.00  0.00    +0.000 NA
ATOM      9  N   UNL     1       6.693   4.640  18.938  0.00  0.00    +0.000 NA
BRANCH   7  10
ATOM     10  C   UNL     1       3.300   3.715  18.647  0.00  0.00    +0.000 A 
ATOM     11  C   UNL     1       3.091   2.447  18.065  0.00  0.00    +0.000 A 
ATOM     12  C   UNL     1       1.876   1.783  18.227  0.00  0.00    +0.000 A 
ATOM     13  C   UNL     1       0.858   2.376  18.962  0.00  0.00    +0.000 A 
ATOM     14  C   UNL     1       1.041   3.652  19.500  0.00  0.00    +0.000 A 
ATOM     15  C   UNL     1       2.253   4.361  19.331  0.00  0.00    +0.000 A 
BRANCH  15  16
ATOM     16  C   UNL     1       2.257   5.810  19.781  0.00  0.00    +0.000 C 
ATOM     17  F   UNL     1       3.424   6.287  20.282  0.00  0.00    +0.000 F 
ATOM     18  F   UNL     1       1.990   6.643  18.726  0.00  0.00    +0.000 F 
ATOM     19  F   UNL     1       1.291   6.079  20.701  0.00  0.00    +0.000 F 
ENDBRANCH  15  16
ENDBRANCH   7  10
ENDBRANCH   2   5
BRANCH   3  20
ATOM     20  C   UNL     1       8.353   8.542  17.415  0.00  0.00    +0.000 C 
BRANCH  20  21
ATOM     21  C   UNL     1       8.579   9.695  18.392  0.00  0.00    +0.000 C 
BRANCH  21  22
ATOM     22  C   UNL     1       8.223  11.045  17.774  0.00  0.00    +0.000 C 
BRANCH  22  23
ATOM     23  C   UNL     1       9.149  12.117  18.232  0.00  0.00    +0.000 A 
ATOM     24  N   UNL     1      10.067  12.724  17.509  0.00  0.00    +0.000 NA
ATOM     25  C   UNL     1      10.672  13.619  18.358  0.00  0.00    +0.000 A 
ATOM     26  C   UNL     1      11.715  14.525  18.115  0.00  0.00    +0.000 A 
ATOM     27  C   UNL     1      12.156  15.341  19.165  0.00  0.00    +0.000 A 
ATOM     28  C   UNL     1      11.571  15.254  20.432  0.00  0.00    +0.000 A 
ATOM     29  C   UNL     1      10.531  14.356  20.693  0.00  0.00    +0.000 A 
ATOM     30  C   UNL     1      10.112  13.557  19.628  0.00  0.00    +0.000 A 
ATOM     31  N   UNL     1       9.144  12.591  19.520  0.00  0.00    +0.000 N 
ATOM     32  H   UNL     1       8.533  12.281  20.262  0.00  0.00    +0.000 HD
ENDBRANCH  22  23
ENDBRANCH  21  22
ENDBRANCH  20  21
ENDBRANCH   3  20
TORSDOF 7
ENDMDL
MODEL 7
REMARK VINA RESULT:      -7.8      6.796      8.295
REMARK  Name = 
REMARK  7 active torsions:
REMARK  status: ('A' for Active; 'I' for Inactive)
REMARK    1  A    between atoms: C_2  and  C_16
REMARK    2  A    between atoms: N_3  and  C_4
REMARK    3  A    between atoms: C_4  and  C_5
REMARK    4  A    between atoms: C_5  and  C_6
REMARK    5  A    between atoms: C_6  and  C_7
REMARK    6  A    between atoms: N_18  and  C_19
REMARK    7  A    between atoms: C_24  and  C_25
REMARK                            x       y       z     vdW  Elec       q    Type
REMARK                         _______ _______ _______ _____ _____    ______ ____
ROOT
ATOM      1  O   UNL     1       8.577   7.314  18.961  0.00  0.00    +0.000 OA
ATOM      2  C   UNL     1       8.141   8.093  18.116  0.00  0.00    +0.000 C 
ATOM      3  N   UNL     1       7.384   7.677  17.045  0.00  0.00    +0.000 N 
ATOM      4  H   UNL     1       7.061   8.377  16.385  0.00  0.00    +0.000 HD
ENDROOT
BRANCH   2   5
ATOM      5  C   UNL     1       8.390   9.517  18.188  0.00  0.00    +0.000 A 
ATOM      6  C   UNL     1       9.142  10.151  19.153  0.00  0.00    +0.000 A 
ATOM      7  N   UNL     1       8.991  11.487  18.901  0.00  0.00    +0.000 N 
ATOM      8  N   UNL     1       8.278  11.658  17.763  0.00  0.00    +0.000 NA
ATOM      9  N   UNL     1       7.892  10.461  17.327  0.00  0.00    +0.000 NA
BRANCH   7  10
ATOM     10  C   UNL     1       9.563  12.559  19.621  0.00  0.00    +0.000 A 
ATOM     11  C   UNL     1       8.986  12.889  20.865  0.00  0.00    +0.000 A 
ATOM     12  C   UNL     1       9.553  13.872  21.673  0.00  0.00    +0.000 A 
ATOM     13  C   UNL     1      10.694  14.541  21.248  0.00  0.00    +0.000 A 
ATOM     14  C   UNL     1      11.242  14.254  19.996  0.00  0.00    +0.000 A 
ATOM     15  C   UNL     1      10.674  13.279  19.143  0.00  0.00    +0.000 A 
BRANCH  15  16
ATOM     16  C   UNL     1      11.233  13.205  17.735  0.00  0.00    +0.000 C 
ATOM     17  F   UNL     1      10.413  13.618  16.735  0.00  0.00    +0.000 F 
ATOM     18  F   UNL     1      12.333  14.012  17.609  0.00  0.00    +0.000 F 
ATOM     19  F   UNL     1      11.665  11.958  17.404  0.00  0.00    +0.000 F 
ENDBRANCH  15  16
ENDBRANCH   7  10
ENDBRANCH   2   5
BRANCH   3  20
ATOM     20  C   UNL     1       7.078   6.276  16.841  0.00  0.00    +0.000 C 
BRANCH  20  21
ATOM     21  C   UNL     1       5.657   6.044  16.331  0.00  0.00    +0.000 C 
BRANCH  21  22
ATOM     22  C   UNL     1       4.620   6.778  17.180  0.00  0.00    +0.000 C 
BRANCH  22  23
ATOM     23  C   UNL     1       3.682   5.828  17.840  0.00  0.00    +0.000 A 
ATOM     24  N   UNL     1       3.058   6.009  18.984  0.00  0.00    +0.000 NA
ATOM     25  C   UNL     1       2.321   4.867  19.186  0.00  0.00    +0.000 A 
ATOM     26  C   UNL     1       1.469   4.522  20.246  0.00  0.00    +0.000 A 
ATOM     27  C   UNL     1       0.824   3.278  20.213  0.00  0.00    +0.000 A 
ATOM     28  C   UNL     1       1.025   2.397  19.147  0.00  0.00    +0.000 A 
ATOM     29  C   UNL     1       1.872   2.723  18.083  0.00  0.00    +0.000 A 
ATOM     30  C   UNL     1       2.500   3.968  18.142  0.00  0.00    +0.000 A 
ATOM     31  N   UNL     1       3.373   4.605  17.298  0.00  0.00    +0.000 N 
ATOM     32  H   UNL     1       3.728   4.238  16.427  0.00  0.00    +0.000 HD
ENDBRANCH  22  23
ENDBRANCH  21  22
ENDBRANCH  20  21
ENDBRANCH   3  20
TORSDOF 7
ENDMDL
MODEL 8
REMARK VINA RESULT:      -7.8      5.371      9.026
REMARK  Name = 
REMARK  7 active torsions:
REMARK  status: ('A' for Active; 'I' for Inactive)
REMARK    1  A    between atoms: C_2  and  C_16
REMARK    2  A    between atoms: N_3  and  C_4
REMARK    3  A    between atoms: C_4  and  C_5
REMARK    4  A    between atoms: C_5  and  C_6
REMARK    5  A    between atoms: C_6  and  C_7
REMARK    6  A    between atoms: N_18  and  C_19
REMARK    7  A    between atoms: C_24  and  C_25
REMARK                            x       y       z     vdW  Elec       q    Type
REMARK                         _______ _______ _______ _____ _____    ______ ____
ROOT
ATOM      1  O   UNL     1       7.672   6.411  16.114  0.00  0.00    +0.000 OA
ATOM      2  C   UNL     1       7.206   6.547  17.243  0.00  0.00    +0.000 C 
ATOM      3  N   UNL     1       7.427   7.670  18.005  0.00  0.00    +0.000 N 
ATOM      4  H   UNL     1       7.013   7.712  18.931  0.00  0.00    +0.000 HD
ENDROOT
BRANCH   2   5
ATOM      5  C   UNL     1       6.379   5.530  17.857  0.00  0.00    +0.000 A 
ATOM      6  C   UNL     1       5.062   5.274  17.546  0.00  0.00    +0.000 A 
ATOM      7  N   UNL     1       4.658   4.335  18.456  0.00  0.00    +0.000 N 
ATOM      8  N   UNL     1       5.713   3.949  19.210  0.00  0.00    +0.000 NA
ATOM      9  N   UNL     1       6.767   4.684  18.864  0.00  0.00    +0.000 NA
BRANCH   7  10
ATOM     10  C   UNL     1       3.378   3.746  18.560  0.00  0.00    +0.000 A 
ATOM     11  C   UNL     1       3.185   2.494  17.939  0.00  0.00    +0.000 A 
ATOM     12  C   UNL     1       1.979   1.811  18.079  0.00  0.00    +0.000 A 
ATOM     13  C   UNL     1       0.952   2.369  18.831  0.00  0.00    +0.000 A 
ATOM     14  C   UNL     1       1.120   3.629  19.409  0.00  0.00    +0.000 A 
ATOM     15  C   UNL     1       2.323   4.358  19.263  0.00  0.00    +0.000 A 
BRANCH  15  16
ATOM     16  C   UNL     1       2.309   5.792  19.758  0.00  0.00    +0.000 C 
ATOM     17  F   UNL     1       3.473   6.269  20.267  0.00  0.00    +0.000 F 
ATOM     18  F   UNL     1       2.025   6.654  18.732  0.00  0.00    +0.000 F 
ATOM     19  F   UNL     1       1.345   6.018  20.692  0.00  0.00    +0.000 F 
ENDBRANCH  15  16
ENDBRANCH   7  10
ENDBRANCH   2   5
BRANCH   3  20
ATOM     20  C   UNL     1       8.254   8.756  17.520  0.00  0.00    +0.000 C 
BRANCH  20  21
ATOM     21  C   UNL     1       8.672   9.727  18.624  0.00  0.00    +0.000 C 
BRANCH  21  22
ATOM     22  C   UNL     1       9.673  10.765  18.121  0.00  0.00    +0.000 C 
BRANCH  22  23
ATOM     23  C   UNL     1       9.582  12.033  18.897  0.00  0.00    +0.000 A 
ATOM     24  N   UNL     1      10.301  12.362  19.949  0.00  0.00    +0.000 NA
ATOM     25  C   UNL     1       9.856  13.607  20.325  0.00  0.00    +0.000 A 
ATOM     26  C   UNL     1      10.272  14.430  21.382  0.00  0.00    +0.000 A 
ATOM     27  C   UNL     1       9.648  15.673  21.551  0.00  0.00    +0.000 A 
ATOM     28  C   UNL     1       8.631  16.087  20.686  0.00  0.00    +0.000 A 
ATOM     29  C   UNL     1       8.202  15.279  19.628  0.00  0.00    +0.000 A 
ATOM     30  C   UNL     1       8.841  14.047  19.483  0.00  0.00    +0.000 A 
ATOM     31  N   UNL     1       8.686  13.024  18.583  0.00  0.00    +0.000 N 
ATOM     32  H   UNL     1       8.026  13.004  17.819  0.00  0.00    +0.000 HD
ENDBRANCH  22  23
ENDBRANCH  21  22
ENDBRANCH  20  21
ENDBRANCH   3  20
TORSDOF 7
ENDMDL
MODEL 9
REMARK VINA RESULT:      -7.7      2.225      2.749
REMARK  Name = 
REMARK  7 active torsions:
REMARK  status: ('A' for Active; 'I' for Inactive)
REMARK    1  A    between atoms: C_2  and  C_16
REMARK    2  A    between atoms: N_3  and  C_4
REMARK    3  A    between atoms: C_4  and  C_5
REMARK    4  A    between atoms: C_5  and  C_6
REMARK    5  A    between atoms: C_6  and  C_7
REMARK    6  A    between atoms: N_18  and  C_19
REMARK    7  A    between atoms: C_24  and  C_25
REMARK                            x       y       z     vdW  Elec       q    Type
REMARK                         _______ _______ _______ _____ _____    ______ ____
ROOT
ATOM      1  O   UNL     1       2.227   4.183  21.554  0.00  0.00    +0.000 OA
ATOM      2  C   UNL     1       1.936   4.754  20.505  0.00  0.00    +0.000 C 
ATOM      3  N   UNL     1       1.725   4.078  19.326  0.00  0.00    +0.000 N 
ATOM      4  H   UNL     1       1.492   4.617  18.498  0.00  0.00    +0.000 HD
ENDROOT
BRANCH   2   5
ATOM      5  C   UNL     1       1.787   6.193  20.434  0.00  0.00    +0.000 A 
ATOM      6  C   UNL     1       0.928   6.947  21.204  0.00  0.00    +0.000 A 
ATOM      7  N   UNL     1       1.029   8.218  20.706  0.00  0.00    +0.000 N 
ATOM      8  N   UNL     1       1.993   8.260  19.757  0.00  0.00    +0.000 NA
ATOM      9  N   UNL     1       2.452   7.025  19.570  0.00  0.00    +0.000 NA
BRANCH   7  10
ATOM     10  C   UNL     1       0.338   9.365  21.155  0.00  0.00    +0.000 A 
ATOM     11  C   UNL     1      -0.101   9.378  22.495  0.00  0.00    +0.000 A 
ATOM     12  C   UNL     1      -0.706  10.511  23.033  0.00  0.00    +0.000 A 
ATOM     13  C   UNL     1      -0.887  11.639  22.242  0.00  0.00    +0.000 A 
ATOM     14  C   UNL     1      -0.498  11.616  20.901  0.00  0.00    +0.000 A 
ATOM     15  C   UNL     1       0.096  10.472  20.320  0.00  0.00    +0.000 A 
BRANCH  15  16
ATOM     16  C   UNL     1       0.282  10.498  18.815  0.00  0.00    +0.000 C 
ATOM     17  F   UNL     1      -0.111   9.391  18.136  0.00  0.00    +0.000 F 
ATOM     18  F   UNL     1      -0.458  11.505  18.254  0.00  0.00    +0.000 F 
ATOM     19  F   UNL     1       1.568  10.753  18.447  0.00  0.00    +0.000 F 
ENDBRANCH  15  16
ENDBRANCH   7  10
ENDBRANCH   2   5
BRANCH   3  20
ATOM     20  C   UNL     1       1.863   2.638  19.251  0.00  0.00    +0.000 C 
BRANCH  20  21
ATOM     21  C   UNL     1       3.253   2.194  18.796  0.00  0.00    +0.000 C 
BRANCH  21  22
ATOM     22  C   UNL     1       3.626   2.791  17.441  0.00  0.00    +0.000 C 
BRANCH  22  23
ATOM     23  C   UNL     1       4.621   3.891  17.583  0.00  0.00    +0.000 A 
ATOM     24  N   UNL     1       4.664   5.006  16.884  0.00  0.00    +0.000 NA
ATOM     25  C   UNL     1       5.753   5.696  17.360  0.00  0.00    +0.000 A 
ATOM     26  C   UNL     1       6.264   6.944  16.975  0.00  0.00    +0.000 A 
ATOM     27  C   UNL     1       7.403   7.434  17.628  0.00  0.00    +0.000 A 
ATOM     28  C   UNL     1       8.019   6.696  18.643  0.00  0.00    +0.000 A 
ATOM     29  C   UNL     1       7.524   5.449  19.038  0.00  0.00    +0.000 A 
ATOM     30  C   UNL     1       6.389   4.986  18.372  0.00  0.00    +0.000 A 
ATOM     31  N   UNL     1       5.647   3.839  18.493  0.00  0.00    +0.000 N 
ATOM     32  H   UNL     1       5.826   3.085  19.140  0.00  0.00    +0.000 HD
ENDBRANCH  22  23
ENDBRANCH  21  22
ENDBRANCH  20  21
ENDBRANCH   3  20
TORSDOF 7
ENDMDL
