MODEL 1
REMARK VINA RESULT:      -8.6      0.000      0.000
REMARK  Name = 
REMARK  7 active torsions:
REMARK  status: ('A' for Active; 'I' for Inactive)
REMARK    1  A    between atoms: C_1  and  N_2
REMARK    2  A    between atoms: C_6  and  C_7
REMARK    3  A    between atoms: C_7  and  C_8
REMARK    4  A    between atoms: C_8  and  C_9
REMARK    5  A    between atoms: C_13  and  C_14
REMARK    6  A    between atoms: C_20  and  C_21
REMARK    7  A    between atoms: C_25  and  C_26
REMARK                            x       y       z     vdW  Elec       q    Type
REMARK                         _______ _______ _______ _____ _____    ______ ____
ROOT
ATOM      1  C   UNL     1       1.479   8.811  19.843  0.00  0.00    +0.000 A 
ATOM      2  C   UNL     1       1.659   9.389  18.576  0.00  0.00    +0.000 A 
ATOM      3  C   UNL     1       2.269   8.693  17.530  0.00  0.00    +0.000 A 
ATOM      4  C   UNL     1       2.741   7.396  17.734  0.00  0.00    +0.000 A 
ATOM      5  C   UNL     1       2.633   6.792  18.993  0.00  0.00    +0.000 A 
ATOM      6  C   UNL     1       1.982   7.505  20.012  0.00  0.00    +0.000 A 
ENDROOT
BRANCH   5   7
ATOM      7  C   UNL     1       3.222   5.450  19.326  0.00  0.00    +0.000 C 
ATOM      8  C   UNL     1       2.441   4.728  20.150  0.00  0.00    +0.000 C 
ATOM      9  C   UNL     1       2.508   3.278  20.461  0.00  0.00    +0.000 C 
ATOM     10  C   UNL     1       1.646   2.556  19.433  0.00  0.00    +0.000 C 
ATOM     11  C   UNL     1       2.147   2.641  17.984  0.00  0.00    +0.000 C 
ATOM     12  C   UNL     1       3.669   2.584  17.834  0.00  0.00    +0.000 C 
ATOM     13  C   UNL     1       4.485   3.869  17.772  0.00  0.00    +0.000 C 
ATOM     14  C   UNL     1       4.417   4.968  18.588  0.00  0.00    +0.000 C 
BRANCH  14  15
ATOM     15  C   UNL     1       5.703   5.787  18.696  0.00  0.00    +0.000 C 
ATOM     16  N   UNL     1       6.676   5.400  19.554  0.00  0.00    +0.000 N 
ATOM     17  O   UNL     1       5.933   6.746  17.972  0.00  0.00    +0.000 OA
ATOM     18  H   UNL     1       6.647   4.576  20.137  0.00  0.00    +0.000 HD
ATOM     19  H   UNL     1       7.534   5.935  19.540  0.00  0.00    +0.000 HD
ENDBRANCH  14  15
BRANCH  13  20
ATOM     20  C   UNL     1       5.374   3.923  16.526  0.00  0.00    +0.000 C 
ATOM     21  F   UNL     1       5.243   2.795  15.766  0.00  0.00    +0.000 F 
ATOM     22  F   UNL     1       4.977   4.927  15.693  0.00  0.00    +0.000 F 
ATOM     23  F   UNL     1       6.697   4.046  16.760  0.00  0.00    +0.000 F 
ENDBRANCH  13  20
ENDBRANCH   5   7
BRANCH   1  24
ATOM     24  C   UNL     1       0.787   9.574  21.073  0.00  0.00    +0.000 C 
ATOM     25  C   UNL     1      -0.521   8.991  21.668  0.00  0.00    +0.000 C 
ATOM     26  O   UNL     1       0.084   8.790  22.965  0.00  0.00    +0.000 OA
ATOM     27  C   UNL     1       1.363   9.233  22.479  0.00  0.00    +0.000 C 
BRANCH  24  28
ATOM     28  C   UNL     1       0.791  11.097  20.819  0.00  0.00    +0.000 C 
BRANCH  28  34
ATOM     29  C   UNL     1      -1.158  12.551  22.852  0.00  0.00    +0.000 C 
ATOM     30  N   UNL     1      -1.397  12.262  21.469  0.00  0.00    +0.000 N 
ATOM     31  C   UNL     1      -2.556  12.538  20.800  0.00  0.00    +0.000 A 
ATOM     32  N   UNL     1      -2.437  12.172  19.548  0.00  0.00    +0.000 NA
ATOM     33  N   UNL     1      -1.192  11.621  19.388  0.00  0.00    +0.000 NA
ATOM     34  C   UNL     1      -0.566  11.662  20.548  0.00  0.00    +0.000 A 
ENDBRANCH  28  34
ENDBRANCH  24  28
ENDBRANCH   1  24
TORSDOF 6
ENDMDL
MODEL 2
REMARK VINA RESULT:      -8.6      0.561      1.110
REMARK  Name = 
REMARK  7 active torsions:
REMARK  status: ('A' for Active; 'I' for Inactive)
REMARK    1  A    between atoms: C_1  and  N_2
REMARK    2  A    between atoms: C_6  and  C_7
REMARK    3  A    between atoms: C_7  and  C_8
REMARK    4  A    between atoms: C_8  and  C_9
REMARK    5  A    between atoms: C_13  and  C_14
REMARK    6  A    between atoms: C_20  and  C_21
REMARK    7  A    between atoms: C_25  and  C_26
REMARK                            x       y       z     vdW  Elec       q    Type
REMARK                         _______ _______ _______ _____ _____    ______ ____
ROOT
ATOM      1  C   UNL     1       1.469   8.782  19.896  0.00  0.00    +0.000 A 
ATOM      2  C   UNL     1       1.634   9.368  18.630  0.00  0.00    +0.000 A 
ATOM      3  C   UNL     1       2.235   8.681  17.575  0.00  0.00    +0.000 A 
ATOM      4  C   UNL     1       2.715   7.385  17.766  0.00  0.00    +0.000 A 
ATOM      5  C   UNL     1       2.623   6.773  19.023  0.00  0.00    +0.000 A 
ATOM      6  C   UNL     1       1.979   7.477  20.052  0.00  0.00    +0.000 A 
ENDROOT
BRANCH   5   7
ATOM      7  C   UNL     1       3.222   5.432  19.342  0.00  0.00    +0.000 C 
ATOM      8  C   UNL     1       2.449   4.698  20.164  0.00  0.00    +0.000 C 
ATOM      9  C   UNL     1       2.526   3.247  20.463  0.00  0.00    +0.000 C 
ATOM     10  C   UNL     1       1.663   2.528  19.434  0.00  0.00    +0.000 C 
ATOM     11  C   UNL     1       2.156   2.628  17.983  0.00  0.00    +0.000 C 
ATOM     12  C   UNL     1       3.677   2.581  17.825  0.00  0.00    +0.000 C 
ATOM     13  C   UNL     1       4.486   3.871  17.769  0.00  0.00    +0.000 C 
ATOM     14  C   UNL     1       4.415   4.963  18.594  0.00  0.00    +0.000 C 
BRANCH  14  15
ATOM     15  C   UNL     1       5.697   5.788  18.702  0.00  0.00    +0.000 C 
ATOM     16  N   UNL     1       6.679   5.398  19.549  0.00  0.00    +0.000 N 
ATOM     17  O   UNL     1       5.917   6.756  17.987  0.00  0.00    +0.000 OA
ATOM     18  H   UNL     1       6.658   4.567  20.123  0.00  0.00    +0.000 HD
ATOM     19  H   UNL     1       7.533   5.938  19.535  0.00  0.00    +0.000 HD
ENDBRANCH  14  15
BRANCH  13  20
ATOM     20  C   UNL     1       5.368   3.939  16.519  0.00  0.00    +0.000 C 
ATOM     21  F   UNL     1       5.232   2.822  15.746  0.00  0.00    +0.000 F 
ATOM     22  F   UNL     1       4.968   4.955  15.701  0.00  0.00    +0.000 F 
ATOM     23  F   UNL     1       6.692   4.059  16.747  0.00  0.00    +0.000 F 
ENDBRANCH  13  20
ENDBRANCH   5   7
BRANCH   1  24
ATOM     24  C   UNL     1       0.787   9.536  21.137  0.00  0.00    +0.000 C 
ATOM     25  C   UNL     1      -0.517   8.948  21.737  0.00  0.00    +0.000 C 
ATOM     26  O   UNL     1       0.098   8.735  23.028  0.00  0.00    +0.000 OA
ATOM     27  C   UNL     1       1.373   9.182  22.536  0.00  0.00    +0.000 C 
BRANCH  24  28
ATOM     28  C   UNL     1       0.789  11.060  20.896  0.00  0.00    +0.000 C 
BRANCH  28  34
ATOM     29  C   UNL     1      -1.944  11.860  19.503  0.00  0.00    +0.000 C 
ATOM     30  N   UNL     1      -1.542  12.122  20.854  0.00  0.00    +0.000 N 
ATOM     31  C   UNL     1      -2.281  12.818  21.770  0.00  0.00    +0.000 A 
ATOM     32  N   UNL     1      -1.641  12.854  22.912  0.00  0.00    +0.000 NA
ATOM     33  N   UNL     1      -0.449  12.197  22.747  0.00  0.00    +0.000 NA
ATOM     34  C   UNL     1      -0.381  11.765  21.503  0.00  0.00    +0.000 A 
ENDBRANCH  28  34
ENDBRANCH  24  28
ENDBRANCH   1  24
TORSDOF 6
ENDMDL
MODEL 3
REMARK VINA RESULT:      -8.4      0.925      1.189
REMARK  Name = 
REMARK  7 active torsions:
REMARK  status: ('A' for Active; 'I' for Inactive)
REMARK    1  A    between atoms: C_1  and  N_2
REMARK    2  A    between atoms: C_6  and  C_7
REMARK    3  A    between atoms: C_7  and  C_8
REMARK    4  A    between atoms: C_8  and  C_9
REMARK    5  A    between atoms: C_13  and  C_14
REMARK    6  A    between atoms: C_20  and  C_21
REMARK    7  A    between atoms: C_25  and  C_26
REMARK                            x       y       z     vdW  Elec       q    Type
REMARK                         _______ _______ _______ _____ _____    ______ ____
ROOT
ATOM      1  C   UNL     1       1.294   8.878  20.169  0.00  0.00    +0.000 A 
ATOM      2  C   UNL     1       1.453   9.309  18.842  0.00  0.00    +0.000 A 
ATOM      3  C   UNL     1       1.996   8.479  17.860  0.00  0.00    +0.000 A 
ATOM      4  C   UNL     1       2.422   7.192  18.187  0.00  0.00    +0.000 A 
ATOM      5  C   UNL     1       2.333   6.730  19.508  0.00  0.00    +0.000 A 
ATOM      6  C   UNL     1       1.748   7.577  20.463  0.00  0.00    +0.000 A 
ENDROOT
BRANCH   5   7
ATOM      7  C   UNL     1       2.878   5.407  19.966  0.00  0.00    +0.000 C 
ATOM      8  C   UNL     1       2.176   4.878  20.984  0.00  0.00    +0.000 C 
ATOM      9  C   UNL     1       2.195   3.488  21.503  0.00  0.00    +0.000 C 
ATOM     10  C   UNL     1       1.155   2.698  20.718  0.00  0.00    +0.000 C 
ATOM     11  C   UNL     1       1.456   2.532  19.221  0.00  0.00    +0.000 C 
ATOM     12  C   UNL     1       2.936   2.329  18.889  0.00  0.00    +0.000 C 
ATOM     13  C   UNL     1       3.814   3.520  18.526  0.00  0.00    +0.000 C 
ATOM     14  C   UNL     1       3.927   4.727  19.165  0.00  0.00    +0.000 C 
BRANCH  14  15
ATOM     15  C   UNL     1       5.264   5.444  18.980  0.00  0.00    +0.000 C 
ATOM     16  N   UNL     1       5.398   6.379  18.010  0.00  0.00    +0.000 N 
ATOM     17  O   UNL     1       6.212   5.270  19.734  0.00  0.00    +0.000 OA
ATOM     18  H   UNL     1       4.663   6.680  17.384  0.00  0.00    +0.000 HD
ATOM     19  H   UNL     1       6.278   6.873  17.972  0.00  0.00    +0.000 HD
ENDBRANCH  14  15
BRANCH  13  20
ATOM     20  C   UNL     1       4.523   3.319  17.184  0.00  0.00    +0.000 C 
ATOM     21  F   UNL     1       5.873   3.495  17.296  0.00  0.00    +0.000 F 
ATOM     22  F   UNL     1       4.394   2.030  16.757  0.00  0.00    +0.000 F 
ATOM     23  F   UNL     1       4.135   4.148  16.192  0.00  0.00    +0.000 F 
ENDBRANCH  13  20
ENDBRANCH   5   7
BRANCH   1  24
ATOM     24  C   UNL     1       0.678   9.798  21.329  0.00  0.00    +0.000 C 
ATOM     25  C   UNL     1      -0.596   9.309  22.068  0.00  0.00    +0.000 C 
ATOM     26  O   UNL     1       0.083   9.267  23.343  0.00  0.00    +0.000 OA
ATOM     27  C   UNL     1       1.333   9.632  22.732  0.00  0.00    +0.000 C 
BRANCH  24  28
ATOM     28  C   UNL     1       0.671  11.277  20.884  0.00  0.00    +0.000 C 
BRANCH  28  34
ATOM     29  C   UNL     1      -1.131  12.960  22.876  0.00  0.00    +0.000 C 
ATOM     30  N   UNL     1      -1.463  12.528  21.551  0.00  0.00    +0.000 N 
ATOM     31  C   UNL     1      -2.664  12.743  20.934  0.00  0.00    +0.000 A 
ATOM     32  N   UNL     1      -2.631  12.245  19.724  0.00  0.00    +0.000 NA
ATOM     33  N   UNL     1      -1.402  11.666  19.541  0.00  0.00    +0.000 NA
ATOM     34  C   UNL     1      -0.699  11.824  20.645  0.00  0.00    +0.000 A 
ENDBRANCH  28  34
ENDBRANCH  24  28
ENDBRANCH   1  24
TORSDOF 6
ENDMDL
MODEL 4
REMARK VINA RESULT:      -8.4      0.811      1.416
REMARK  Name = 
REMARK  7 active torsions:
REMARK  status: ('A' for Active; 'I' for Inactive)
REMARK    1  A    between atoms: C_1  and  N_2
REMARK    2  A    between atoms: C_6  and  C_7
REMARK    3  A    between atoms: C_7  and  C_8
REMARK    4  A    between atoms: C_8  and  C_9
REMARK    5  A    between atoms: C_13  and  C_14
REMARK    6  A    between atoms: C_20  and  C_21
REMARK    7  A    between atoms: C_25  and  C_26
REMARK                            x       y       z     vdW  Elec       q    Type
REMARK                         _______ _______ _______ _____ _____    ______ ____
ROOT
ATOM      1  C   UNL     1       1.273   8.917  20.147  0.00  0.00    +0.000 A 
ATOM      2  C   UNL     1       1.400   9.376  18.826  0.00  0.00    +0.000 A 
ATOM      3  C   UNL     1       1.944   8.576  17.819  0.00  0.00    +0.000 A 
ATOM      4  C   UNL     1       2.402   7.292  18.116  0.00  0.00    +0.000 A 
ATOM      5  C   UNL     1       2.347   6.805  19.429  0.00  0.00    +0.000 A 
ATOM      6  C   UNL     1       1.760   7.621  20.409  0.00  0.00    +0.000 A 
ENDROOT
BRANCH   5   7
ATOM      7  C   UNL     1       2.928   5.486  19.853  0.00  0.00    +0.000 C 
ATOM      8  C   UNL     1       2.248   4.918  20.866  0.00  0.00    +0.000 C 
ATOM      9  C   UNL     1       2.306   3.518  21.354  0.00  0.00    +0.000 C 
ATOM     10  C   UNL     1       1.278   2.720  20.561  0.00  0.00    +0.000 C 
ATOM     11  C   UNL     1       1.568   2.593  19.059  0.00  0.00    +0.000 C 
ATOM     12  C   UNL     1       3.049   2.434  18.709  0.00  0.00    +0.000 C 
ATOM     13  C   UNL     1       3.895   3.653  18.365  0.00  0.00    +0.000 C 
ATOM     14  C   UNL     1       3.985   4.849  19.028  0.00  0.00    +0.000 C 
BRANCH  14  15
ATOM     15  C   UNL     1       5.303   5.602  18.847  0.00  0.00    +0.000 C 
ATOM     16  N   UNL     1       6.384   5.253  19.583  0.00  0.00    +0.000 N 
ATOM     17  O   UNL     1       5.452   6.468  17.996  0.00  0.00    +0.000 OA
ATOM     18  H   UNL     1       6.415   4.495  20.251  0.00  0.00    +0.000 HD
ATOM     19  H   UNL     1       7.248   5.734  19.379  0.00  0.00    +0.000 HD
ENDBRANCH  14  15
BRANCH  13  20
ATOM     20  C   UNL     1       4.596   3.499  17.012  0.00  0.00    +0.000 C 
ATOM     21  F   UNL     1       5.950   3.632  17.129  0.00  0.00    +0.000 F 
ATOM     22  F   UNL     1       4.431   2.237  16.523  0.00  0.00    +0.000 F 
ATOM     23  F   UNL     1       4.229   4.385  16.063  0.00  0.00    +0.000 F 
ENDBRANCH  13  20
ENDBRANCH   5   7
BRANCH   1  24
ATOM     24  C   UNL     1       0.657   9.803  21.334  0.00  0.00    +0.000 C 
ATOM     25  C   UNL     1      -0.591   9.271  22.087  0.00  0.00    +0.000 C 
ATOM     26  O   UNL     1       0.112   9.223  23.348  0.00  0.00    +0.000 OA
ATOM     27  C   UNL     1       1.341   9.627  22.722  0.00  0.00    +0.000 C 
BRANCH  24  28
ATOM     28  C   UNL     1       0.608  11.288  20.916  0.00  0.00    +0.000 C 
BRANCH  28  34
ATOM     29  C   UNL     1      -1.748  11.320  18.796  0.00  0.00    +0.000 C 
ATOM     30  N   UNL     1      -1.734  11.924  20.096  0.00  0.00    +0.000 N 
ATOM     31  C   UNL     1      -2.751  12.669  20.624  0.00  0.00    +0.000 A 
ATOM     32  N   UNL     1      -2.431  13.051  21.835  0.00  0.00    +0.000 NA
ATOM     33  N   UNL     1      -1.173  12.576  22.107  0.00  0.00    +0.000 NA
ATOM     34  C   UNL     1      -0.745  11.906  21.055  0.00  0.00    +0.000 A 
ENDBRANCH  28  34
ENDBRANCH  24  28
ENDBRANCH   1  24
TORSDOF 6
ENDMDL
MODEL 5
REMARK VINA RESULT:      -8.4      2.822      3.923
REMARK  Name = 
REMARK  7 active torsions:
REMARK  status: ('A' for Active; 'I' for Inactive)
REMARK    1  A    between atoms: C_1  and  N_2
REMARK    2  A    between atoms: C_6  and  C_7
REMARK    3  A    between atoms: C_7  and  C_8
REMARK    4  A    between atoms: C_8  and  C_9
REMARK    5  A    between atoms: C_13  and  C_14
REMARK    6  A    between atoms: C_20  and  C_21
REMARK    7  A    between atoms: C_25  and  C_26
REMARK                            x       y       z     vdW  Elec       q    Type
REMARK                         _______ _______ _______ _____ _____    ______ ____
ROOT
ATOM      1  C   UNL     1       0.882   9.253  19.638  0.00  0.00    +0.000 A 
ATOM      2  C   UNL     1       0.698   8.829  20.964  0.00  0.00    +0.000 A 
ATOM      3  C   UNL     1       1.306   7.674  21.458  0.00  0.00    +0.000 A 
ATOM      4  C   UNL     1       2.104   6.891  20.622  0.00  0.00    +0.000 A 
ATOM      5  C   UNL     1       2.278   7.241  19.277  0.00  0.00    +0.000 A 
ATOM      6  C   UNL     1       1.683   8.428  18.823  0.00  0.00    +0.000 A 
ENDROOT
BRANCH   5   7
ATOM      7  C   UNL     1       3.019   6.390  18.284  0.00  0.00    +0.000 C 
ATOM      8  C   UNL     1       3.832   7.106  17.487  0.00  0.00    +0.000 C 
ATOM      9  C   UNL     1       4.933   6.630  16.614  0.00  0.00    +0.000 C 
ATOM     10  C   UNL     1       6.203   6.612  17.457  0.00  0.00    +0.000 C 
ATOM     11  C   UNL     1       6.201   5.609  18.619  0.00  0.00    +0.000 C 
ATOM     12  C   UNL     1       5.507   4.281  18.311  0.00  0.00    +0.000 C 
ATOM     13  C   UNL     1       4.037   4.081  18.658  0.00  0.00    +0.000 C 
ATOM     14  C   UNL     1       2.976   4.911  18.407  0.00  0.00    +0.000 C 
BRANCH  14  15
ATOM     15  C   UNL     1       1.616   4.222  18.291  0.00  0.00    +0.000 C 
ATOM     16  N   UNL     1       0.845   4.066  19.392  0.00  0.00    +0.000 N 
ATOM     17  O   UNL     1       1.148   3.873  17.217  0.00  0.00    +0.000 OA
ATOM     18  H   UNL     1       1.078   4.394  20.319  0.00  0.00    +0.000 HD
ATOM     19  H   UNL     1      -0.073   3.667  19.253  0.00  0.00    +0.000 HD
ENDBRANCH  14  15
BRANCH  13  20
ATOM     20  C   UNL     1       3.819   2.837  19.525  0.00  0.00    +0.000 C 
ATOM     21  F   UNL     1       5.002   2.241  19.857  0.00  0.00    +0.000 F 
ATOM     22  F   UNL     1       3.274   3.176  20.728  0.00  0.00    +0.000 F 
ATOM     23  F   UNL     1       3.071   1.863  18.967  0.00  0.00    +0.000 F 
ENDBRANCH  13  20
ENDBRANCH   5   7
BRANCH   1  24
ATOM     24  C   UNL     1       0.200  10.572  19.029  0.00  0.00    +0.000 C 
ATOM     25  C   UNL     1      -0.815  10.414  17.867  0.00  0.00    +0.000 C 
ATOM     26  O   UNL     1      -1.888  10.992  18.642  0.00  0.00    +0.000 OA
ATOM     27  C   UNL     1      -1.045  11.097  19.802  0.00  0.00    +0.000 C 
BRANCH  24  28
ATOM     28  C   UNL     1       1.260  11.681  18.851  0.00  0.00    +0.000 C 
BRANCH  28  34
ATOM     29  C   UNL     1      -0.106  14.539  18.747  0.00  0.00    +0.000 C 
ATOM     30  N   UNL     1       0.643  13.968  19.827  0.00  0.00    +0.000 N 
ATOM     31  C   UNL     1       0.931  14.604  21.002  0.00  0.00    +0.000 A 
ATOM     32  N   UNL     1       1.606  13.797  21.782  0.00  0.00    +0.000 NA
ATOM     33  N   UNL     1       1.792  12.618  21.107  0.00  0.00    +0.000 NA
ATOM     34  C   UNL     1       1.223  12.722  19.923  0.00  0.00    +0.000 A 
ENDBRANCH  28  34
ENDBRANCH  24  28
ENDBRANCH   1  24
TORSDOF 6
ENDMDL
MODEL 6
REMARK VINA RESULT:      -8.3      1.343      1.718
REMARK  Name = 
REMARK  7 active torsions:
REMARK  status: ('A' for Active; 'I' for Inactive)
REMARK    1  A    between atoms: C_1  and  N_2
REMARK    2  A    between atoms: C_6  and  C_7
REMARK    3  A    between atoms: C_7  and  C_8
REMARK    4  A    between atoms: C_8  and  C_9
REMARK    5  A    between atoms: C_13  and  C_14
REMARK    6  A    between atoms: C_20  and  C_21
REMARK    7  A    between atoms: C_25  and  C_26
REMARK                            x       y       z     vdW  Elec       q    Type
REMARK                         _______ _______ _______ _____ _____    ______ ____
ROOT
ATOM      1  C   UNL     1       1.112   8.914  20.127  0.00  0.00    +0.000 A 
ATOM      2  C   UNL     1       1.324   9.365  18.815  0.00  0.00    +0.000 A 
ATOM      3  C   UNL     1       1.950   8.568  17.855  0.00  0.00    +0.000 A 
ATOM      4  C   UNL     1       2.406   7.293  18.193  0.00  0.00    +0.000 A 
ATOM      5  C   UNL     1       2.265   6.814  19.503  0.00  0.00    +0.000 A 
ATOM      6  C   UNL     1       1.599   7.627  20.433  0.00  0.00    +0.000 A 
ENDROOT
BRANCH   5   7
ATOM      7  C   UNL     1       2.836   5.507  19.977  0.00  0.00    +0.000 C 
ATOM      8  C   UNL     1       2.160   4.992  21.020  0.00  0.00    +0.000 C 
ATOM      9  C   UNL     1       2.207   3.614  21.568  0.00  0.00    +0.000 C 
ATOM     10  C   UNL     1       1.161   2.795  20.821  0.00  0.00    +0.000 C 
ATOM     11  C   UNL     1       1.432   2.601  19.322  0.00  0.00    +0.000 C 
ATOM     12  C   UNL     1       2.907   2.408  18.963  0.00  0.00    +0.000 C 
ATOM     13  C   UNL     1       3.764   3.601  18.558  0.00  0.00    +0.000 C 
ATOM     14  C   UNL     1       3.876   4.822  19.168  0.00  0.00    +0.000 C 
BRANCH  14  15
ATOM     15  C   UNL     1       5.200   5.551  18.941  0.00  0.00    +0.000 C 
ATOM     16  N   UNL     1       5.313   6.439  17.926  0.00  0.00    +0.000 N 
ATOM     17  O   UNL     1       6.154   5.429  19.697  0.00  0.00    +0.000 OA
ATOM     18  H   UNL     1       4.571   6.697  17.290  0.00  0.00    +0.000 HD
ATOM     19  H   UNL     1       6.186   6.945  17.858  0.00  0.00    +0.000 HD
ENDBRANCH  14  15
BRANCH  13  20
ATOM     20  C   UNL     1       4.447   3.380  17.205  0.00  0.00    +0.000 C 
ATOM     21  F   UNL     1       5.802   3.528  17.296  0.00  0.00    +0.000 F 
ATOM     22  F   UNL     1       4.285   2.093  16.786  0.00  0.00    +0.000 F 
ATOM     23  F   UNL     1       4.061   4.212  16.216  0.00  0.00    +0.000 F 
ENDBRANCH  13  20
ENDBRANCH   5   7
BRANCH   1  24
ATOM     24  C   UNL     1       0.400   9.797  21.262  0.00  0.00    +0.000 C 
ATOM     25  C   UNL     1      -0.441   9.076  22.347  0.00  0.00    +0.000 C 
ATOM     26  O   UNL     1       0.411   9.549  23.413  0.00  0.00    +0.000 OA
ATOM     27  C   UNL     1       1.301  10.178  22.474  0.00  0.00    +0.000 C 
BRANCH  24  28
ATOM     28  C   UNL     1      -0.247  11.048  20.629  0.00  0.00    +0.000 C 
BRANCH  28  34
ATOM     29  C   UNL     1      -2.329  12.140  22.755  0.00  0.00    +0.000 C 
ATOM     30  N   UNL     1      -1.081  12.732  22.371  0.00  0.00    +0.000 N 
ATOM     31  C   UNL     1      -0.599  13.920  22.844  0.00  0.00    +0.000 A 
ATOM     32  N   UNL     1       0.574  14.159  22.313  0.00  0.00    +0.000 NA
ATOM     33  N   UNL     1       0.864  13.130  21.454  0.00  0.00    +0.000 NA
ATOM     34  C   UNL     1      -0.138  12.274  21.477  0.00  0.00    +0.000 A 
ENDBRANCH  28  34
ENDBRANCH  24  28
ENDBRANCH   1  24
TORSDOF 6
ENDMDL
MODEL 7
REMARK VINA RESULT:      -8.3      1.473      2.051
REMARK  Name = 
REMARK  7 active torsions:
REMARK  status: ('A' for Active; 'I' for Inactive)
REMARK    1  A    between atoms: C_1  and  N_2
REMARK    2  A    between atoms: C_6  and  C_7
REMARK    3  A    between atoms: C_7  and  C_8
REMARK    4  A    between atoms: C_8  and  C_9
REMARK    5  A    between atoms: C_13  and  C_14
REMARK    6  A    between atoms: C_20  and  C_21
REMARK    7  A    between atoms: C_25  and  C_26
REMARK                            x       y       z     vdW  Elec       q    Type
REMARK                         _______ _______ _______ _____ _____    ______ ____
ROOT
ATOM      1  C   UNL     1       1.128   8.922  20.075  0.00  0.00    +0.000 A 
ATOM      2  C   UNL     1       1.329   9.349  18.753  0.00  0.00    +0.000 A 
ATOM      3  C   UNL     1       1.943   8.533  17.802  0.00  0.00    +0.000 A 
ATOM      4  C   UNL     1       2.398   7.263  18.158  0.00  0.00    +0.000 A 
ATOM      5  C   UNL     1       2.269   6.807  19.477  0.00  0.00    +0.000 A 
ATOM      6  C   UNL     1       1.614   7.639  20.399  0.00  0.00    +0.000 A 
ENDROOT
BRANCH   5   7
ATOM      7  C   UNL     1       2.839   5.507  19.969  0.00  0.00    +0.000 C 
ATOM      8  C   UNL     1       2.164   5.005  21.019  0.00  0.00    +0.000 C 
ATOM      9  C   UNL     1       2.211   3.635  21.585  0.00  0.00    +0.000 C 
ATOM     10  C   UNL     1       1.164   2.806  20.849  0.00  0.00    +0.000 C 
ATOM     11  C   UNL     1       1.436   2.592  19.353  0.00  0.00    +0.000 C 
ATOM     12  C   UNL     1       2.910   2.394  18.997  0.00  0.00    +0.000 C 
ATOM     13  C   UNL     1       3.767   3.581  18.575  0.00  0.00    +0.000 C 
ATOM     14  C   UNL     1       3.879   4.811  19.169  0.00  0.00    +0.000 C 
BRANCH  14  15
ATOM     15  C   UNL     1       5.203   5.537  18.932  0.00  0.00    +0.000 C 
ATOM     16  N   UNL     1       5.314   6.415  17.908  0.00  0.00    +0.000 N 
ATOM     17  O   UNL     1       6.159   5.421  19.686  0.00  0.00    +0.000 OA
ATOM     18  H   UNL     1       4.571   6.668  17.272  0.00  0.00    +0.000 HD
ATOM     19  H   UNL     1       6.187   6.920  17.834  0.00  0.00    +0.000 HD
ENDBRANCH  14  15
BRANCH  13  20
ATOM     20  C   UNL     1       4.450   3.343  17.226  0.00  0.00    +0.000 C 
ATOM     21  F   UNL     1       5.803   3.508  17.310  0.00  0.00    +0.000 F 
ATOM     22  F   UNL     1       4.303   2.045  16.832  0.00  0.00    +0.000 F 
ATOM     23  F   UNL     1       4.052   4.150  16.221  0.00  0.00    +0.000 F 
ENDBRANCH  13  20
ENDBRANCH   5   7
BRANCH   1  24
ATOM     24  C   UNL     1       0.432   9.828  21.201  0.00  0.00    +0.000 C 
ATOM     25  C   UNL     1      -0.382   9.127  22.320  0.00  0.00    +0.000 C 
ATOM     26  O   UNL     1       0.486   9.634  23.357  0.00  0.00    +0.000 OA
ATOM     27  C   UNL     1       1.352  10.246  22.386  0.00  0.00    +0.000 C 
BRANCH  24  28
ATOM     28  C   UNL     1      -0.239  11.057  20.550  0.00  0.00    +0.000 C 
BRANCH  28  34
ATOM     29  C   UNL     1       2.060  12.828  19.277  0.00  0.00    +0.000 C 
ATOM     30  N   UNL     1       1.319  13.089  20.476  0.00  0.00    +0.000 N 
ATOM     31  C   UNL     1       1.524  14.154  21.308  0.00  0.00    +0.000 A 
ATOM     32  N   UNL     1       0.664  14.111  22.295  0.00  0.00    +0.000 NA
ATOM     33  N   UNL     1      -0.106  12.987  22.133  0.00  0.00    +0.000 NA
ATOM     34  C   UNL     1       0.295  12.363  21.043  0.00  0.00    +0.000 A 
ENDBRANCH  28  34
ENDBRANCH  24  28
ENDBRANCH   1  24
TORSDOF 6
ENDMDL
MODEL 8
REMARK VINA RESULT:      -8.2      0.940      1.353
REMARK  Name = 
REMARK  7 active torsions:
REMARK  status: ('A' for Active; 'I' for Inactive)
REMARK    1  A    between atoms: C_1  and  N_2
REMARK    2  A    between atoms: C_6  and  C_7
REMARK    3  A    between atoms: C_7  and  C_8
REMARK    4  A    between atoms: C_8  and  C_9
REMARK    5  A    between atoms: C_13  and  C_14
REMARK    6  A    between atoms: C_20  and  C_21
REMARK    7  A    between atoms: C_25  and  C_26
REMARK                            x       y       z     vdW  Elec       q    Type
REMARK                         _______ _______ _______ _____ _____    ______ ____
ROOT
ATOM      1  C   UNL     1       1.287   8.811  19.833  0.00  0.00    +0.000 A 
ATOM      2  C   UNL     1       1.599   9.431  18.612  0.00  0.00    +0.000 A 
ATOM      3  C   UNL     1       2.350   8.785  17.630  0.00  0.00    +0.000 A 
ATOM      4  C   UNL     1       2.835   7.495  17.854  0.00  0.00    +0.000 A 
ATOM      5  C   UNL     1       2.596   6.851  19.075  0.00  0.00    +0.000 A 
ATOM      6  C   UNL     1       1.806   7.515  20.026  0.00  0.00    +0.000 A 
ENDROOT
BRANCH   5   7
ATOM      7  C   UNL     1       3.183   5.516  19.441  0.00  0.00    +0.000 C 
ATOM      8  C   UNL     1       2.424   4.837  20.320  0.00  0.00    +0.000 C 
ATOM      9  C   UNL     1       2.487   3.401  20.687  0.00  0.00    +0.000 C 
ATOM     10  C   UNL     1       1.581   2.648  19.720  0.00  0.00    +0.000 C 
ATOM     11  C   UNL     1       2.032   2.669  18.252  0.00  0.00    +0.000 C 
ATOM     12  C   UNL     1       3.546   2.588  18.051  0.00  0.00    +0.000 C 
ATOM     13  C   UNL     1       4.373   3.860  17.909  0.00  0.00    +0.000 C 
ATOM     14  C   UNL     1       4.345   4.991  18.681  0.00  0.00    +0.000 C 
BRANCH  14  15
ATOM     15  C   UNL     1       5.643   5.799  18.711  0.00  0.00    +0.000 C 
ATOM     16  N   UNL     1       6.649   5.424  19.536  0.00  0.00    +0.000 N 
ATOM     17  O   UNL     1       5.850   6.735  17.952  0.00  0.00    +0.000 OA
ATOM     18  H   UNL     1       6.637   4.616  20.142  0.00  0.00    +0.000 HD
ATOM     19  H   UNL     1       7.510   5.948  19.470  0.00  0.00    +0.000 HD
ENDBRANCH  14  15
BRANCH  13  20
ATOM     20  C   UNL     1       5.217   3.853  16.632  0.00  0.00    +0.000 C 
ATOM     21  F   UNL     1       4.916   4.912  15.823  0.00  0.00    +0.000 F 
ATOM     22  F   UNL     1       6.538   4.029  16.924  0.00  0.00    +0.000 F 
ATOM     23  F   UNL     1       5.085   2.759  15.853  0.00  0.00    +0.000 F 
ENDBRANCH  13  20
ENDBRANCH   5   7
BRANCH   1  24
ATOM     24  C   UNL     1       0.429   9.517  20.990  0.00  0.00    +0.000 C 
ATOM     25  C   UNL     1      -0.422   8.627  21.933  0.00  0.00    +0.000 C 
ATOM     26  O   UNL     1       0.314   9.052  23.102  0.00  0.00    +0.000 OA
ATOM     27  C   UNL     1       1.211   9.838  22.298  0.00  0.00    +0.000 C 
BRANCH  24  28
ATOM     28  C   UNL     1      -0.275  10.774  20.434  0.00  0.00    +0.000 C 
BRANCH  28  34
ATOM     29  C   UNL     1      -2.191  11.962  22.662  0.00  0.00    +0.000 C 
ATOM     30  N   UNL     1      -0.942  12.497  22.208  0.00  0.00    +0.000 N 
ATOM     31  C   UNL     1      -0.384  13.665  22.649  0.00  0.00    +0.000 A 
ATOM     32  N   UNL     1       0.768  13.851  22.054  0.00  0.00    +0.000 NA
ATOM     33  N   UNL     1       0.967  12.808  21.187  0.00  0.00    +0.000 NA
ATOM     34  C   UNL     1      -0.068  11.996  21.268  0.00  0.00    +0.000 A 
ENDBRANCH  28  34
ENDBRANCH  24  28
ENDBRANCH   1  24
TORSDOF 6
ENDMDL
MODEL 9
REMARK VINA RESULT:      -8.2      0.954      1.349
REMARK  Name = 
REMARK  7 active torsions:
REMARK  status: ('A' for Active; 'I' for Inactive)
REMARK    1  A    between atoms: C_1  and  N_2
REMARK    2  A    between atoms: C_6  and  C_7
REMARK    3  A    between atoms: C_7  and  C_8
REMARK    4  A    between atoms: C_8  and  C_9
REMARK    5  A    between atoms: C_13  and  C_14
REMARK    6  A    between atoms: C_20  and  C_21
REMARK    7  A    between atoms: C_25  and  C_26
REMARK                            x       y       z     vdW  Elec       q    Type
REMARK                         _______ _______ _______ _____ _____    ______ ____
ROOT
ATOM      1  C   UNL     1       1.345   8.742  19.664  0.00  0.00    +0.000 A 
ATOM      2  C   UNL     1       1.711   9.412  18.486  0.00  0.00    +0.000 A 
ATOM      3  C   UNL     1       2.515   8.810  17.517  0.00  0.00    +0.000 A 
ATOM      4  C   UNL     1       2.999   7.516  17.713  0.00  0.00    +0.000 A 
ATOM      5  C   UNL     1       2.707   6.822  18.895  0.00  0.00    +0.000 A 
ATOM      6  C   UNL     1       1.865   7.443  19.832  0.00  0.00    +0.000 A 
ENDROOT
BRANCH   5   7
ATOM      7  C   UNL     1       3.286   5.478  19.237  0.00  0.00    +0.000 C 
ATOM      8  C   UNL     1       2.485   4.754  20.039  0.00  0.00    +0.000 C 
ATOM      9  C   UNL     1       2.543   3.303  20.346  0.00  0.00    +0.000 C 
ATOM     10  C   UNL     1       1.704   2.586  19.295  0.00  0.00    +0.000 C 
ATOM     11  C   UNL     1       2.240   2.676  17.859  0.00  0.00    +0.000 C 
ATOM     12  C   UNL     1       3.765   2.617  17.745  0.00  0.00    +0.000 C 
ATOM     13  C   UNL     1       4.584   3.902  17.707  0.00  0.00    +0.000 C 
ATOM     14  C   UNL     1       4.497   4.997  18.525  0.00  0.00    +0.000 C 
BRANCH  14  15
ATOM     15  C   UNL     1       5.782   5.814  18.667  0.00  0.00    +0.000 C 
ATOM     16  N   UNL     1       6.728   5.431  19.556  0.00  0.00    +0.000 N 
ATOM     17  O   UNL     1       6.036   6.768  17.944  0.00  0.00    +0.000 OA
ATOM     18  H   UNL     1       6.679   4.611  20.144  0.00  0.00    +0.000 HD
ATOM     19  H   UNL     1       7.587   5.964  19.564  0.00  0.00    +0.000 HD
ENDBRANCH  14  15
BRANCH  13  20
ATOM     20  C   UNL     1       5.501   3.959  16.483  0.00  0.00    +0.000 C 
ATOM     21  F   UNL     1       5.387   2.835  15.715  0.00  0.00    +0.000 F 
ATOM     22  F   UNL     1       5.127   4.968  15.645  0.00  0.00    +0.000 F 
ATOM     23  F   UNL     1       6.819   4.079  16.748  0.00  0.00    +0.000 F 
ENDBRANCH  13  20
ENDBRANCH   5   7
BRANCH   1  24
ATOM     24  C   UNL     1       0.426   9.396  20.804  0.00  0.00    +0.000 C 
ATOM     25  C   UNL     1      -0.314   8.456  21.792  0.00  0.00    +0.000 C 
ATOM     26  O   UNL     1       0.381   9.004  22.934  0.00  0.00    +0.000 OA
ATOM     27  C   UNL     1       1.179   9.851  22.089  0.00  0.00    +0.000 C 
BRANCH  24  28
ATOM     28  C   UNL     1      -0.416  10.546  20.210  0.00  0.00    +0.000 C 
BRANCH  28  34
ATOM     29  C   UNL     1       1.670  12.894  19.786  0.00  0.00    +0.000 C 
ATOM     30  N   UNL     1       0.638  12.812  20.777  0.00  0.00    +0.000 N 
ATOM     31  C   UNL     1       0.411  13.742  21.752  0.00  0.00    +0.000 A 
ATOM     32  N   UNL     1      -0.619  13.378  22.473  0.00  0.00    +0.000 NA
ATOM     33  N   UNL     1      -1.069  12.177  21.989  0.00  0.00    +0.000 NA
ATOM     34  C   UNL     1      -0.305  11.826  20.973  0.00  0.00    +0.000 A 
ENDBRANCH  28  34
ENDBRANCH  24  28
ENDBRANCH   1  24
TORSDOF 6
ENDMDL
