MODEL 1
REMARK VINA RESULT:      -8.5      0.000      0.000
REMARK  Name = 
REMARK  5 active torsions:
REMARK  status: ('A' for Active; 'I' for Inactive)
REMARK    1  A    between atoms: C_1  and  C_2
REMARK    2  A    between atoms: C_6  and  C_7
REMARK    3  A    between atoms: C_12  and  C_13
REMARK    4  A    between atoms: C_13  and  C_14
REMARK    5  A    between atoms: N_16  and  C_17
REMARK                            x       y       z     vdW  Elec       q    Type
REMARK                         _______ _______ _______ _____ _____    ______ ____
ROOT
ATOM      1  C   UNL     1       3.722   4.534  19.078  0.00  0.00    +0.000 C 
ATOM      2  O   UNL     1       4.069   5.246  20.015  0.00  0.00    +0.000 OA
ATOM      3  N   UNL     1       4.359   4.467  17.859  0.00  0.00    +0.000 N 
ATOM      4  C   UNL     1       5.496   5.195  17.641  0.00  0.00    +0.000 A 
ATOM      5  N   UNL     1       6.248   5.801  18.519  0.00  0.00    +0.000 NA
ATOM      6  C   UNL     1       7.281   6.474  17.891  0.00  0.00    +0.000 A 
ATOM      7  C   UNL     1       7.274   6.351  16.511  0.00  0.00    +0.000 A 
ATOM      8  S   UNL     1       5.985   5.325  16.014  0.00  0.00    +0.000 S 
ATOM      9  H   UNL     1       3.952   4.006  17.066  0.00  0.00    +0.000 HD
ENDROOT
BRANCH   1  15
ATOM     10  C   UNL     1       2.117   3.198  21.798  0.00  0.00    +0.000 C 
ATOM     11  C   UNL     1       1.876   3.200  20.338  0.00  0.00    +0.000 A 
ATOM     12  O   UNL     1       0.743   2.532  19.962  0.00  0.00    +0.000 OA
ATOM     13  C   UNL     1       0.630   2.642  18.619  0.00  0.00    +0.000 A 
ATOM     14  C   UNL     1       1.674   3.363  18.116  0.00  0.00    +0.000 A 
ATOM     15  C   UNL     1       2.508   3.734  19.223  0.00  0.00    +0.000 A 
ENDBRANCH   1  15
BRANCH   6  16
ATOM     16  C   UNL     1       8.264   7.195  18.761  0.00  0.00    +0.000 C 
BRANCH  16  17
ATOM     17  C   UNL     1       8.335   8.675  18.444  0.00  0.00    +0.000 C 
ATOM     18  O   UNL     1       7.598   9.153  17.580  0.00  0.00    +0.000 OA
ATOM     19  N   UNL     1       9.301   9.378  19.145  0.00  0.00    +0.000 N 
ATOM     20  H   UNL     1      10.030   8.873  19.647  0.00  0.00    +0.000 HD
BRANCH  19  21
ATOM     21  C   UNL     1       9.548  10.776  19.028  0.00  0.00    +0.000 A 
ATOM     22  C   UNL     1       9.988  11.338  17.821  0.00  0.00    +0.000 A 
ATOM     23  C   UNL     1      10.317  12.684  17.741  0.00  0.00    +0.000 A 
ATOM     24  C   UNL     1      10.189  13.489  18.862  0.00  0.00    +0.000 A 
ATOM     25  C   UNL     1       9.694  12.957  20.061  0.00  0.00    +0.000 A 
ATOM     26  C   UNL     1       9.549  13.778  21.186  0.00  0.00    +0.000 A 
ATOM     27  C   UNL     1       9.044  13.251  22.362  0.00  0.00    +0.000 A 
ATOM     28  C   UNL     1       8.707  11.911  22.378  0.00  0.00    +0.000 A 
ATOM     29  N   UNL     1       8.854  11.075  21.319  0.00  0.00    +0.000 NA
ATOM     30  C   UNL     1       9.342  11.588  20.161  0.00  0.00    +0.000 A 
ENDBRANCH  19  21
ENDBRANCH  16  17
ENDBRANCH   6  16
TORSDOF 4
ENDMDL
MODEL 2
REMARK VINA RESULT:      -8.4      7.923      9.820
REMARK  Name = 
REMARK  5 active torsions:
REMARK  status: ('A' for Active; 'I' for Inactive)
REMARK    1  A    between atoms: C_1  and  C_2
REMARK    2  A    between atoms: C_6  and  C_7
REMARK    3  A    between atoms: C_12  and  C_13
REMARK    4  A    between atoms: C_13  and  C_14
REMARK    5  A    between atoms: N_16  and  C_17
REMARK                            x       y       z     vdW  Elec       q    Type
REMARK                         _______ _______ _______ _____ _____    ______ ____
ROOT
ATOM      1  C   UNL     1       2.147   6.752  19.873  0.00  0.00    +0.000 C 
ATOM      2  O   UNL     1       2.631   7.308  18.892  0.00  0.00    +0.000 OA
ATOM      3  N   UNL     1       1.432   7.383  20.867  0.00  0.00    +0.000 N 
ATOM      4  C   UNL     1       1.175   8.723  20.778  0.00  0.00    +0.000 A 
ATOM      5  N   UNL     1       1.305   9.504  19.739  0.00  0.00    +0.000 NA
ATOM      6  C   UNL     1       0.992  10.809  20.072  0.00  0.00    +0.000 A 
ATOM      7  C   UNL     1       0.624  10.978  21.397  0.00  0.00    +0.000 A 
ATOM      8  S   UNL     1       0.617   9.460  22.209  0.00  0.00    +0.000 S 
ATOM      9  H   UNL     1       1.200   6.928  21.730  0.00  0.00    +0.000 HD
ENDROOT
BRANCH   1  15
ATOM     10  C   UNL     1       4.839   4.735  19.205  0.00  0.00    +0.000 C 
ATOM     11  C   UNL     1       3.488   4.523  19.770  0.00  0.00    +0.000 A 
ATOM     12  O   UNL     1       3.237   3.230  20.135  0.00  0.00    +0.000 OA
ATOM     13  C   UNL     1       1.992   3.187  20.661  0.00  0.00    +0.000 A 
ATOM     14  C   UNL     1       1.428   4.430  20.637  0.00  0.00    +0.000 A 
ATOM     15  C   UNL     1       2.388   5.322  20.051  0.00  0.00    +0.000 A 
ENDBRANCH   1  15
BRANCH   6  16
ATOM     16  C   UNL     1       1.053  11.832  18.980  0.00  0.00    +0.000 C 
BRANCH  16  17
ATOM     17  C   UNL     1      -0.324  12.222  18.481  0.00  0.00    +0.000 C 
ATOM     18  O   UNL     1      -0.533  13.373  18.094  0.00  0.00    +0.000 OA
ATOM     19  N   UNL     1      -1.280  11.222  18.558  0.00  0.00    +0.000 N 
ATOM     20  H   UNL     1      -1.097  10.390  19.116  0.00  0.00    +0.000 HD
BRANCH  19  21
ATOM     21  C   UNL     1      -2.636  11.346  18.138  0.00  0.00    +0.000 A 
ATOM     22  C   UNL     1      -3.045  10.918  16.867  0.00  0.00    +0.000 A 
ATOM     23  C   UNL     1      -4.345  11.128  16.430  0.00  0.00    +0.000 A 
ATOM     24  C   UNL     1      -5.257  11.752  17.267  0.00  0.00    +0.000 A 
ATOM     25  C   UNL     1      -4.881  12.134  18.563  0.00  0.00    +0.000 A 
ATOM     26  C   UNL     1      -5.811  12.746  19.412  0.00  0.00    +0.000 A 
ATOM     27  C   UNL     1      -5.438  13.106  20.695  0.00  0.00    +0.000 A 
ATOM     28  C   UNL     1      -4.138  12.847  21.088  0.00  0.00    +0.000 A 
ATOM     29  N   UNL     1      -3.200  12.278  20.291  0.00  0.00    +0.000 NA
ATOM     30  C   UNL     1      -3.562  11.917  19.033  0.00  0.00    +0.000 A 
ENDBRANCH  19  21
ENDBRANCH  16  17
ENDBRANCH   6  16
TORSDOF 4
ENDMDL
MODEL 3
REMARK VINA RESULT:      -8.3      7.590      9.775
REMARK  Name = 
REMARK  5 active torsions:
REMARK  status: ('A' for Active; 'I' for Inactive)
REMARK    1  A    between atoms: C_1  and  C_2
REMARK    2  A    between atoms: C_6  and  C_7
REMARK    3  A    between atoms: C_12  and  C_13
REMARK    4  A    between atoms: C_13  and  C_14
REMARK    5  A    between atoms: N_16  and  C_17
REMARK                            x       y       z     vdW  Elec       q    Type
REMARK                         _______ _______ _______ _____ _____    ______ ____
ROOT
ATOM      1  C   UNL     1       2.428   7.075  19.435  0.00  0.00    +0.000 C 
ATOM      2  O   UNL     1       2.904   7.925  18.689  0.00  0.00    +0.000 OA
ATOM      3  N   UNL     1       1.595   7.335  20.500  0.00  0.00    +0.000 N 
ATOM      4  C   UNL     1       1.200   8.618  20.761  0.00  0.00    +0.000 A 
ATOM      5  N   UNL     1       1.303   9.668  19.992  0.00  0.00    +0.000 NA
ATOM      6  C   UNL     1       0.833  10.794  20.643  0.00  0.00    +0.000 A 
ATOM      7  C   UNL     1       0.375  10.550  21.928  0.00  0.00    +0.000 A 
ATOM      8  S   UNL     1       0.486   8.870  22.288  0.00  0.00    +0.000 S 
ATOM      9  H   UNL     1       1.365   6.637  21.183  0.00  0.00    +0.000 HD
ENDROOT
BRANCH   1  15
ATOM     10  C   UNL     1       1.018   4.102  20.401  0.00  0.00    +0.000 C 
ATOM     11  C   UNL     1       2.225   4.487  19.637  0.00  0.00    +0.000 A 
ATOM     12  O   UNL     1       2.958   3.425  19.185  0.00  0.00    +0.000 OA
ATOM     13  C   UNL     1       4.003   3.918  18.481  0.00  0.00    +0.000 A 
ATOM     14  C   UNL     1       3.965   5.283  18.476  0.00  0.00    +0.000 A 
ATOM     15  C   UNL     1       2.811   5.679  19.233  0.00  0.00    +0.000 A 
ENDBRANCH   1  15
BRANCH   6  16
ATOM     16  C   UNL     1       0.844  12.084  19.884  0.00  0.00    +0.000 C 
BRANCH  16  17
ATOM     17  C   UNL     1      -0.220  12.126  18.806  0.00  0.00    +0.000 C 
ATOM     18  O   UNL     1      -0.279  13.088  18.039  0.00  0.00    +0.000 OA
ATOM     19  N   UNL     1      -1.102  11.056  18.812  0.00  0.00    +0.000 N 
ATOM     20  H   UNL     1      -1.143  10.440  19.621  0.00  0.00    +0.000 HD
BRANCH  19  21
ATOM     21  C   UNL     1      -2.173  10.868  17.891  0.00  0.00    +0.000 A 
ATOM     22  C   UNL     1      -1.994  10.140  16.707  0.00  0.00    +0.000 A 
ATOM     23  C   UNL     1      -3.013  10.041  15.771  0.00  0.00    +0.000 A 
ATOM     24  C   UNL     1      -4.232  10.653  16.018  0.00  0.00    +0.000 A 
ATOM     25  C   UNL     1      -4.448  11.336  17.224  0.00  0.00    +0.000 A 
ATOM     26  C   UNL     1      -5.687  11.938  17.478  0.00  0.00    +0.000 A 
ATOM     27  C   UNL     1      -5.900  12.596  18.676  0.00  0.00    +0.000 A 
ATOM     28  C   UNL     1      -4.858  12.640  19.584  0.00  0.00    +0.000 A 
ATOM     29  N   UNL     1      -3.636  12.092  19.369  0.00  0.00    +0.000 NA
ATOM     30  C   UNL     1      -3.424  11.439  18.197  0.00  0.00    +0.000 A 
ENDBRANCH  19  21
ENDBRANCH  16  17
ENDBRANCH   6  16
TORSDOF 4
ENDMDL
MODEL 4
REMARK VINA RESULT:      -8.3      6.626      9.539
REMARK  Name = 
REMARK  5 active torsions:
REMARK  status: ('A' for Active; 'I' for Inactive)
REMARK    1  A    between atoms: C_1  and  C_2
REMARK    2  A    between atoms: C_6  and  C_7
REMARK    3  A    between atoms: C_12  and  C_13
REMARK    4  A    between atoms: C_13  and  C_14
REMARK    5  A    between atoms: N_16  and  C_17
REMARK                            x       y       z     vdW  Elec       q    Type
REMARK                         _______ _______ _______ _____ _____    ______ ____
ROOT
ATOM      1  C   UNL     1      -2.011  10.307  17.585  0.00  0.00    +0.000 C 
ATOM      2  O   UNL     1      -2.232   9.405  18.386  0.00  0.00    +0.000 OA
ATOM      3  N   UNL     1      -1.059  11.289  17.744  0.00  0.00    +0.000 N 
ATOM      4  C   UNL     1      -0.239  11.277  18.838  0.00  0.00    +0.000 A 
ATOM      5  N   UNL     1      -0.046  10.307  19.692  0.00  0.00    +0.000 NA
ATOM      6  C   UNL     1       0.822  10.708  20.691  0.00  0.00    +0.000 A 
ATOM      7  C   UNL     1       1.270  12.012  20.557  0.00  0.00    +0.000 A 
ATOM      8  S   UNL     1       0.633  12.713  19.119  0.00  0.00    +0.000 S 
ATOM      9  H   UNL     1      -1.023  12.101  17.154  0.00  0.00    +0.000 HD
ENDROOT
BRANCH   1  15
ATOM     10  C   UNL     1      -5.008  11.852  16.958  0.00  0.00    +0.000 C 
ATOM     11  C   UNL     1      -4.067  11.032  16.162  0.00  0.00    +0.000 A 
ATOM     12  O   UNL     1      -4.454  10.846  14.864  0.00  0.00    +0.000 OA
ATOM     13  C   UNL     1      -3.496  10.115  14.252  0.00  0.00    +0.000 A 
ATOM     14  C   UNL     1      -2.497   9.816  15.133  0.00  0.00    +0.000 A 
ATOM     15  C   UNL     1      -2.852  10.401  16.394  0.00  0.00    +0.000 A 
ENDBRANCH   1  15
BRANCH   6  16
ATOM     16  C   UNL     1       1.183   9.698  21.736  0.00  0.00    +0.000 C 
BRANCH  16  17
ATOM     17  C   UNL     1       0.948   8.277  21.266  0.00  0.00    +0.000 C 
ATOM     18  O   UNL     1      -0.137   7.732  21.477  0.00  0.00    +0.000 OA
ATOM     19  N   UNL     1       2.039   7.671  20.663  0.00  0.00    +0.000 N 
ATOM     20  H   UNL     1       2.963   8.090  20.753  0.00  0.00    +0.000 HD
BRANCH  19  21
ATOM     21  C   UNL     1       2.056   6.350  20.132  0.00  0.00    +0.000 A 
ATOM     22  C   UNL     1       1.319   5.317  20.727  0.00  0.00    +0.000 A 
ATOM     23  C   UNL     1       1.415   4.013  20.261  0.00  0.00    +0.000 A 
ATOM     24  C   UNL     1       2.234   3.731  19.180  0.00  0.00    +0.000 A 
ATOM     25  C   UNL     1       2.934   4.761  18.535  0.00  0.00    +0.000 A 
ATOM     26  C   UNL     1       3.746   4.474  17.431  0.00  0.00    +0.000 A 
ATOM     27  C   UNL     1       4.420   5.497  16.788  0.00  0.00    +0.000 A 
ATOM     28  C   UNL     1       4.267   6.780  17.278  0.00  0.00    +0.000 A 
ATOM     29  N   UNL     1       3.510   7.099  18.358  0.00  0.00    +0.000 NA
ATOM     30  C   UNL     1       2.840   6.100  18.988  0.00  0.00    +0.000 A 
ENDBRANCH  19  21
ENDBRANCH  16  17
ENDBRANCH   6  16
TORSDOF 4
ENDMDL
MODEL 5
REMARK VINA RESULT:      -8.2      5.362      7.544
REMARK  Name = 
REMARK  5 active torsions:
REMARK  status: ('A' for Active; 'I' for Inactive)
REMARK    1  A    between atoms: C_1  and  C_2
REMARK    2  A    between atoms: C_6  and  C_7
REMARK    3  A    between atoms: C_12  and  C_13
REMARK    4  A    between atoms: C_13  and  C_14
REMARK    5  A    between atoms: N_16  and  C_17
REMARK                            x       y       z     vdW  Elec       q    Type
REMARK                         _______ _______ _______ _____ _____    ______ ____
ROOT
ATOM      1  C   UNL     1       5.812   4.251  14.945  0.00  0.00    +0.000 C 
ATOM      2  O   UNL     1       4.599   4.300  15.124  0.00  0.00    +0.000 OA
ATOM      3  N   UNL     1       6.763   4.461  15.918  0.00  0.00    +0.000 N 
ATOM      4  C   UNL     1       6.381   4.700  17.208  0.00  0.00    +0.000 A 
ATOM      5  N   UNL     1       5.203   4.530  17.747  0.00  0.00    +0.000 NA
ATOM      6  C   UNL     1       5.211   4.939  19.068  0.00  0.00    +0.000 A 
ATOM      7  C   UNL     1       6.436   5.424  19.499  0.00  0.00    +0.000 A 
ATOM      8  S   UNL     1       7.599   5.302  18.236  0.00  0.00    +0.000 S 
ATOM      9  H   UNL     1       7.736   4.579  15.699  0.00  0.00    +0.000 HD
ENDROOT
BRANCH   1  15
ATOM     10  C   UNL     1       8.276   5.718  13.066  0.00  0.00    +0.000 C 
ATOM     11  C   UNL     1       7.306   4.623  12.846  0.00  0.00    +0.000 A 
ATOM     12  O   UNL     1       7.407   4.030  11.618  0.00  0.00    +0.000 OA
ATOM     13  C   UNL     1       6.493   3.035  11.567  0.00  0.00    +0.000 A 
ATOM     14  C   UNL     1       5.794   2.977  12.738  0.00  0.00    +0.000 A 
ATOM     15  C   UNL     1       6.305   4.013  13.590  0.00  0.00    +0.000 A 
ENDBRANCH   1  15
BRANCH   6  16
ATOM     16  C   UNL     1       3.943   4.774  19.848  0.00  0.00    +0.000 C 
BRANCH  16  17
ATOM     17  C   UNL     1       2.830   5.663  19.330  0.00  0.00    +0.000 C 
ATOM     18  O   UNL     1       1.920   5.177  18.657  0.00  0.00    +0.000 OA
ATOM     19  N   UNL     1       2.969   7.010  19.627  0.00  0.00    +0.000 N 
ATOM     20  H   UNL     1       3.863   7.363  19.963  0.00  0.00    +0.000 HD
BRANCH  19  21
ATOM     21  C   UNL     1       2.048   8.032  19.260  0.00  0.00    +0.000 A 
ATOM     22  C   UNL     1       1.863   8.396  17.919  0.00  0.00    +0.000 A 
ATOM     23  C   UNL     1       1.035   9.457  17.577  0.00  0.00    +0.000 A 
ATOM     24  C   UNL     1       0.366  10.152  18.572  0.00  0.00    +0.000 A 
ATOM     25  C   UNL     1       0.493   9.764  19.913  0.00  0.00    +0.000 A 
ATOM     26  C   UNL     1      -0.199  10.458  20.913  0.00  0.00    +0.000 A 
ATOM     27  C   UNL     1      -0.082  10.060  22.233  0.00  0.00    +0.000 A 
ATOM     28  C   UNL     1       0.734   8.981  22.514  0.00  0.00    +0.000 A 
ATOM     29  N   UNL     1       1.441   8.296  21.580  0.00  0.00    +0.000 NA
ATOM     30  C   UNL     1       1.324   8.678  20.282  0.00  0.00    +0.000 A 
ENDBRANCH  19  21
ENDBRANCH  16  17
ENDBRANCH   6  16
TORSDOF 4
ENDMDL
MODEL 6
REMARK VINA RESULT:      -8.1      7.234      9.496
REMARK  Name = 
REMARK  5 active torsions:
REMARK  status: ('A' for Active; 'I' for Inactive)
REMARK    1  A    between atoms: C_1  and  C_2
REMARK    2  A    between atoms: C_6  and  C_7
REMARK    3  A    between atoms: C_12  and  C_13
REMARK    4  A    between atoms: C_13  and  C_14
REMARK    5  A    between atoms: N_16  and  C_17
REMARK                            x       y       z     vdW  Elec       q    Type
REMARK                         _______ _______ _______ _____ _____    ______ ____
ROOT
ATOM      1  C   UNL     1      -3.698  10.896  17.894  0.00  0.00    +0.000 C 
ATOM      2  O   UNL     1      -3.320  10.020  17.123  0.00  0.00    +0.000 OA
ATOM      3  N   UNL     1      -2.921  11.482  18.869  0.00  0.00    +0.000 N 
ATOM      4  C   UNL     1      -1.607  11.128  18.999  0.00  0.00    +0.000 A 
ATOM      5  N   UNL     1      -0.864  10.456  18.161  0.00  0.00    +0.000 NA
ATOM      6  C   UNL     1       0.401  10.259  18.685  0.00  0.00    +0.000 A 
ATOM      7  C   UNL     1       0.578  10.805  19.946  0.00  0.00    +0.000 A 
ATOM      8  S   UNL     1      -0.851  11.627  20.442  0.00  0.00    +0.000 S 
ATOM      9  H   UNL     1      -3.310  12.068  19.584  0.00  0.00    +0.000 HD
ENDROOT
BRANCH   1  15
ATOM     10  C   UNL     1      -6.572   9.708  19.341  0.00  0.00    +0.000 C 
ATOM     11  C   UNL     1      -6.246  10.823  18.424  0.00  0.00    +0.000 A 
ATOM     12  O   UNL     1      -7.326  11.583  18.070  0.00  0.00    +0.000 OA
ATOM     13  C   UNL     1      -6.882  12.576  17.266  0.00  0.00    +0.000 A 
ATOM     14  C   UNL     1      -5.533  12.468  17.086  0.00  0.00    +0.000 A 
ATOM     15  C   UNL     1      -5.095  11.323  17.831  0.00  0.00    +0.000 A 
ENDBRANCH   1  15
BRANCH   6  16
ATOM     16  C   UNL     1       1.395   9.535  17.831  0.00  0.00    +0.000 C 
BRANCH  16  17
ATOM     17  C   UNL     1       1.961   8.310  18.521  0.00  0.00    +0.000 C 
ATOM     18  O   UNL     1       1.858   8.192  19.743  0.00  0.00    +0.000 OA
ATOM     19  N   UNL     1       2.618   7.418  17.686  0.00  0.00    +0.000 N 
ATOM     20  H   UNL     1       2.877   7.706  16.745  0.00  0.00    +0.000 HD
BRANCH  19  21
ATOM     21  C   UNL     1       3.217   6.194  18.100  0.00  0.00    +0.000 A 
ATOM     22  C   UNL     1       2.448   5.155  18.643  0.00  0.00    +0.000 A 
ATOM     23  C   UNL     1       3.051   4.004  19.131  0.00  0.00    +0.000 A 
ATOM     24  C   UNL     1       4.428   3.870  19.062  0.00  0.00    +0.000 A 
ATOM     25  C   UNL     1       5.208   4.873  18.469  0.00  0.00    +0.000 A 
ATOM     26  C   UNL     1       6.598   4.725  18.385  0.00  0.00    +0.000 A 
ATOM     27  C   UNL     1       7.360   5.711  17.784  0.00  0.00    +0.000 A 
ATOM     28  C   UNL     1       6.705   6.824  17.291  0.00  0.00    +0.000 A 
ATOM     29  N   UNL     1       5.365   7.019  17.372  0.00  0.00    +0.000 NA
ATOM     30  C   UNL     1       4.611   6.051  17.955  0.00  0.00    +0.000 A 
ENDBRANCH  19  21
ENDBRANCH  16  17
ENDBRANCH   6  16
TORSDOF 4
ENDMDL
MODEL 7
REMARK VINA RESULT:      -8.1      6.440     10.655
REMARK  Name = 
REMARK  5 active torsions:
REMARK  status: ('A' for Active; 'I' for Inactive)
REMARK    1  A    between atoms: C_1  and  C_2
REMARK    2  A    between atoms: C_6  and  C_7
REMARK    3  A    between atoms: C_12  and  C_13
REMARK    4  A    between atoms: C_13  and  C_14
REMARK    5  A    between atoms: N_16  and  C_17
REMARK                            x       y       z     vdW  Elec       q    Type
REMARK                         _______ _______ _______ _____ _____    ______ ____
ROOT
ATOM      1  C   UNL     1       1.415  14.378  19.045  0.00  0.00    +0.000 C 
ATOM      2  O   UNL     1       2.440  13.751  19.294  0.00  0.00    +0.000 OA
ATOM      3  N   UNL     1       0.182  13.814  18.801  0.00  0.00    +0.000 N 
ATOM      4  C   UNL     1       0.025  12.458  18.874  0.00  0.00    +0.000 A 
ATOM      5  N   UNL     1       0.840  11.576  19.387  0.00  0.00    +0.000 NA
ATOM      6  C   UNL     1       0.340  10.298  19.216  0.00  0.00    +0.000 A 
ATOM      7  C   UNL     1      -0.877  10.254  18.556  0.00  0.00    +0.000 A 
ATOM      8  S   UNL     1      -1.419  11.849  18.204  0.00  0.00    +0.000 S 
ATOM      9  H   UNL     1      -0.588  14.346  18.438  0.00  0.00    +0.000 HD
ENDROOT
BRANCH   1  15
ATOM     10  C   UNL     1       3.341  16.468  17.126  0.00  0.00    +0.000 C 
ATOM     11  C   UNL     1       2.291  16.661  18.152  0.00  0.00    +0.000 A 
ATOM     12  O   UNL     1       1.989  17.972  18.396  0.00  0.00    +0.000 OA
ATOM     13  C   UNL     1       1.001  17.999  19.319  0.00  0.00    +0.000 A 
ATOM     14  C   UNL     1       0.662  16.727  19.684  0.00  0.00    +0.000 A 
ATOM     15  C   UNL     1       1.499  15.833  18.936  0.00  0.00    +0.000 A 
ENDBRANCH   1  15
BRANCH   6  16
ATOM     16  C   UNL     1       1.138   9.165  19.784  0.00  0.00    +0.000 C 
BRANCH  16  17
ATOM     17  C   UNL     1       1.923   8.425  18.720  0.00  0.00    +0.000 C 
ATOM     18  O   UNL     1       2.040   8.912  17.594  0.00  0.00    +0.000 OA
ATOM     19  N   UNL     1       2.415   7.188  19.108  0.00  0.00    +0.000 N 
ATOM     20  H   UNL     1       2.066   6.750  19.959  0.00  0.00    +0.000 HD
BRANCH  19  21
ATOM     21  C   UNL     1       3.191   6.318  18.290  0.00  0.00    +0.000 A 
ATOM     22  C   UNL     1       4.284   6.796  17.553  0.00  0.00    +0.000 A 
ATOM     23  C   UNL     1       4.976   5.963  16.685  0.00  0.00    +0.000 A 
ATOM     24  C   UNL     1       4.596   4.636  16.560  0.00  0.00    +0.000 A 
ATOM     25  C   UNL     1       3.543   4.126  17.333  0.00  0.00    +0.000 A 
ATOM     26  C   UNL     1       3.174   2.780  17.218  0.00  0.00    +0.000 A 
ATOM     27  C   UNL     1       2.145   2.280  17.995  0.00  0.00    +0.000 A 
ATOM     28  C   UNL     1       1.508   3.147  18.862  0.00  0.00    +0.000 A 
ATOM     29  N   UNL     1       1.817   4.462  18.989  0.00  0.00    +0.000 NA
ATOM     30  C   UNL     1       2.831   4.957  18.233  0.00  0.00    +0.000 A 
ENDBRANCH  19  21
ENDBRANCH  16  17
ENDBRANCH   6  16
TORSDOF 4
ENDMDL
MODEL 8
REMARK VINA RESULT:      -8.1      8.044     10.101
REMARK  Name = 
REMARK  5 active torsions:
REMARK  status: ('A' for Active; 'I' for Inactive)
REMARK    1  A    between atoms: C_1  and  C_2
REMARK    2  A    between atoms: C_6  and  C_7
REMARK    3  A    between atoms: C_12  and  C_13
REMARK    4  A    between atoms: C_13  and  C_14
REMARK    5  A    between atoms: N_16  and  C_17
REMARK                            x       y       z     vdW  Elec       q    Type
REMARK                         _______ _______ _______ _____ _____    ______ ____
ROOT
ATOM      1  C   UNL     1       2.326   6.255  19.823  0.00  0.00    +0.000 C 
ATOM      2  O   UNL     1       2.456   6.715  18.693  0.00  0.00    +0.000 OA
ATOM      3  N   UNL     1       1.841   6.950  20.908  0.00  0.00    +0.000 N 
ATOM      4  C   UNL     1       1.414   8.240  20.759  0.00  0.00    +0.000 A 
ATOM      5  N   UNL     1       1.165   8.886  19.651  0.00  0.00    +0.000 NA
ATOM      6  C   UNL     1       0.804  10.193  19.923  0.00  0.00    +0.000 A 
ATOM      7  C   UNL     1       0.794  10.504  21.273  0.00  0.00    +0.000 A 
ATOM      8  S   UNL     1       1.186   9.111  22.205  0.00  0.00    +0.000 S 
ATOM      9  H   UNL     1       1.908   6.595  21.845  0.00  0.00    +0.000 HD
ENDROOT
BRANCH   1  15
ATOM     10  C   UNL     1       5.041   4.451  18.757  0.00  0.00    +0.000 C 
ATOM     11  C   UNL     1       3.876   4.173  19.626  0.00  0.00    +0.000 A 
ATOM     12  O   UNL     1       3.867   2.911  20.153  0.00  0.00    +0.000 OA
ATOM     13  C   UNL     1       2.776   2.807  20.945  0.00  0.00    +0.000 A 
ATOM     14  C   UNL     1       2.072   3.977  20.935  0.00  0.00    +0.000 A 
ATOM     15  C   UNL     1       2.771   4.886  20.072  0.00  0.00    +0.000 A 
ENDBRANCH   1  15
BRANCH   6  16
ATOM     16  C   UNL     1       0.445  11.065  18.759  0.00  0.00    +0.000 C 
BRANCH  16  17
ATOM     17  C   UNL     1      -0.989  10.865  18.313  0.00  0.00    +0.000 C 
ATOM     18  O   UNL     1      -1.273   9.929  17.564  0.00  0.00    +0.000 OA
ATOM     19  N   UNL     1      -1.882  11.825  18.763  0.00  0.00    +0.000 N 
ATOM     20  H   UNL     1      -1.531  12.694  19.161  0.00  0.00    +0.000 HD
BRANCH  19  21
ATOM     21  C   UNL     1      -3.279  11.842  18.486  0.00  0.00    +0.000 A 
ATOM     22  C   UNL     1      -3.774  11.496  17.220  0.00  0.00    +0.000 A 
ATOM     23  C   UNL     1      -5.127  11.606  16.931  0.00  0.00    +0.000 A 
ATOM     24  C   UNL     1      -6.003  12.044  17.910  0.00  0.00    +0.000 A 
ATOM     25  C   UNL     1      -5.535  12.337  19.199  0.00  0.00    +0.000 A 
ATOM     26  C   UNL     1      -6.428  12.761  20.191  0.00  0.00    +0.000 A 
ATOM     27  C   UNL     1      -5.962  13.034  21.465  0.00  0.00    +0.000 A 
ATOM     28  C   UNL     1      -4.609  12.881  21.705  0.00  0.00    +0.000 A 
ATOM     29  N   UNL     1      -3.707  12.496  20.769  0.00  0.00    +0.000 NA
ATOM     30  C   UNL     1      -4.160  12.221  19.519  0.00  0.00    +0.000 A 
ENDBRANCH  19  21
ENDBRANCH  16  17
ENDBRANCH   6  16
TORSDOF 4
ENDMDL
MODEL 9
REMARK VINA RESULT:      -8.1      7.814      9.694
REMARK  Name = 
REMARK  5 active torsions:
REMARK  status: ('A' for Active; 'I' for Inactive)
REMARK    1  A    between atoms: C_1  and  C_2
REMARK    2  A    between atoms: C_6  and  C_7
REMARK    3  A    between atoms: C_12  and  C_13
REMARK    4  A    between atoms: C_13  and  C_14
REMARK    5  A    between atoms: N_16  and  C_17
REMARK                            x       y       z     vdW  Elec       q    Type
REMARK                         _______ _______ _______ _____ _____    ______ ____
ROOT
ATOM      1  C   UNL     1       2.594   6.655  19.479  0.00  0.00    +0.000 C 
ATOM      2  O   UNL     1       3.062   7.310  18.552  0.00  0.00    +0.000 OA
ATOM      3  N   UNL     1       1.793   7.161  20.479  0.00  0.00    +0.000 N 
ATOM      4  C   UNL     1       1.425   8.478  20.459  0.00  0.00    +0.000 A 
ATOM      5  N   UNL     1       1.524   9.330  19.474  0.00  0.00    +0.000 NA
ATOM      6  C   UNL     1       1.089  10.582  19.871  0.00  0.00    +0.000 A 
ATOM      7  C   UNL     1       0.662  10.636  21.188  0.00  0.00    +0.000 A 
ATOM      8  S   UNL     1       0.757   9.076  21.908  0.00  0.00    +0.000 S 
ATOM      9  H   UNL     1       1.571   6.636  21.304  0.00  0.00    +0.000 HD
ENDROOT
BRANCH   1  15
ATOM     10  C   UNL     1       0.793   3.844  20.262  0.00  0.00    +0.000 C 
ATOM     11  C   UNL     1       2.203   4.117  19.904  0.00  0.00    +0.000 A 
ATOM     12  O   UNL     1       2.988   2.999  19.850  0.00  0.00    +0.000 OA
ATOM     13  C   UNL     1       4.230   3.388  19.483  0.00  0.00    +0.000 A 
ATOM     14  C   UNL     1       4.266   4.741  19.305  0.00  0.00    +0.000 A 
ATOM     15  C   UNL     1       2.950   5.242  19.582  0.00  0.00    +0.000 A 
ENDBRANCH   1  15
BRANCH   6  16
ATOM     16  C   UNL     1       1.100  11.672  18.845  0.00  0.00    +0.000 C 
BRANCH  16  17
ATOM     17  C   UNL     1      -0.298  12.105  18.452  0.00  0.00    +0.000 C 
ATOM     18  O   UNL     1      -0.510  13.274  18.127  0.00  0.00    +0.000 OA
ATOM     19  N   UNL     1      -1.266  11.117  18.548  0.00  0.00    +0.000 N 
ATOM     20  H   UNL     1      -1.064  10.259  19.058  0.00  0.00    +0.000 HD
BRANCH  19  21
ATOM     21  C   UNL     1      -2.643  11.280  18.221  0.00  0.00    +0.000 A 
ATOM     22  C   UNL     1      -3.154  10.846  16.990  0.00  0.00    +0.000 A 
ATOM     23  C   UNL     1      -4.475  11.094  16.641  0.00  0.00    +0.000 A 
ATOM     24  C   UNL     1      -5.305  11.760  17.528  0.00  0.00    +0.000 A 
ATOM     25  C   UNL     1      -4.827  12.149  18.787  0.00  0.00    +0.000 A 
ATOM     26  C   UNL     1      -5.674  12.806  19.688  0.00  0.00    +0.000 A 
ATOM     27  C   UNL     1      -5.201  13.172  20.936  0.00  0.00    +0.000 A 
ATOM     28  C   UNL     1      -3.886  12.877  21.241  0.00  0.00    +0.000 A 
ATOM     29  N   UNL     1      -3.024  12.264  20.391  0.00  0.00    +0.000 NA
ATOM     30  C   UNL     1      -3.486  11.896  19.168  0.00  0.00    +0.000 A 
ENDBRANCH  19  21
ENDBRANCH  16  17
ENDBRANCH   6  16
TORSDOF 4
ENDMDL
