MODEL 1
REMARK VINA RESULT:      -8.7      0.000      0.000
REMARK  Name = 
REMARK  9 active torsions:
REMARK  status: ('A' for Active; 'I' for Inactive)
REMARK    1  A    between atoms: C_1  and  C_2
REMARK    2  A    between atoms: C_4  and  N_5
REMARK    3  A    between atoms: C_6  and  C_8
REMARK    4  A    between atoms: C_11  and  C_12
REMARK    5  A    between atoms: C_13  and  S_14
REMARK    6  A    between atoms: S_14  and  N_17
REMARK    7  A    between atoms: N_17  and  C_18
REMARK    8  A    between atoms: C_18  and  C_19
REMARK    9  A    between atoms: C_28  and  N_29
REMARK                            x       y       z     vdW  Elec       q    Type
REMARK                         _______ _______ _______ _____ _____    ______ ____
ROOT
ATOM      1  C   UNL     1       0.150   9.903  21.450  0.00  0.00    +0.000 A 
ATOM      2  C   UNL     1      -0.363   9.811  22.746  0.00  0.00    +0.000 A 
ATOM      3  C   UNL     1      -1.308  10.724  23.197  0.00  0.00    +0.000 A 
ATOM      4  C   UNL     1      -1.755  11.771  22.377  0.00  0.00    +0.000 A 
ATOM      5  C   UNL     1      -2.794  12.675  22.967  0.00  0.00    +0.000 C 
ATOM      6  C   UNL     1      -1.220  11.884  21.075  0.00  0.00    +0.000 A 
ATOM      7  C   UNL     1      -0.271  10.944  20.614  0.00  0.00    +0.000 A 
ENDROOT
BRANCH   1   9
ATOM      8  N   UNL     1       1.358   8.698  19.704  0.00  0.00    +0.000 N 
ATOM      9  C   UNL     1       1.180   8.901  21.062  0.00  0.00    +0.000 C 
ATOM     10  O   UNL     1       1.734   8.289  21.970  0.00  0.00    +0.000 OA
ATOM     11  H   UNL     1       0.724   9.161  19.068  0.00  0.00    +0.000 HD
BRANCH   8  15
ATOM     12  C   UNL     1       3.708   4.309  19.711  0.00  0.00    +0.000 C 
ATOM     13  C   UNL     1       3.408   5.615  19.027  0.00  0.00    +0.000 A 
ATOM     14  C   UNL     1       2.481   6.491  19.621  0.00  0.00    +0.000 A 
ATOM     15  C   UNL     1       2.263   7.778  19.120  0.00  0.00    +0.000 A 
ATOM     16  C   UNL     1       2.995   8.192  18.004  0.00  0.00    +0.000 A 
ATOM     17  C   UNL     1       3.900   7.321  17.384  0.00  0.00    +0.000 A 
ATOM     18  C   UNL     1       4.095   6.025  17.875  0.00  0.00    +0.000 A 
BRANCH  18  19
ATOM     19  N   UNL     1       4.989   5.144  17.231  0.00  0.00    +0.000 N 
ATOM     20  C   UNL     1       4.694   4.662  15.902  0.00  0.00    +0.000 C 
ATOM     21  C   UNL     1       5.854   3.734  15.605  0.00  0.00    +0.000 C 
ATOM     22  C   UNL     1       7.024   4.392  16.324  0.00  0.00    +0.000 C 
ATOM     23  C   UNL     1       6.367   5.142  17.461  0.00  0.00    +0.000 C 
ATOM     24  O   UNL     1       6.976   5.655  18.387  0.00  0.00    +0.000 OA
ENDBRANCH  18  19
ENDBRANCH   8  15
ENDBRANCH   1   9
BRANCH   6  25
ATOM     25  S   UNL     1      -1.569  13.282  20.000  0.00  0.00    +0.000 S 
ATOM     26  O   UNL     1      -1.427  14.483  20.787  0.00  0.00    +0.000 OA
ATOM     27  O   UNL     1      -0.792  13.073  18.793  0.00  0.00    +0.000 OA
BRANCH  25  28
ATOM     28  N   UNL     1      -3.177  13.096  19.538  0.00  0.00    +0.000 NA
ATOM     29  H   UNL     1      -3.490  13.737  18.814  0.00  0.00    +0.000 HD
BRANCH  28  30
ATOM     30  C   UNL     1      -3.657  11.714  19.398  0.00  0.00    +0.000 C 
BRANCH  30  31
ATOM     31  C   UNL     1      -3.390  11.149  18.029  0.00  0.00    +0.000 A 
ATOM     32  C   UNL     1      -2.411  10.158  17.829  0.00  0.00    +0.000 A 
ATOM     33  C   UNL     1      -2.228   9.596  16.562  0.00  0.00    +0.000 A 
ATOM     34  C   UNL     1      -3.012  10.018  15.492  0.00  0.00    +0.000 A 
ATOM     35  C   UNL     1      -3.965  11.018  15.676  0.00  0.00    +0.000 A 
ATOM     36  C   UNL     1      -4.149  11.584  16.937  0.00  0.00    +0.000 A 
ENDBRANCH  30  31
ENDBRANCH  28  30
ENDBRANCH  25  28
ENDBRANCH   6  25
TORSDOF 7
ENDMDL
MODEL 2
REMARK VINA RESULT:      -8.6      3.119     10.326
REMARK  Name = 
REMARK  9 active torsions:
REMARK  status: ('A' for Active; 'I' for Inactive)
REMARK    1  A    between atoms: C_1  and  C_2
REMARK    2  A    between atoms: C_4  and  N_5
REMARK    3  A    between atoms: C_6  and  C_8
REMARK    4  A    between atoms: C_11  and  C_12
REMARK    5  A    between atoms: C_13  and  S_14
REMARK    6  A    between atoms: S_14  and  N_17
REMARK    7  A    between atoms: N_17  and  C_18
REMARK    8  A    between atoms: C_18  and  C_19
REMARK    9  A    between atoms: C_28  and  N_29
REMARK                            x       y       z     vdW  Elec       q    Type
REMARK                         _______ _______ _______ _____ _____    ______ ____
ROOT
ATOM      1  C   UNL     1       2.748   7.061  18.162  0.00  0.00    +0.000 A 
ATOM      2  C   UNL     1       2.055   5.849  18.128  0.00  0.00    +0.000 A 
ATOM      3  C   UNL     1       2.693   4.682  17.723  0.00  0.00    +0.000 A 
ATOM      4  C   UNL     1       4.036   4.693  17.317  0.00  0.00    +0.000 A 
ATOM      5  C   UNL     1       4.619   3.370  16.927  0.00  0.00    +0.000 C 
ATOM      6  C   UNL     1       4.733   5.921  17.324  0.00  0.00    +0.000 A 
ATOM      7  C   UNL     1       4.086   7.102  17.752  0.00  0.00    +0.000 A 
ENDROOT
BRANCH   1   9
ATOM      8  N   UNL     1       1.559   8.298  19.898  0.00  0.00    +0.000 N 
ATOM      9  C   UNL     1       1.978   8.265  18.580  0.00  0.00    +0.000 C 
ATOM     10  O   UNL     1       1.718   9.090  17.710  0.00  0.00    +0.000 OA
ATOM     11  H   UNL     1       1.714   7.476  20.466  0.00  0.00    +0.000 HD
BRANCH   8  15
ATOM     12  C   UNL     1      -1.198  12.427  19.544  0.00  0.00    +0.000 C 
ATOM     13  C   UNL     1      -0.618  11.328  20.390  0.00  0.00    +0.000 A 
ATOM     14  C   UNL     1       0.109  10.302  19.760  0.00  0.00    +0.000 A 
ATOM     15  C   UNL     1       0.796   9.331  20.495  0.00  0.00    +0.000 A 
ATOM     16  C   UNL     1       0.757   9.399  21.890  0.00  0.00    +0.000 A 
ATOM     17  C   UNL     1       0.014  10.398  22.533  0.00  0.00    +0.000 A 
ATOM     18  C   UNL     1      -0.694  11.351  21.791  0.00  0.00    +0.000 A 
BRANCH  18  19
ATOM     19  N   UNL     1      -1.461  12.339  22.444  0.00  0.00    +0.000 N 
ATOM     20  C   UNL     1      -2.643  11.963  23.183  0.00  0.00    +0.000 C 
ATOM     21  C   UNL     1      -3.179  13.291  23.677  0.00  0.00    +0.000 C 
ATOM     22  C   UNL     1      -1.920  14.110  23.920  0.00  0.00    +0.000 C 
ATOM     23  C   UNL     1      -0.919  13.523  22.950  0.00  0.00    +0.000 C 
ATOM     24  O   UNL     1       0.167  14.023  22.698  0.00  0.00    +0.000 OA
ENDBRANCH  18  19
ENDBRANCH   8  15
ENDBRANCH   1   9
BRANCH   6  25
ATOM     25  S   UNL     1       6.392   6.100  16.654  0.00  0.00    +0.000 S 
ATOM     26  O   UNL     1       6.806   7.465  16.873  0.00  0.00    +0.000 OA
ATOM     27  O   UNL     1       7.163   4.984  17.167  0.00  0.00    +0.000 OA
BRANCH  25  28
ATOM     28  N   UNL     1       6.235   5.816  15.001  0.00  0.00    +0.000 NA
ATOM     29  H   UNL     1       6.129   6.652  14.433  0.00  0.00    +0.000 HD
BRANCH  28  30
ATOM     30  C   UNL     1       7.111   4.782  14.434  0.00  0.00    +0.000 C 
BRANCH  30  31
ATOM     31  C   UNL     1       6.435   3.988  13.349  0.00  0.00    +0.000 A 
ATOM     32  C   UNL     1       5.032   3.934  13.253  0.00  0.00    +0.000 A 
ATOM     33  C   UNL     1       4.424   3.249  12.197  0.00  0.00    +0.000 A 
ATOM     34  C   UNL     1       5.207   2.615  11.235  0.00  0.00    +0.000 A 
ATOM     35  C   UNL     1       6.597   2.641  11.337  0.00  0.00    +0.000 A 
ATOM     36  C   UNL     1       7.207   3.320  12.392  0.00  0.00    +0.000 A 
ENDBRANCH  30  31
ENDBRANCH  28  30
ENDBRANCH  25  28
ENDBRANCH   6  25
TORSDOF 7
ENDMDL
MODEL 3
REMARK VINA RESULT:      -8.5      3.672     10.220
REMARK  Name = 
REMARK  9 active torsions:
REMARK  status: ('A' for Active; 'I' for Inactive)
REMARK    1  A    between atoms: C_1  and  C_2
REMARK    2  A    between atoms: C_4  and  N_5
REMARK    3  A    between atoms: C_6  and  C_8
REMARK    4  A    between atoms: C_11  and  C_12
REMARK    5  A    between atoms: C_13  and  S_14
REMARK    6  A    between atoms: S_14  and  N_17
REMARK    7  A    between atoms: N_17  and  C_18
REMARK    8  A    between atoms: C_18  and  C_19
REMARK    9  A    between atoms: C_28  and  N_29
REMARK                            x       y       z     vdW  Elec       q    Type
REMARK                         _______ _______ _______ _____ _____    ______ ____
ROOT
ATOM      1  C   UNL     1       3.051   6.996  18.061  0.00  0.00    +0.000 A 
ATOM      2  C   UNL     1       2.354   5.794  17.919  0.00  0.00    +0.000 A 
ATOM      3  C   UNL     1       3.013   4.641  17.509  0.00  0.00    +0.000 A 
ATOM      4  C   UNL     1       4.382   4.656  17.206  0.00  0.00    +0.000 A 
ATOM      5  C   UNL     1       4.984   3.346  16.800  0.00  0.00    +0.000 C 
ATOM      6  C   UNL     1       5.085   5.875  17.322  0.00  0.00    +0.000 A 
ATOM      7  C   UNL     1       4.416   7.042  17.755  0.00  0.00    +0.000 A 
ENDROOT
BRANCH   1   9
ATOM      8  N   UNL     1       1.803   8.196  19.781  0.00  0.00    +0.000 N 
ATOM      9  C   UNL     1       2.260   8.187  18.475  0.00  0.00    +0.000 C 
ATOM     10  O   UNL     1       2.018   9.025  17.612  0.00  0.00    +0.000 OA
ATOM     11  H   UNL     1       1.948   7.367  20.340  0.00  0.00    +0.000 HD
BRANCH   8  15
ATOM     12  C   UNL     1      -1.142  12.191  19.396  0.00  0.00    +0.000 C 
ATOM     13  C   UNL     1      -0.487  11.145  20.255  0.00  0.00    +0.000 A 
ATOM     14  C   UNL     1       0.263  10.131  19.632  0.00  0.00    +0.000 A 
ATOM     15  C   UNL     1       1.016   9.214  20.373  0.00  0.00    +0.000 A 
ATOM     16  C   UNL     1       1.019   9.325  21.765  0.00  0.00    +0.000 A 
ATOM     17  C   UNL     1       0.254  10.311  22.402  0.00  0.00    +0.000 A 
ATOM     18  C   UNL     1      -0.518  11.209  21.656  0.00  0.00    +0.000 A 
BRANCH  18  19
ATOM     19  N   UNL     1      -1.306  12.183  22.304  0.00  0.00    +0.000 N 
ATOM     20  C   UNL     1      -2.458  11.782  23.078  0.00  0.00    +0.000 C 
ATOM     21  C   UNL     1      -3.031  13.101  23.554  0.00  0.00    +0.000 C 
ATOM     22  C   UNL     1      -1.797  13.969  23.753  0.00  0.00    +0.000 C 
ATOM     23  C   UNL     1      -0.797  13.397  22.774  0.00  0.00    +0.000 C 
ATOM     24  O   UNL     1       0.265  13.929  22.487  0.00  0.00    +0.000 OA
ENDBRANCH  18  19
ENDBRANCH   8  15
ENDBRANCH   1   9
BRANCH   6  25
ATOM     25  S   UNL     1       6.791   6.067  16.786  0.00  0.00    +0.000 S 
ATOM     26  O   UNL     1       7.604   5.190  17.594  0.00  0.00    +0.000 OA
ATOM     27  O   UNL     1       6.778   5.966  15.339  0.00  0.00    +0.000 OA
BRANCH  25  28
ATOM     28  N   UNL     1       7.184   7.670  17.122  0.00  0.00    +0.000 NA
ATOM     29  H   UNL     1       6.393   8.309  17.136  0.00  0.00    +0.000 HD
BRANCH  28  30
ATOM     30  C   UNL     1       8.181   7.886  18.178  0.00  0.00    +0.000 C 
BRANCH  30  31
ATOM     31  C   UNL     1       8.510   9.342  18.368  0.00  0.00    +0.000 A 
ATOM     32  C   UNL     1       9.340   9.770  19.422  0.00  0.00    +0.000 A 
ATOM     33  C   UNL     1       9.689  11.118  19.539  0.00  0.00    +0.000 A 
ATOM     34  C   UNL     1       9.215  12.045  18.614  0.00  0.00    +0.000 A 
ATOM     35  C   UNL     1       8.372  11.634  17.583  0.00  0.00    +0.000 A 
ATOM     36  C   UNL     1       8.017  10.290  17.465  0.00  0.00    +0.000 A 
ENDBRANCH  30  31
ENDBRANCH  28  30
ENDBRANCH  25  28
ENDBRANCH   6  25
TORSDOF 7
ENDMDL
MODEL 4
REMARK VINA RESULT:      -8.5      3.142     10.176
REMARK  Name = 
REMARK  9 active torsions:
REMARK  status: ('A' for Active; 'I' for Inactive)
REMARK    1  A    between atoms: C_1  and  C_2
REMARK    2  A    between atoms: C_4  and  N_5
REMARK    3  A    between atoms: C_6  and  C_8
REMARK    4  A    between atoms: C_11  and  C_12
REMARK    5  A    between atoms: C_13  and  S_14
REMARK    6  A    between atoms: S_14  and  N_17
REMARK    7  A    between atoms: N_17  and  C_18
REMARK    8  A    between atoms: C_18  and  C_19
REMARK    9  A    between atoms: C_28  and  N_29
REMARK                            x       y       z     vdW  Elec       q    Type
REMARK                         _______ _______ _______ _____ _____    ______ ____
ROOT
ATOM      1  C   UNL     1       2.400   6.225  20.006  0.00  0.00    +0.000 A 
ATOM      2  C   UNL     1       1.842   5.242  20.826  0.00  0.00    +0.000 A 
ATOM      3  C   UNL     1       2.333   3.942  20.803  0.00  0.00    +0.000 A 
ATOM      4  C   UNL     1       3.381   3.577  19.944  0.00  0.00    +0.000 A 
ATOM      5  C   UNL     1       3.839   2.153  20.028  0.00  0.00    +0.000 C 
ATOM      6  C   UNL     1       3.929   4.561  19.093  0.00  0.00    +0.000 A 
ATOM      7  C   UNL     1       3.439   5.886  19.132  0.00  0.00    +0.000 A 
ENDROOT
BRANCH   1   9
ATOM      8  N   UNL     1       1.019   7.852  21.190  0.00  0.00    +0.000 N 
ATOM      9  C   UNL     1       1.792   7.582  20.075  0.00  0.00    +0.000 C 
ATOM     10  O   UNL     1       1.964   8.321  19.110  0.00  0.00    +0.000 OA
ATOM     11  H   UNL     1       0.837   7.096  21.836  0.00  0.00    +0.000 HD
BRANCH   8  15
ATOM     12  C   UNL     1      -0.774  12.236  19.658  0.00  0.00    +0.000 C 
ATOM     13  C   UNL     1      -0.628  11.207  20.745  0.00  0.00    +0.000 A 
ATOM     14  C   UNL     1       0.034  10.002  20.449  0.00  0.00    +0.000 A 
ATOM     15  C   UNL     1       0.332   9.065  21.444  0.00  0.00    +0.000 A 
ATOM     16  C   UNL     1      -0.037   9.350  22.761  0.00  0.00    +0.000 A 
ATOM     17  C   UNL     1      -0.723  10.534  23.067  0.00  0.00    +0.000 A 
ATOM     18  C   UNL     1      -1.041  11.455  22.062  0.00  0.00    +0.000 A 
BRANCH  18  19
ATOM     19  N   UNL     1      -1.754  12.632  22.373  0.00  0.00    +0.000 N 
ATOM     20  C   UNL     1      -3.136  12.551  22.786  0.00  0.00    +0.000 C 
ATOM     21  C   UNL     1      -3.526  14.002  22.975  0.00  0.00    +0.000 C 
ATOM     22  C   UNL     1      -2.243  14.649  23.478  0.00  0.00    +0.000 C 
ATOM     23  C   UNL     1      -1.152  13.782  22.889  0.00  0.00    +0.000 C 
ATOM     24  O   UNL     1       0.035  14.070  22.902  0.00  0.00    +0.000 OA
ENDBRANCH  18  19
ENDBRANCH   8  15
ENDBRANCH   1   9
BRANCH   6  25
ATOM     25  S   UNL     1       5.140   4.179  17.820  0.00  0.00    +0.000 S 
ATOM     26  O   UNL     1       6.446   4.225  18.433  0.00  0.00    +0.000 OA
ATOM     27  O   UNL     1       4.663   2.986  17.147  0.00  0.00    +0.000 OA
BRANCH  25  28
ATOM     28  N   UNL     1       5.003   5.419  16.690  0.00  0.00    +0.000 NA
ATOM     29  H   UNL     1       4.417   6.198  16.980  0.00  0.00    +0.000 HD
BRANCH  28  30
ATOM     30  C   UNL     1       6.235   5.794  15.984  0.00  0.00    +0.000 C 
BRANCH  30  31
ATOM     31  C   UNL     1       6.352   5.128  14.639  0.00  0.00    +0.000 A 
ATOM     32  C   UNL     1       7.479   5.332  13.821  0.00  0.00    +0.000 A 
ATOM     33  C   UNL     1       7.601   4.649  12.608  0.00  0.00    +0.000 A 
ATOM     34  C   UNL     1       6.604   3.765  12.202  0.00  0.00    +0.000 A 
ATOM     35  C   UNL     1       5.472   3.578  12.994  0.00  0.00    +0.000 A 
ATOM     36  C   UNL     1       5.345   4.260  14.203  0.00  0.00    +0.000 A 
ENDBRANCH  30  31
ENDBRANCH  28  30
ENDBRANCH  25  28
ENDBRANCH   6  25
TORSDOF 7
ENDMDL
MODEL 5
REMARK VINA RESULT:      -8.5      2.956     10.089
REMARK  Name = 
REMARK  9 active torsions:
REMARK  status: ('A' for Active; 'I' for Inactive)
REMARK    1  A    between atoms: C_1  and  C_2
REMARK    2  A    between atoms: C_4  and  N_5
REMARK    3  A    between atoms: C_6  and  C_8
REMARK    4  A    between atoms: C_11  and  C_12
REMARK    5  A    between atoms: C_13  and  S_14
REMARK    6  A    between atoms: S_14  and  N_17
REMARK    7  A    between atoms: N_17  and  C_18
REMARK    8  A    between atoms: C_18  and  C_19
REMARK    9  A    between atoms: C_28  and  N_29
REMARK                            x       y       z     vdW  Elec       q    Type
REMARK                         _______ _______ _______ _____ _____    ______ ____
ROOT
ATOM      1  C   UNL     1       2.360   6.820  19.520  0.00  0.00    +0.000 A 
ATOM      2  C   UNL     1       1.741   6.082  20.531  0.00  0.00    +0.000 A 
ATOM      3  C   UNL     1       2.138   4.777  20.797  0.00  0.00    +0.000 A 
ATOM      4  C   UNL     1       3.151   4.160  20.046  0.00  0.00    +0.000 A 
ATOM      5  C   UNL     1       3.507   2.760  20.444  0.00  0.00    +0.000 C 
ATOM      6  C   UNL     1       3.761   4.893  19.006  0.00  0.00    +0.000 A 
ATOM      7  C   UNL     1       3.366   6.225  18.749  0.00  0.00    +0.000 A 
ENDROOT
BRANCH   1   9
ATOM      8  N   UNL     1       1.021   8.721  20.261  0.00  0.00    +0.000 N 
ATOM      9  C   UNL     1       1.851   8.199  19.285  0.00  0.00    +0.000 C 
ATOM     10  O   UNL     1       2.147   8.730  18.219  0.00  0.00    +0.000 OA
ATOM     11  H   UNL     1       0.737   8.113  21.017  0.00  0.00    +0.000 HD
BRANCH   8  15
ATOM     12  C   UNL     1      -2.344  11.880  18.397  0.00  0.00    +0.000 C 
ATOM     13  C   UNL     1      -1.262  11.586  19.399  0.00  0.00    +0.000 A 
ATOM     14  C   UNL     1      -0.697  10.298  19.425  0.00  0.00    +0.000 A 
ATOM     15  C   UNL     1       0.408   9.997  20.227  0.00  0.00    +0.000 A 
ATOM     16  C   UNL     1       0.958  11.013  21.014  0.00  0.00    +0.000 A 
ATOM     17  C   UNL     1       0.388  12.294  21.021  0.00  0.00    +0.000 A 
ATOM     18  C   UNL     1      -0.733  12.581  20.235  0.00  0.00    +0.000 A 
BRANCH  18  19
ATOM     19  N   UNL     1      -1.318  13.865  20.266  0.00  0.00    +0.000 N 
ATOM     20  C   UNL     1      -2.166  14.245  21.372  0.00  0.00    +0.000 C 
ATOM     21  C   UNL     1      -2.609  15.645  21.002  0.00  0.00    +0.000 C 
ATOM     22  C   UNL     1      -1.401  16.215  20.271  0.00  0.00    +0.000 C 
ATOM     23  C   UNL     1      -0.729  14.992  19.688  0.00  0.00    +0.000 C 
ATOM     24  O   UNL     1       0.178  15.032  18.870  0.00  0.00    +0.000 OA
ENDBRANCH  18  19
ENDBRANCH   8  15
ENDBRANCH   1   9
BRANCH   6  25
ATOM     25  S   UNL     1       4.932   4.156  17.857  0.00  0.00    +0.000 S 
ATOM     26  O   UNL     1       6.210   4.083  18.524  0.00  0.00    +0.000 OA
ATOM     27  O   UNL     1       4.290   2.971  17.322  0.00  0.00    +0.000 OA
BRANCH  25  28
ATOM     28  N   UNL     1       5.028   5.236  16.569  0.00  0.00    +0.000 NA
ATOM     29  H   UNL     1       4.441   6.060  16.658  0.00  0.00    +0.000 HD
BRANCH  28  30
ATOM     30  C   UNL     1       6.372   5.481  16.027  0.00  0.00    +0.000 C 
BRANCH  30  31
ATOM     31  C   UNL     1       6.547   4.909  14.645  0.00  0.00    +0.000 A 
ATOM     32  C   UNL     1       5.656   3.946  14.138  0.00  0.00    +0.000 A 
ATOM     33  C   UNL     1       5.795   3.479  12.828  0.00  0.00    +0.000 A 
ATOM     34  C   UNL     1       6.820   3.964  12.020  0.00  0.00    +0.000 A 
ATOM     35  C   UNL     1       7.724   4.899  12.524  0.00  0.00    +0.000 A 
ATOM     36  C   UNL     1       7.590   5.364  13.831  0.00  0.00    +0.000 A 
ENDBRANCH  30  31
ENDBRANCH  28  30
ENDBRANCH  25  28
ENDBRANCH   6  25
TORSDOF 7
ENDMDL
MODEL 6
REMARK VINA RESULT:      -8.5      3.231     10.353
REMARK  Name = 
REMARK  9 active torsions:
REMARK  status: ('A' for Active; 'I' for Inactive)
REMARK    1  A    between atoms: C_1  and  C_2
REMARK    2  A    between atoms: C_4  and  N_5
REMARK    3  A    between atoms: C_6  and  C_8
REMARK    4  A    between atoms: C_11  and  C_12
REMARK    5  A    between atoms: C_13  and  S_14
REMARK    6  A    between atoms: S_14  and  N_17
REMARK    7  A    between atoms: N_17  and  C_18
REMARK    8  A    between atoms: C_18  and  C_19
REMARK    9  A    between atoms: C_28  and  N_29
REMARK                            x       y       z     vdW  Elec       q    Type
REMARK                         _______ _______ _______ _____ _____    ______ ____
ROOT
ATOM      1  C   UNL     1       2.383   6.845  19.839  0.00  0.00    +0.000 A 
ATOM      2  C   UNL     1       1.859   5.712  20.465  0.00  0.00    +0.000 A 
ATOM      3  C   UNL     1       2.502   4.485  20.356  0.00  0.00    +0.000 A 
ATOM      4  C   UNL     1       3.675   4.345  19.599  0.00  0.00    +0.000 A 
ATOM      5  C   UNL     1       4.289   2.979  19.577  0.00  0.00    +0.000 C 
ATOM      6  C   UNL     1       4.194   5.482  18.942  0.00  0.00    +0.000 A 
ATOM      7  C   UNL     1       3.546   6.732  19.069  0.00  0.00    +0.000 A 
ENDROOT
BRANCH   1   9
ATOM      8  N   UNL     1       1.029   8.335  21.219  0.00  0.00    +0.000 N 
ATOM      9  C   UNL     1       1.612   8.110  19.985  0.00  0.00    +0.000 C 
ATOM     10  O   UNL     1       1.497   8.813  18.985  0.00  0.00    +0.000 OA
ATOM     11  H   UNL     1       1.078   7.597  21.909  0.00  0.00    +0.000 HD
BRANCH   8  15
ATOM     12  C   UNL     1      -0.823  12.838  20.181  0.00  0.00    +0.000 C 
ATOM     13  C   UNL     1      -0.758  11.645  21.095  0.00  0.00    +0.000 A 
ATOM     14  C   UNL     1       0.015  10.536  20.705  0.00  0.00    +0.000 A 
ATOM     15  C   UNL     1       0.236   9.456  21.566  0.00  0.00    +0.000 A 
ATOM     16  C   UNL     1      -0.325   9.497  22.844  0.00  0.00    +0.000 A 
ATOM     17  C   UNL     1      -1.122  10.581  23.237  0.00  0.00    +0.000 A 
ATOM     18  C   UNL     1      -1.361  11.646  22.361  0.00  0.00    +0.000 A 
BRANCH  18  19
ATOM     19  N   UNL     1      -2.185  12.722  22.754  0.00  0.00    +0.000 N 
ATOM     20  C   UNL     1      -3.611  12.531  22.876  0.00  0.00    +0.000 C 
ATOM     21  C   UNL     1      -4.112  13.907  23.265  0.00  0.00    +0.000 C 
ATOM     22  C   UNL     1      -2.980  14.466  24.116  0.00  0.00    +0.000 C 
ATOM     23  C   UNL     1      -1.753  13.757  23.587  0.00  0.00    +0.000 C 
ATOM     24  O   UNL     1      -0.607  14.060  23.879  0.00  0.00    +0.000 OA
ENDBRANCH  18  19
ENDBRANCH   8  15
ENDBRANCH   1   9
BRANCH   6  25
ATOM     25  S   UNL     1       5.576   5.395  17.796  0.00  0.00    +0.000 S 
ATOM     26  O   UNL     1       6.040   6.743  17.570  0.00  0.00    +0.000 OA
ATOM     27  O   UNL     1       6.463   4.366  18.303  0.00  0.00    +0.000 OA
BRANCH  25  28
ATOM     28  N   UNL     1       4.932   4.773  16.370  0.00  0.00    +0.000 NA
ATOM     29  H   UNL     1       4.618   5.472  15.703  0.00  0.00    +0.000 HD
BRANCH  28  30
ATOM     30  C   UNL     1       5.639   3.625  15.786  0.00  0.00    +0.000 C 
BRANCH  30  31
ATOM     31  C   UNL     1       6.271   3.954  14.460  0.00  0.00    +0.000 A 
ATOM     32  C   UNL     1       5.867   3.304  13.279  0.00  0.00    +0.000 A 
ATOM     33  C   UNL     1       6.418   3.674  12.049  0.00  0.00    +0.000 A 
ATOM     34  C   UNL     1       7.371   4.687  11.987  0.00  0.00    +0.000 A 
ATOM     35  C   UNL     1       7.797   5.317  13.156  0.00  0.00    +0.000 A 
ATOM     36  C   UNL     1       7.253   4.949  14.385  0.00  0.00    +0.000 A 
ENDBRANCH  30  31
ENDBRANCH  28  30
ENDBRANCH  25  28
ENDBRANCH   6  25
TORSDOF 7
ENDMDL
MODEL 7
REMARK VINA RESULT:      -8.5      3.080     10.276
REMARK  Name = 
REMARK  9 active torsions:
REMARK  status: ('A' for Active; 'I' for Inactive)
REMARK    1  A    between atoms: C_1  and  C_2
REMARK    2  A    between atoms: C_4  and  N_5
REMARK    3  A    between atoms: C_6  and  C_8
REMARK    4  A    between atoms: C_11  and  C_12
REMARK    5  A    between atoms: C_13  and  S_14
REMARK    6  A    between atoms: S_14  and  N_17
REMARK    7  A    between atoms: N_17  and  C_18
REMARK    8  A    between atoms: C_18  and  C_19
REMARK    9  A    between atoms: C_28  and  N_29
REMARK                            x       y       z     vdW  Elec       q    Type
REMARK                         _______ _______ _______ _____ _____    ______ ____
ROOT
ATOM      1  C   UNL     1       2.759   6.717  18.570  0.00  0.00    +0.000 A 
ATOM      2  C   UNL     1       1.926   5.662  18.193  0.00  0.00    +0.000 A 
ATOM      3  C   UNL     1       2.464   4.444  17.796  0.00  0.00    +0.000 A 
ATOM      4  C   UNL     1       3.853   4.248  17.741  0.00  0.00    +0.000 A 
ATOM      5  C   UNL     1       4.312   2.885  17.321  0.00  0.00    +0.000 C 
ATOM      6  C   UNL     1       4.700   5.320  18.096  0.00  0.00    +0.000 A 
ATOM      7  C   UNL     1       4.148   6.552  18.515  0.00  0.00    +0.000 A 
ENDROOT
BRANCH   1   9
ATOM      8  N   UNL     1       1.401   7.990  20.149  0.00  0.00    +0.000 N 
ATOM      9  C   UNL     1       2.096   7.994  18.952  0.00  0.00    +0.000 C 
ATOM     10  O   UNL     1       2.160   8.918  18.148  0.00  0.00    +0.000 OA
ATOM     11  H   UNL     1       1.304   7.111  20.638  0.00  0.00    +0.000 HD
BRANCH   8  15
ATOM     12  C   UNL     1      -1.262  12.155  19.560  0.00  0.00    +0.000 C 
ATOM     13  C   UNL     1      -0.686  11.106  20.471  0.00  0.00    +0.000 A 
ATOM     14  C   UNL     1      -0.003  10.017  19.900  0.00  0.00    +0.000 A 
ATOM     15  C   UNL     1       0.680   9.084  20.687  0.00  0.00    +0.000 A 
ATOM     16  C   UNL     1       0.680   9.254  22.074  0.00  0.00    +0.000 A 
ATOM     17  C   UNL     1      -0.021  10.317  22.659  0.00  0.00    +0.000 A 
ATOM     18  C   UNL     1      -0.724  11.232  21.867  0.00  0.00    +0.000 A 
BRANCH  18  19
ATOM     19  N   UNL     1      -1.449  12.285  22.464  0.00  0.00    +0.000 N 
ATOM     20  C   UNL     1      -2.627  11.997  23.249  0.00  0.00    +0.000 C 
ATOM     21  C   UNL     1      -3.114  13.371  23.660  0.00  0.00    +0.000 C 
ATOM     22  C   UNL     1      -1.826  14.166  23.824  0.00  0.00    +0.000 C 
ATOM     23  C   UNL     1      -0.863  13.484  22.879  0.00  0.00    +0.000 C 
ATOM     24  O   UNL     1       0.232  13.932  22.574  0.00  0.00    +0.000 OA
ENDBRANCH  18  19
ENDBRANCH   8  15
ENDBRANCH   1   9
BRANCH   6  25
ATOM     25  S   UNL     1       6.485   5.257  17.889  0.00  0.00    +0.000 S 
ATOM     26  O   UNL     1       6.946   6.608  17.671  0.00  0.00    +0.000 OA
ATOM     27  O   UNL     1       6.995   4.451  18.981  0.00  0.00    +0.000 OA
BRANCH  25  28
ATOM     28  N   UNL     1       6.738   4.343  16.498  0.00  0.00    +0.000 NA
ATOM     29  H   UNL     1       6.042   3.622  16.329  0.00  0.00    +0.000 HD
BRANCH  28  30
ATOM     30  C   UNL     1       7.175   5.082  15.306  0.00  0.00    +0.000 C 
BRANCH  30  31
ATOM     31  C   UNL     1       6.636   4.488  14.032  0.00  0.00    +0.000 A 
ATOM     32  C   UNL     1       7.446   4.359  12.889  0.00  0.00    +0.000 A 
ATOM     33  C   UNL     1       6.947   3.741  11.739  0.00  0.00    +0.000 A 
ATOM     34  C   UNL     1       5.643   3.254  11.719  0.00  0.00    +0.000 A 
ATOM     35  C   UNL     1       4.825   3.402  12.838  0.00  0.00    +0.000 A 
ATOM     36  C   UNL     1       5.318   4.021  13.986  0.00  0.00    +0.000 A 
ENDBRANCH  30  31
ENDBRANCH  28  30
ENDBRANCH  25  28
ENDBRANCH   6  25
TORSDOF 7
ENDMDL
MODEL 8
REMARK VINA RESULT:      -8.3      3.008     10.222
REMARK  Name = 
REMARK  9 active torsions:
REMARK  status: ('A' for Active; 'I' for Inactive)
REMARK    1  A    between atoms: C_1  and  C_2
REMARK    2  A    between atoms: C_4  and  N_5
REMARK    3  A    between atoms: C_6  and  C_8
REMARK    4  A    between atoms: C_11  and  C_12
REMARK    5  A    between atoms: C_13  and  S_14
REMARK    6  A    between atoms: S_14  and  N_17
REMARK    7  A    between atoms: N_17  and  C_18
REMARK    8  A    between atoms: C_18  and  C_19
REMARK    9  A    between atoms: C_28  and  N_29
REMARK                            x       y       z     vdW  Elec       q    Type
REMARK                         _______ _______ _______ _____ _____    ______ ____
ROOT
ATOM      1  C   UNL     1       2.764   6.990  18.446  0.00  0.00    +0.000 A 
ATOM      2  C   UNL     1       1.907   5.911  18.673  0.00  0.00    +0.000 A 
ATOM      3  C   UNL     1       2.406   4.617  18.749  0.00  0.00    +0.000 A 
ATOM      4  C   UNL     1       3.774   4.355  18.577  0.00  0.00    +0.000 A 
ATOM      5  C   UNL     1       4.194   2.923  18.706  0.00  0.00    +0.000 C 
ATOM      6  C   UNL     1       4.641   5.440  18.320  0.00  0.00    +0.000 A 
ATOM      7  C   UNL     1       4.131   6.756  18.260  0.00  0.00    +0.000 A 
ENDROOT
BRANCH   1   9
ATOM      8  N   UNL     1       1.400   8.750  19.444  0.00  0.00    +0.000 N 
ATOM      9  C   UNL     1       2.139   8.337  18.350  0.00  0.00    +0.000 C 
ATOM     10  O   UNL     1       2.269   8.939  17.289  0.00  0.00    +0.000 OA
ATOM     11  H   UNL     1       1.249   8.087  20.193  0.00  0.00    +0.000 HD
BRANCH   8  15
ATOM     12  C   UNL     1      -2.409  11.714  18.221  0.00  0.00    +0.000 C 
ATOM     13  C   UNL     1      -1.174  11.467  19.043  0.00  0.00    +0.000 A 
ATOM     14  C   UNL     1      -0.525  10.224  18.932  0.00  0.00    +0.000 A 
ATOM     15  C   UNL     1       0.703   9.979  19.554  0.00  0.00    +0.000 A 
ATOM     16  C   UNL     1       1.292  11.006  20.296  0.00  0.00    +0.000 A 
ATOM     17  C   UNL     1       0.644  12.240  20.440  0.00  0.00    +0.000 A 
ATOM     18  C   UNL     1      -0.598  12.470  19.837  0.00  0.00    +0.000 A 
BRANCH  18  19
ATOM     19  N   UNL     1      -1.257  13.706  20.007  0.00  0.00    +0.000 N 
ATOM     20  C   UNL     1      -2.073  13.933  21.177  0.00  0.00    +0.000 C 
ATOM     21  C   UNL     1      -2.617  15.329  20.953  0.00  0.00    +0.000 C 
ATOM     22  C   UNL     1      -1.483  16.036  20.225  0.00  0.00    +0.000 C 
ATOM     23  C   UNL     1      -0.766  14.915  19.507  0.00  0.00    +0.000 C 
ATOM     24  O   UNL     1       0.096  15.084  18.659  0.00  0.00    +0.000 OA
ENDBRANCH  18  19
ENDBRANCH   8  15
ENDBRANCH   1   9
BRANCH   6  25
ATOM     25  S   UNL     1       6.374   5.218  17.898  0.00  0.00    +0.000 S 
ATOM     26  O   UNL     1       6.868   6.481  17.404  0.00  0.00    +0.000 OA
ATOM     27  O   UNL     1       6.990   4.557  19.033  0.00  0.00    +0.000 OA
BRANCH  25  28
ATOM     28  N   UNL     1       6.386   4.082  16.655  0.00  0.00    +0.000 NA
ATOM     29  H   UNL     1       6.487   3.117  16.960  0.00  0.00    +0.000 HD
BRANCH  28  30
ATOM     30  C   UNL     1       5.420   4.297  15.570  0.00  0.00    +0.000 C 
BRANCH  30  31
ATOM     31  C   UNL     1       6.074   4.313  14.214  0.00  0.00    +0.000 A 
ATOM     32  C   UNL     1       7.150   5.177  13.935  0.00  0.00    +0.000 A 
ATOM     33  C   UNL     1       7.788   5.127  12.692  0.00  0.00    +0.000 A 
ATOM     34  C   UNL     1       7.359   4.223  11.724  0.00  0.00    +0.000 A 
ATOM     35  C   UNL     1       6.277   3.383  11.983  0.00  0.00    +0.000 A 
ATOM     36  C   UNL     1       5.635   3.432  13.220  0.00  0.00    +0.000 A 
ENDBRANCH  30  31
ENDBRANCH  28  30
ENDBRANCH  25  28
ENDBRANCH   6  25
TORSDOF 7
ENDMDL
MODEL 9
REMARK VINA RESULT:      -8.3      3.716     10.278
REMARK  Name = 
REMARK  9 active torsions:
REMARK  status: ('A' for Active; 'I' for Inactive)
REMARK    1  A    between atoms: C_1  and  C_2
REMARK    2  A    between atoms: C_4  and  N_5
REMARK    3  A    between atoms: C_6  and  C_8
REMARK    4  A    between atoms: C_11  and  C_12
REMARK    5  A    between atoms: C_13  and  S_14
REMARK    6  A    between atoms: S_14  and  N_17
REMARK    7  A    between atoms: N_17  and  C_18
REMARK    8  A    between atoms: C_18  and  C_19
REMARK    9  A    between atoms: C_28  and  N_29
REMARK                            x       y       z     vdW  Elec       q    Type
REMARK                         _______ _______ _______ _____ _____    ______ ____
ROOT
ATOM      1  C   UNL     1       2.937   7.427  17.995  0.00  0.00    +0.000 A 
ATOM      2  C   UNL     1       2.224   6.226  18.018  0.00  0.00    +0.000 A 
ATOM      3  C   UNL     1       2.872   5.015  17.806  0.00  0.00    +0.000 A 
ATOM      4  C   UNL     1       4.249   4.967  17.541  0.00  0.00    +0.000 A 
ATOM      5  C   UNL     1       4.838   3.602  17.354  0.00  0.00    +0.000 C 
ATOM      6  C   UNL     1       4.970   6.179  17.490  0.00  0.00    +0.000 A 
ATOM      7  C   UNL     1       4.310   7.407  17.722  0.00  0.00    +0.000 A 
ENDROOT
BRANCH   1   9
ATOM      8  N   UNL     1       1.344   8.714  19.322  0.00  0.00    +0.000 N 
ATOM      9  C   UNL     1       2.157   8.677  18.202  0.00  0.00    +0.000 C 
ATOM     10  O   UNL     1       2.242   9.539  17.334  0.00  0.00    +0.000 OA
ATOM     11  H   UNL     1       1.255   7.871  19.872  0.00  0.00    +0.000 HD
BRANCH   8  15
ATOM     12  C   UNL     1      -2.561  11.679  18.460  0.00  0.00    +0.000 C 
ATOM     13  C   UNL     1      -1.440  11.247  19.364  0.00  0.00    +0.000 A 
ATOM     14  C   UNL     1      -0.643  10.154  18.977  0.00  0.00    +0.000 A 
ATOM     15  C   UNL     1       0.502   9.790  19.694  0.00  0.00    +0.000 A 
ATOM     16  C   UNL     1       0.853  10.543  20.817  0.00  0.00    +0.000 A 
ATOM     17  C   UNL     1       0.052  11.616  21.233  0.00  0.00    +0.000 A 
ATOM     18  C   UNL     1      -1.106  11.959  20.526  0.00  0.00    +0.000 A 
BRANCH  18  19
ATOM     19  N   UNL     1      -1.921  13.024  20.964  0.00  0.00    +0.000 N 
ATOM     20  C   UNL     1      -2.771  12.854  22.119  0.00  0.00    +0.000 C 
ATOM     21  C   UNL     1      -3.490  14.184  22.218  0.00  0.00    +0.000 C 
ATOM     22  C   UNL     1      -2.450  15.183  21.731  0.00  0.00    +0.000 C 
ATOM     23  C   UNL     1      -1.587  14.370  20.792  0.00  0.00    +0.000 C 
ATOM     24  O   UNL     1      -0.746  14.847  20.047  0.00  0.00    +0.000 OA
ENDBRANCH  18  19
ENDBRANCH   8  15
ENDBRANCH   1   9
BRANCH   6  25
ATOM     25  S   UNL     1       6.691   6.265  16.976  0.00  0.00    +0.000 S 
ATOM     26  O   UNL     1       7.448   5.391  17.840  0.00  0.00    +0.000 OA
ATOM     27  O   UNL     1       6.697   6.095  15.536  0.00  0.00    +0.000 OA
BRANCH  25  28
ATOM     28  N   UNL     1       7.154   7.862  17.243  0.00  0.00    +0.000 NA
ATOM     29  H   UNL     1       6.386   8.526  17.293  0.00  0.00    +0.000 HD
BRANCH  28  30
ATOM     30  C   UNL     1       8.227   8.072  18.225  0.00  0.00    +0.000 C 
BRANCH  30  31
ATOM     31  C   UNL     1       8.558   9.528  18.412  0.00  0.00    +0.000 A 
ATOM     32  C   UNL     1       9.401   9.955  19.454  0.00  0.00    +0.000 A 
ATOM     33  C   UNL     1       9.752  11.303  19.568  0.00  0.00    +0.000 A 
ATOM     34  C   UNL     1       9.265  12.231  18.651  0.00  0.00    +0.000 A 
ATOM     35  C   UNL     1       8.408  11.820  17.631  0.00  0.00    +0.000 A 
ATOM     36  C   UNL     1       8.053  10.477  17.516  0.00  0.00    +0.000 A 
ENDBRANCH  30  31
ENDBRANCH  28  30
ENDBRANCH  25  28
ENDBRANCH   6  25
TORSDOF 7
ENDMDL
