MODEL 1
REMARK VINA RESULT:      -8.5      0.000      0.000
REMARK  Name = 
REMARK  7 active torsions:
REMARK  status: ('A' for Active; 'I' for Inactive)
REMARK    1  A    between atoms: C_1  and  C_2
REMARK    2  A    between atoms: C_4  and  C_5
REMARK    3  A    between atoms: N_6  and  C_7
REMARK    4  A    between atoms: C_7  and  C_8
REMARK    5  A    between atoms: C_12  and  C_13
REMARK    6  A    between atoms: N_15  and  C_16
REMARK    7  A    between atoms: C_22  and  C_23
REMARK                            x       y       z     vdW  Elec       q    Type
REMARK                         _______ _______ _______ _____ _____    ______ ____
ROOT
ATOM      1  C   UNL     1       1.934   8.248  18.221  0.00  0.00    +0.000 C 
ATOM      2  O   UNL     1       2.404   8.617  17.146  0.00  0.00    +0.000 OA
ATOM      3  N   UNL     1       2.098   6.958  18.691  0.00  0.00    +0.000 N 
ATOM      4  H   UNL     1       1.573   6.645  19.494  0.00  0.00    +0.000 HD
ENDROOT
BRANCH   3   5
ATOM      5  C   UNL     1       2.716   5.923  17.869  0.00  0.00    +0.000 C 
ATOM      6  C   UNL     1       1.935   4.602  17.998  0.00  0.00    +0.000 C 
ATOM      7  C   UNL     1       2.277   3.890  19.307  0.00  0.00    +0.000 C 
ATOM      8  C   UNL     1       3.758   3.514  19.325  0.00  0.00    +0.000 C 
ATOM      9  C   UNL     1       4.657   4.654  18.922  0.00  0.00    +0.000 A 
ATOM     10  N   UNL     1       5.969   4.505  19.213  0.00  0.00    +0.000 NA
ATOM     11  C   UNL     1       6.802   5.485  18.821  0.00  0.00    +0.000 A 
ATOM     12  C   UNL     1       8.262   5.321  19.108  0.00  0.00    +0.000 C 
ATOM     13  N   UNL     1       6.419   6.601  18.177  0.00  0.00    +0.000 NA
ATOM     14  C   UNL     1       5.105   6.708  17.901  0.00  0.00    +0.000 A 
ATOM     15  C   UNL     1       4.164   5.755  18.237  0.00  0.00    +0.000 A 
ENDBRANCH   3   5
BRANCH   1  20
ATOM     16  C   UNL     1      -0.456  11.084  19.055  0.00  0.00    +0.000 A 
ATOM     17  C   UNL     1      -0.554  10.965  20.447  0.00  0.00    +0.000 A 
ATOM     18  C   UNL     1       0.181   9.997  21.130  0.00  0.00    +0.000 A 
ATOM     19  C   UNL     1       1.021   9.123  20.435  0.00  0.00    +0.000 A 
ATOM     20  C   UNL     1       1.115   9.198  19.041  0.00  0.00    +0.000 A 
ATOM     21  C   UNL     1       0.388  10.194  18.365  0.00  0.00    +0.000 A 
BRANCH  16  22
ATOM     22  C   UNL     1      -1.267  12.128  18.322  0.00  0.00    +0.000 C 
BRANCH  22  28
ATOM     23  C   UNL     1      -3.667  10.171  14.589  0.00  0.00    +0.000 C 
ATOM     24  C   UNL     1      -3.450  10.755  15.934  0.00  0.00    +0.000 A 
ATOM     25  C   UNL     1      -4.424  11.056  16.908  0.00  0.00    +0.000 A 
ATOM     26  C   UNL     1      -3.730  11.593  17.971  0.00  0.00    +0.000 A 
ATOM     27  C   UNL     1      -4.227  12.115  19.265  0.00  0.00    +0.000 C 
ATOM     28  N   UNL     1      -2.405  11.568  17.600  0.00  0.00    +0.000 N 
ATOM     29  N   UNL     1      -2.220  11.077  16.351  0.00  0.00    +0.000 NA
ENDBRANCH  22  28
ENDBRANCH  16  22
ENDBRANCH   1  20
TORSDOF 4
ENDMDL
MODEL 2
REMARK VINA RESULT:      -8.5      1.618      9.212
REMARK  Name = 
REMARK  7 active torsions:
REMARK  status: ('A' for Active; 'I' for Inactive)
REMARK    1  A    between atoms: C_1  and  C_2
REMARK    2  A    between atoms: C_4  and  C_5
REMARK    3  A    between atoms: N_6  and  C_7
REMARK    4  A    between atoms: C_7  and  C_8
REMARK    5  A    between atoms: C_12  and  C_13
REMARK    6  A    between atoms: N_15  and  C_16
REMARK    7  A    between atoms: C_22  and  C_23
REMARK                            x       y       z     vdW  Elec       q    Type
REMARK                         _______ _______ _______ _____ _____    ______ ____
ROOT
ATOM      1  C   UNL     1       1.746   8.563  18.450  0.00  0.00    +0.000 C 
ATOM      2  O   UNL     1       2.322   8.985  17.448  0.00  0.00    +0.000 OA
ATOM      3  N   UNL     1       0.835   9.328  19.152  0.00  0.00    +0.000 N 
ATOM      4  H   UNL     1       0.500   9.014  20.050  0.00  0.00    +0.000 HD
ENDROOT
BRANCH   3   5
ATOM      5  C   UNL     1       0.612  10.734  18.826  0.00  0.00    +0.000 C 
ATOM      6  C   UNL     1       1.121  11.633  19.968  0.00  0.00    +0.000 C 
ATOM      7  C   UNL     1       0.130  11.655  21.131  0.00  0.00    +0.000 C 
ATOM      8  C   UNL     1      -1.198  12.257  20.673  0.00  0.00    +0.000 C 
ATOM      9  C   UNL     1      -1.691  11.669  19.377  0.00  0.00    +0.000 A 
ATOM     10  N   UNL     1      -2.987  11.911  19.073  0.00  0.00    +0.000 NA
ATOM     11  C   UNL     1      -3.442  11.439  17.899  0.00  0.00    +0.000 A 
ATOM     12  C   UNL     1      -4.865  11.723  17.533  0.00  0.00    +0.000 C 
ATOM     13  N   UNL     1      -2.705  10.738  17.021  0.00  0.00    +0.000 NA
ATOM     14  C   UNL     1      -1.419  10.525  17.358  0.00  0.00    +0.000 A 
ATOM     15  C   UNL     1      -0.841  10.980  18.527  0.00  0.00    +0.000 A 
ENDBRANCH   3   5
BRANCH   1  20
ATOM     16  C   UNL     1       3.159   5.035  18.558  0.00  0.00    +0.000 A 
ATOM     17  C   UNL     1       2.829   4.643  19.861  0.00  0.00    +0.000 A 
ATOM     18  C   UNL     1       2.113   5.496  20.699  0.00  0.00    +0.000 A 
ATOM     19  C   UNL     1       1.721   6.762  20.255  0.00  0.00    +0.000 A 
ATOM     20  C   UNL     1       2.064   7.194  18.969  0.00  0.00    +0.000 A 
ATOM     21  C   UNL     1       2.766   6.314  18.124  0.00  0.00    +0.000 A 
BRANCH  16  22
ATOM     22  C   UNL     1       3.947   4.108  17.661  0.00  0.00    +0.000 C 
BRANCH  22  28
ATOM     23  C   UNL     1       8.196   5.778  19.299  0.00  0.00    +0.000 C 
ATOM     24  C   UNL     1       7.218   5.196  18.350  0.00  0.00    +0.000 A 
ATOM     25  C   UNL     1       7.424   4.872  16.993  0.00  0.00    +0.000 A 
ATOM     26  C   UNL     1       6.217   4.381  16.543  0.00  0.00    +0.000 A 
ATOM     27  C   UNL     1       5.826   3.907  15.195  0.00  0.00    +0.000 C 
ATOM     28  N   UNL     1       5.374   4.414  17.630  0.00  0.00    +0.000 N 
ATOM     29  N   UNL     1       5.965   4.927  18.737  0.00  0.00    +0.000 NA
ENDBRANCH  22  28
ENDBRANCH  16  22
ENDBRANCH   1  20
TORSDOF 4
ENDMDL
MODEL 3
REMARK VINA RESULT:      -8.5      1.822      8.873
REMARK  Name = 
REMARK  7 active torsions:
REMARK  status: ('A' for Active; 'I' for Inactive)
REMARK    1  A    between atoms: C_1  and  C_2
REMARK    2  A    between atoms: C_4  and  C_5
REMARK    3  A    between atoms: N_6  and  C_7
REMARK    4  A    between atoms: C_7  and  C_8
REMARK    5  A    between atoms: C_12  and  C_13
REMARK    6  A    between atoms: N_15  and  C_16
REMARK    7  A    between atoms: C_22  and  C_23
REMARK                            x       y       z     vdW  Elec       q    Type
REMARK                         _______ _______ _______ _____ _____    ______ ____
ROOT
ATOM      1  C   UNL     1       2.102   8.167  18.586  0.00  0.00    +0.000 C 
ATOM      2  O   UNL     1       2.753   8.532  17.608  0.00  0.00    +0.000 OA
ATOM      3  N   UNL     1       1.106   8.949  19.140  0.00  0.00    +0.000 N 
ATOM      4  H   UNL     1       0.700   8.693  20.027  0.00  0.00    +0.000 HD
ENDROOT
BRANCH   3   5
ATOM      5  C   UNL     1       0.870  10.316  18.683  0.00  0.00    +0.000 C 
ATOM      6  C   UNL     1       1.428  11.323  19.706  0.00  0.00    +0.000 C 
ATOM      7  C   UNL     1       0.486  11.467  20.901  0.00  0.00    +0.000 C 
ATOM      8  C   UNL     1      -0.859  12.026  20.440  0.00  0.00    +0.000 C 
ATOM      9  C   UNL     1      -1.407  11.313  19.232  0.00  0.00    +0.000 A 
ATOM     10  N   UNL     1      -2.714  11.529  18.959  0.00  0.00    +0.000 NA
ATOM     11  C   UNL     1      -3.218  10.943  17.858  0.00  0.00    +0.000 A 
ATOM     12  C   UNL     1      -4.655  11.196  17.525  0.00  0.00    +0.000 C 
ATOM     13  N   UNL     1      -2.519  10.153  17.026  0.00  0.00    +0.000 NA
ATOM     14  C   UNL     1      -1.220   9.969  17.329  0.00  0.00    +0.000 A 
ATOM     15  C   UNL     1      -0.593  10.537  18.421  0.00  0.00    +0.000 A 
ENDBRANCH   3   5
BRANCH   1  20
ATOM     16  C   UNL     1       3.974   4.972  19.444  0.00  0.00    +0.000 A 
ATOM     17  C   UNL     1       3.177   4.448  20.469  0.00  0.00    +0.000 A 
ATOM     18  C   UNL     1       2.008   5.100  20.863  0.00  0.00    +0.000 A 
ATOM     19  C   UNL     1       1.619   6.292  20.245  0.00  0.00    +0.000 A 
ATOM     20  C   UNL     1       2.413   6.855  19.239  0.00  0.00    +0.000 A 
ATOM     21  C   UNL     1       3.577   6.176  18.834  0.00  0.00    +0.000 A 
BRANCH  16  22
ATOM     22  C   UNL     1       5.245   4.265  19.034  0.00  0.00    +0.000 C 
BRANCH  22  28
ATOM     23  C   UNL     1       5.647   4.166  14.201  0.00  0.00    +0.000 C 
ATOM     24  C   UNL     1       5.923   4.575  15.598  0.00  0.00    +0.000 A 
ATOM     25  C   UNL     1       6.916   5.466  16.054  0.00  0.00    +0.000 A 
ATOM     26  C   UNL     1       6.781   5.502  17.424  0.00  0.00    +0.000 A 
ATOM     27  C   UNL     1       7.565   6.245  18.439  0.00  0.00    +0.000 C 
ATOM     28  N   UNL     1       5.726   4.667  17.716  0.00  0.00    +0.000 N 
ATOM     29  N   UNL     1       5.204   4.078  16.612  0.00  0.00    +0.000 NA
ENDBRANCH  22  28
ENDBRANCH  16  22
ENDBRANCH   1  20
TORSDOF 4
ENDMDL
MODEL 4
REMARK VINA RESULT:      -8.4      1.877      8.862
REMARK  Name = 
REMARK  7 active torsions:
REMARK  status: ('A' for Active; 'I' for Inactive)
REMARK    1  A    between atoms: C_1  and  C_2
REMARK    2  A    between atoms: C_4  and  C_5
REMARK    3  A    between atoms: N_6  and  C_7
REMARK    4  A    between atoms: C_7  and  C_8
REMARK    5  A    between atoms: C_12  and  C_13
REMARK    6  A    between atoms: N_15  and  C_16
REMARK    7  A    between atoms: C_22  and  C_23
REMARK                            x       y       z     vdW  Elec       q    Type
REMARK                         _______ _______ _______ _____ _____    ______ ____
ROOT
ATOM      1  C   UNL     1       2.077   7.189  19.861  0.00  0.00    +0.000 C 
ATOM      2  O   UNL     1       2.668   7.859  19.015  0.00  0.00    +0.000 OA
ATOM      3  N   UNL     1       1.425   7.767  20.933  0.00  0.00    +0.000 N 
ATOM      4  H   UNL     1       1.086   7.189  21.687  0.00  0.00    +0.000 HD
ENDROOT
BRANCH   3   5
ATOM      5  C   UNL     1       1.523   9.199  21.200  0.00  0.00    +0.000 C 
ATOM      6  C   UNL     1       1.535   9.459  22.718  0.00  0.00    +0.000 C 
ATOM      7  C   UNL     1       0.125   9.359  23.300  0.00  0.00    +0.000 C 
ATOM      8  C   UNL     1      -0.770  10.436  22.689  0.00  0.00    +0.000 C 
ATOM      9  C   UNL     1      -0.663  10.503  21.188  0.00  0.00    +0.000 A 
ATOM     10  N   UNL     1      -1.638  11.196  20.556  0.00  0.00    +0.000 NA
ATOM     11  C   UNL     1      -1.543  11.314  19.219  0.00  0.00    +0.000 A 
ATOM     12  C   UNL     1      -2.596  12.103  18.508  0.00  0.00    +0.000 C 
ATOM     13  N   UNL     1      -0.558  10.782  18.475  0.00  0.00    +0.000 NA
ATOM     14  C   UNL     1       0.396  10.106  19.143  0.00  0.00    +0.000 A 
ATOM     15  C   UNL     1       0.409   9.940  20.514  0.00  0.00    +0.000 A 
ENDBRANCH   3   5
BRANCH   1  20
ATOM     16  C   UNL     1       3.153   3.696  18.815  0.00  0.00    +0.000 A 
ATOM     17  C   UNL     1       2.307   2.899  19.595  0.00  0.00    +0.000 A 
ATOM     18  C   UNL     1       1.357   3.480  20.433  0.00  0.00    +0.000 A 
ATOM     19  C   UNL     1       1.239   4.871  20.514  0.00  0.00    +0.000 A 
ATOM     20  C   UNL     1       2.092   5.693  19.769  0.00  0.00    +0.000 A 
ATOM     21  C   UNL     1       3.031   5.095  18.909  0.00  0.00    +0.000 A 
BRANCH  16  22
ATOM     22  C   UNL     1       4.189   3.057  17.919  0.00  0.00    +0.000 C 
BRANCH  22  28
ATOM     23  C   UNL     1       7.988   5.757  19.263  0.00  0.00    +0.000 C 
ATOM     24  C   UNL     1       7.018   5.097  18.357  0.00  0.00    +0.000 A 
ATOM     25  C   UNL     1       6.934   5.213  16.954  0.00  0.00    +0.000 A 
ATOM     26  C   UNL     1       5.865   4.428  16.581  0.00  0.00    +0.000 A 
ATOM     27  C   UNL     1       5.287   4.182  15.240  0.00  0.00    +0.000 C 
ATOM     28  N   UNL     1       5.385   3.876  17.747  0.00  0.00    +0.000 N 
ATOM     29  N   UNL     1       6.066   4.290  18.843  0.00  0.00    +0.000 NA
ENDBRANCH  22  28
ENDBRANCH  16  22
ENDBRANCH   1  20
TORSDOF 4
ENDMDL
MODEL 5
REMARK VINA RESULT:      -8.2      0.653      1.614
REMARK  Name = 
REMARK  7 active torsions:
REMARK  status: ('A' for Active; 'I' for Inactive)
REMARK    1  A    between atoms: C_1  and  C_2
REMARK    2  A    between atoms: C_4  and  C_5
REMARK    3  A    between atoms: N_6  and  C_7
REMARK    4  A    between atoms: C_7  and  C_8
REMARK    5  A    between atoms: C_12  and  C_13
REMARK    6  A    between atoms: N_15  and  C_16
REMARK    7  A    between atoms: C_22  and  C_23
REMARK                            x       y       z     vdW  Elec       q    Type
REMARK                         _______ _______ _______ _____ _____    ______ ____
ROOT
ATOM      1  C   UNL     1       1.973   8.197  18.215  0.00  0.00    +0.000 C 
ATOM      2  O   UNL     1       2.455   8.575  17.148  0.00  0.00    +0.000 OA
ATOM      3  N   UNL     1       2.120   6.900  18.670  0.00  0.00    +0.000 N 
ATOM      4  H   UNL     1       1.587   6.582  19.465  0.00  0.00    +0.000 HD
ENDROOT
BRANCH   3   5
ATOM      5  C   UNL     1       2.735   5.868  17.840  0.00  0.00    +0.000 C 
ATOM      6  C   UNL     1       1.950   4.549  17.960  0.00  0.00    +0.000 C 
ATOM      7  C   UNL     1       2.291   3.827  19.263  0.00  0.00    +0.000 C 
ATOM      8  C   UNL     1       3.771   3.447  19.277  0.00  0.00    +0.000 C 
ATOM      9  C   UNL     1       4.673   4.587  18.881  0.00  0.00    +0.000 A 
ATOM     10  N   UNL     1       5.985   4.431  19.170  0.00  0.00    +0.000 NA
ATOM     11  C   UNL     1       6.821   5.412  18.785  0.00  0.00    +0.000 A 
ATOM     12  C   UNL     1       8.280   5.242  19.069  0.00  0.00    +0.000 C 
ATOM     13  N   UNL     1       6.440   6.534  18.150  0.00  0.00    +0.000 NA
ATOM     14  C   UNL     1       5.126   6.647  17.875  0.00  0.00    +0.000 A 
ATOM     15  C   UNL     1       4.183   5.693  18.205  0.00  0.00    +0.000 A 
ENDBRANCH   3   5
BRANCH   1  20
ATOM     16  C   UNL     1      -0.386  11.053  19.067  0.00  0.00    +0.000 A 
ATOM     17  C   UNL     1      -0.505  10.912  20.455  0.00  0.00    +0.000 A 
ATOM     18  C   UNL     1       0.206   9.921  21.131  0.00  0.00    +0.000 A 
ATOM     19  C   UNL     1       1.042   9.046  20.431  0.00  0.00    +0.000 A 
ATOM     20  C   UNL     1       1.157   9.144  19.040  0.00  0.00    +0.000 A 
ATOM     21  C   UNL     1       0.453  10.163  18.372  0.00  0.00    +0.000 A 
BRANCH  16  22
ATOM     22  C   UNL     1      -1.171  12.121  18.342  0.00  0.00    +0.000 C 
BRANCH  22  28
ATOM     23  C   UNL     1      -5.837  11.912  19.650  0.00  0.00    +0.000 C 
ATOM     24  C   UNL     1      -4.625  11.682  18.830  0.00  0.00    +0.000 A 
ATOM     25  C   UNL     1      -4.514  10.911  17.654  0.00  0.00    +0.000 A 
ATOM     26  C   UNL     1      -3.191  10.992  17.281  0.00  0.00    +0.000 A 
ATOM     27  C   UNL     1      -2.484  10.366  16.140  0.00  0.00    +0.000 C 
ATOM     28  N   UNL     1      -2.591  11.806  18.215  0.00  0.00    +0.000 N 
ATOM     29  N   UNL     1      -3.449  12.220  19.178  0.00  0.00    +0.000 NA
ENDBRANCH  22  28
ENDBRANCH  16  22
ENDBRANCH   1  20
TORSDOF 4
ENDMDL
MODEL 6
REMARK VINA RESULT:      -8.1      2.363      3.410
REMARK  Name = 
REMARK  7 active torsions:
REMARK  status: ('A' for Active; 'I' for Inactive)
REMARK    1  A    between atoms: C_1  and  C_2
REMARK    2  A    between atoms: C_4  and  C_5
REMARK    3  A    between atoms: N_6  and  C_7
REMARK    4  A    between atoms: C_7  and  C_8
REMARK    5  A    between atoms: C_12  and  C_13
REMARK    6  A    between atoms: N_15  and  C_16
REMARK    7  A    between atoms: C_22  and  C_23
REMARK                            x       y       z     vdW  Elec       q    Type
REMARK                         _______ _______ _______ _____ _____    ______ ____
ROOT
ATOM      1  C   UNL     1       2.963   5.665  19.433  0.00  0.00    +0.000 C 
ATOM      2  O   UNL     1       2.585   4.580  19.871  0.00  0.00    +0.000 OA
ATOM      3  N   UNL     1       4.077   5.783  18.623  0.00  0.00    +0.000 N 
ATOM      4  H   UNL     1       4.449   6.696  18.409  0.00  0.00    +0.000 HD
ENDROOT
BRANCH   3   5
ATOM      5  C   UNL     1       4.949   4.643  18.359  0.00  0.00    +0.000 C 
ATOM      6  C   UNL     1       5.993   4.499  19.482  0.00  0.00    +0.000 C 
ATOM      7  C   UNL     1       7.123   5.514  19.312  0.00  0.00    +0.000 C 
ATOM      8  C   UNL     1       7.865   5.253  18.002  0.00  0.00    +0.000 C 
ATOM      9  C   UNL     1       6.938   5.073  16.829  0.00  0.00    +0.000 A 
ATOM     10  N   UNL     1       7.509   5.154  15.606  0.00  0.00    +0.000 NA
ATOM     11  C   UNL     1       6.714   4.949  14.540  0.00  0.00    +0.000 A 
ATOM     12  C   UNL     1       7.336   5.006  13.180  0.00  0.00    +0.000 C 
ATOM     13  N   UNL     1       5.398   4.684  14.609  0.00  0.00    +0.000 NA
ATOM     14  C   UNL     1       4.870   4.605  15.846  0.00  0.00    +0.000 A 
ATOM     15  C   UNL     1       5.596   4.777  17.008  0.00  0.00    +0.000 A 
ENDBRANCH   3   5
BRANCH   1  20
ATOM     16  C   UNL     1       1.333   9.082  19.091  0.00  0.00    +0.000 A 
ATOM     17  C   UNL     1       0.784   9.258  20.367  0.00  0.00    +0.000 A 
ATOM     18  C   UNL     1       0.970   8.295  21.359  0.00  0.00    +0.000 A 
ATOM     19  C   UNL     1       1.701   7.134  21.091  0.00  0.00    +0.000 A 
ATOM     20  C   UNL     1       2.235   6.917  19.816  0.00  0.00    +0.000 A 
ATOM     21  C   UNL     1       2.061   7.907  18.831  0.00  0.00    +0.000 A 
BRANCH  16  22
ATOM     22  C   UNL     1       1.115  10.125  18.020  0.00  0.00    +0.000 C 
BRANCH  22  28
ATOM     23  C   UNL     1      -3.617  10.339  16.976  0.00  0.00    +0.000 C 
ATOM     24  C   UNL     1      -2.303  10.770  17.507  0.00  0.00    +0.000 A 
ATOM     25  C   UNL     1      -1.978  12.007  18.100  0.00  0.00    +0.000 A 
ATOM     26  C   UNL     1      -0.638  11.929  18.410  0.00  0.00    +0.000 A 
ATOM     27  C   UNL     1       0.257  12.937  19.026  0.00  0.00    +0.000 C 
ATOM     28  N   UNL     1      -0.239  10.672  18.017  0.00  0.00    +0.000 N 
ATOM     29  N   UNL     1      -1.240   9.959  17.446  0.00  0.00    +0.000 NA
ENDBRANCH  22  28
ENDBRANCH  16  22
ENDBRANCH   1  20
TORSDOF 4
ENDMDL
MODEL 7
REMARK VINA RESULT:      -8.0      1.893      8.871
REMARK  Name = 
REMARK  7 active torsions:
REMARK  status: ('A' for Active; 'I' for Inactive)
REMARK    1  A    between atoms: C_1  and  C_2
REMARK    2  A    between atoms: C_4  and  C_5
REMARK    3  A    between atoms: N_6  and  C_7
REMARK    4  A    between atoms: C_7  and  C_8
REMARK    5  A    between atoms: C_12  and  C_13
REMARK    6  A    between atoms: N_15  and  C_16
REMARK    7  A    between atoms: C_22  and  C_23
REMARK                            x       y       z     vdW  Elec       q    Type
REMARK                         _______ _______ _______ _____ _____    ______ ____
ROOT
ATOM      1  C   UNL     1       1.928   8.396  18.499  0.00  0.00    +0.000 C 
ATOM      2  O   UNL     1       2.436   8.707  17.423  0.00  0.00    +0.000 OA
ATOM      3  N   UNL     1       1.024   9.215  19.149  0.00  0.00    +0.000 N 
ATOM      4  H   UNL     1       0.746   9.006  20.096  0.00  0.00    +0.000 HD
ENDROOT
BRANCH   3   5
ATOM      5  C   UNL     1       0.730  10.560  18.663  0.00  0.00    +0.000 C 
ATOM      6  C   UNL     1       1.266  11.612  19.652  0.00  0.00    +0.000 C 
ATOM      7  C   UNL     1       0.338  11.751  20.858  0.00  0.00    +0.000 C 
ATOM      8  C   UNL     1      -1.034  12.249  20.406  0.00  0.00    +0.000 C 
ATOM      9  C   UNL     1      -1.574  11.486  19.224  0.00  0.00    +0.000 A 
ATOM     10  N   UNL     1      -2.892  11.647  18.967  0.00  0.00    +0.000 NA
ATOM     11  C   UNL     1      -3.391  11.016  17.889  0.00  0.00    +0.000 A 
ATOM     12  C   UNL     1      -4.841  11.208  17.573  0.00  0.00    +0.000 C 
ATOM     13  N   UNL     1      -2.676  10.232  17.064  0.00  0.00    +0.000 NA
ATOM     14  C   UNL     1      -1.366  10.103  17.351  0.00  0.00    +0.000 A 
ATOM     15  C   UNL     1      -0.745  10.721  18.419  0.00  0.00    +0.000 A 
ENDBRANCH   3   5
BRANCH   1  20
ATOM     16  C   UNL     1       4.030   5.370  19.435  0.00  0.00    +0.000 A 
ATOM     17  C   UNL     1       3.240   4.779  20.428  0.00  0.00    +0.000 A 
ATOM     18  C   UNL     1       2.007   5.328  20.775  0.00  0.00    +0.000 A 
ATOM     19  C   UNL     1       1.542   6.484  20.141  0.00  0.00    +0.000 A 
ATOM     20  C   UNL     1       2.323   7.114  19.166  0.00  0.00    +0.000 A 
ATOM     21  C   UNL     1       3.556   6.537  18.808  0.00  0.00    +0.000 A 
BRANCH  16  22
ATOM     22  C   UNL     1       5.372   4.775  19.075  0.00  0.00    +0.000 C 
BRANCH  22  28
ATOM     23  C   UNL     1       7.107   5.041  14.554  0.00  0.00    +0.000 C 
ATOM     24  C   UNL     1       6.236   4.609  15.672  0.00  0.00    +0.000 A 
ATOM     25  C   UNL     1       5.106   3.767  15.607  0.00  0.00    +0.000 A 
ATOM     26  C   UNL     1       4.633   3.682  16.898  0.00  0.00    +0.000 A 
ATOM     27  C   UNL     1       3.456   2.959  17.435  0.00  0.00    +0.000 C 
ATOM     28  N   UNL     1       5.492   4.442  17.659  0.00  0.00    +0.000 N 
ATOM     29  N   UNL     1       6.465   5.030  16.922  0.00  0.00    +0.000 NA
ENDBRANCH  22  28
ENDBRANCH  16  22
ENDBRANCH   1  20
TORSDOF 4
ENDMDL
MODEL 8
REMARK VINA RESULT:      -8.0      1.988      8.719
REMARK  Name = 
REMARK  7 active torsions:
REMARK  status: ('A' for Active; 'I' for Inactive)
REMARK    1  A    between atoms: C_1  and  C_2
REMARK    2  A    between atoms: C_4  and  C_5
REMARK    3  A    between atoms: N_6  and  C_7
REMARK    4  A    between atoms: C_7  and  C_8
REMARK    5  A    between atoms: C_12  and  C_13
REMARK    6  A    between atoms: N_15  and  C_16
REMARK    7  A    between atoms: C_22  and  C_23
REMARK                            x       y       z     vdW  Elec       q    Type
REMARK                         _______ _______ _______ _____ _____    ______ ____
ROOT
ATOM      1  C   UNL     1       2.054   7.239  20.004  0.00  0.00    +0.000 C 
ATOM      2  O   UNL     1       2.582   7.891  19.105  0.00  0.00    +0.000 OA
ATOM      3  N   UNL     1       1.418   7.841  21.074  0.00  0.00    +0.000 N 
ATOM      4  H   UNL     1       1.134   7.287  21.867  0.00  0.00    +0.000 HD
ENDROOT
BRANCH   3   5
ATOM      5  C   UNL     1       1.463   9.287  21.268  0.00  0.00    +0.000 C 
ATOM      6  C   UNL     1       1.428   9.624  22.770  0.00  0.00    +0.000 C 
ATOM      7  C   UNL     1       0.008   9.506  23.324  0.00  0.00    +0.000 C 
ATOM      8  C   UNL     1      -0.906  10.519  22.637  0.00  0.00    +0.000 C 
ATOM      9  C   UNL     1      -0.764  10.514  21.137  0.00  0.00    +0.000 A 
ATOM     10  N   UNL     1      -1.744  11.141  20.448  0.00  0.00    +0.000 NA
ATOM     11  C   UNL     1      -1.619  11.193  19.109  0.00  0.00    +0.000 A 
ATOM     12  C   UNL     1      -2.679  11.909  18.333  0.00  0.00    +0.000 C 
ATOM     13  N   UNL     1      -0.599  10.658  18.416  0.00  0.00    +0.000 NA
ATOM     14  C   UNL     1       0.359  10.049  19.141  0.00  0.00    +0.000 A 
ATOM     15  C   UNL     1       0.343   9.954  20.519  0.00  0.00    +0.000 A 
ENDBRANCH   3   5
BRANCH   1  20
ATOM     16  C   UNL     1       3.476   3.754  19.466  0.00  0.00    +0.000 A 
ATOM     17  C   UNL     1       2.457   2.953  19.995  0.00  0.00    +0.000 A 
ATOM     18  C   UNL     1       1.287   3.528  20.492  0.00  0.00    +0.000 A 
ATOM     19  C   UNL     1       1.117   4.915  20.477  0.00  0.00    +0.000 A 
ATOM     20  C   UNL     1       2.132   5.743  19.983  0.00  0.00    +0.000 A 
ATOM     21  C   UNL     1       3.297   5.150  19.463  0.00  0.00    +0.000 A 
BRANCH  16  22
ATOM     22  C   UNL     1       4.745   3.123  18.943  0.00  0.00    +0.000 C 
BRANCH  22  28
ATOM     23  C   UNL     1       5.735   4.275  14.337  0.00  0.00    +0.000 C 
ATOM     24  C   UNL     1       5.806   4.328  15.816  0.00  0.00    +0.000 A 
ATOM     25  C   UNL     1       6.660   5.123  16.608  0.00  0.00    +0.000 A 
ATOM     26  C   UNL     1       6.358   4.803  17.914  0.00  0.00    +0.000 A 
ATOM     27  C   UNL     1       6.949   5.301  19.177  0.00  0.00    +0.000 C 
ATOM     28  N   UNL     1       5.348   3.871  17.843  0.00  0.00    +0.000 N 
ATOM     29  N   UNL     1       5.013   3.556  16.568  0.00  0.00    +0.000 NA
ENDBRANCH  22  28
ENDBRANCH  16  22
ENDBRANCH   1  20
TORSDOF 4
ENDMDL
MODEL 9
REMARK VINA RESULT:      -8.0      2.525      3.826
REMARK  Name = 
REMARK  7 active torsions:
REMARK  status: ('A' for Active; 'I' for Inactive)
REMARK    1  A    between atoms: C_1  and  C_2
REMARK    2  A    between atoms: C_4  and  C_5
REMARK    3  A    between atoms: N_6  and  C_7
REMARK    4  A    between atoms: C_7  and  C_8
REMARK    5  A    between atoms: C_12  and  C_13
REMARK    6  A    between atoms: N_15  and  C_16
REMARK    7  A    between atoms: C_22  and  C_23
REMARK                            x       y       z     vdW  Elec       q    Type
REMARK                         _______ _______ _______ _____ _____    ______ ____
ROOT
ATOM      1  C   UNL     1       3.007   5.673  19.544  0.00  0.00    +0.000 C 
ATOM      2  O   UNL     1       2.784   4.647  20.185  0.00  0.00    +0.000 OA
ATOM      3  N   UNL     1       3.977   5.730  18.561  0.00  0.00    +0.000 N 
ATOM      4  H   UNL     1       4.240   6.619  18.165  0.00  0.00    +0.000 HD
ENDROOT
BRANCH   3   5
ATOM      5  C   UNL     1       4.888   4.614  18.327  0.00  0.00    +0.000 C 
ATOM      6  C   UNL     1       5.917   4.518  19.470  0.00  0.00    +0.000 C 
ATOM      7  C   UNL     1       7.017   5.565  19.304  0.00  0.00    +0.000 C 
ATOM      8  C   UNL     1       7.790   5.311  18.011  0.00  0.00    +0.000 C 
ATOM      9  C   UNL     1       6.889   5.085  16.825  0.00  0.00    +0.000 A 
ATOM     10  N   UNL     1       7.478   5.168  15.610  0.00  0.00    +0.000 NA
ATOM     11  C   UNL     1       6.708   4.924  14.534  0.00  0.00    +0.000 A 
ATOM     12  C   UNL     1       7.351   4.981  13.184  0.00  0.00    +0.000 C 
ATOM     13  N   UNL     1       5.400   4.618  14.585  0.00  0.00    +0.000 NA
ATOM     14  C   UNL     1       4.854   4.539  15.814  0.00  0.00    +0.000 A 
ATOM     15  C   UNL     1       5.553   4.750  16.986  0.00  0.00    +0.000 A 
ENDBRANCH   3   5
BRANCH   1  20
ATOM     16  C   UNL     1       1.437   9.101  19.055  0.00  0.00    +0.000 A 
ATOM     17  C   UNL     1       0.752   9.268  20.264  0.00  0.00    +0.000 A 
ATOM     18  C   UNL     1       0.824   8.296  21.261  0.00  0.00    +0.000 A 
ATOM     19  C   UNL     1       1.575   7.134  21.066  0.00  0.00    +0.000 A 
ATOM     20  C   UNL     1       2.246   6.925  19.855  0.00  0.00    +0.000 A 
ATOM     21  C   UNL     1       2.185   7.924  18.866  0.00  0.00    +0.000 A 
BRANCH  16  22
ATOM     22  C   UNL     1       1.343  10.153  17.974  0.00  0.00    +0.000 C 
BRANCH  22  28
ATOM     23  C   UNL     1      -0.298  14.343  19.785  0.00  0.00    +0.000 C 
ATOM     24  C   UNL     1      -0.339  13.020  19.118  0.00  0.00    +0.000 A 
ATOM     25  C   UNL     1      -1.476  12.318  18.669  0.00  0.00    +0.000 A 
ATOM     26  C   UNL     1      -0.998  11.139  18.140  0.00  0.00    +0.000 A 
ATOM     27  C   UNL     1      -1.730   9.997  17.543  0.00  0.00    +0.000 C 
ATOM     28  N   UNL     1       0.370  11.199  18.275  0.00  0.00    +0.000 N 
ATOM     29  N   UNL     1       0.787  12.334  18.888  0.00  0.00    +0.000 NA
ENDBRANCH  22  28
ENDBRANCH  16  22
ENDBRANCH   1  20
TORSDOF 4
ENDMDL
