MODEL 1
REMARK VINA RESULT:      -8.7      0.000      0.000
REMARK  Name = 
REMARK  5 active torsions:
REMARK  status: ('A' for Active; 'I' for Inactive)
REMARK    1  A    between atoms: C_1  and  C_2
REMARK    2  A    between atoms: C_9  and  C_10
REMARK    3  A    between atoms: C_13  and  C_14
REMARK    4  A    between atoms: C_18  and  C_19
REMARK    5  A    between atoms: N_23  and  C_24
REMARK                            x       y       z     vdW  Elec       q    Type
REMARK                         _______ _______ _______ _____ _____    ______ ____
ROOT
ATOM      1  C   UNL     1       8.374   8.879  18.190  0.00  0.00    +0.000 A 
ATOM      2  N   UNL     1       7.751   8.813  17.003  0.00  0.00    +0.000 NA
ATOM      3  O   UNL     1       7.239   7.520  16.976  0.00  0.00    +0.000 OA
ATOM      4  C   UNL     1       7.592   6.935  18.157  0.00  0.00    +0.000 A 
ATOM      5  N   UNL     1       8.311   7.720  18.926  0.00  0.00    +0.000 NA
ENDROOT
BRANCH   1  14
ATOM      6  C   UNL     1       9.061  12.358  22.394  0.00  0.00    +0.000 C 
ATOM      7  C   UNL     1       9.764  12.623  21.101  0.00  0.00    +0.000 A 
ATOM      8  C   UNL     1      10.624  13.726  20.936  0.00  0.00    +0.000 A 
ATOM      9  C   UNL     1      11.295  13.955  19.732  0.00  0.00    +0.000 A 
ATOM     10 CL   UNL     1      12.333  15.322  19.588  0.00  0.00    +0.000 Cl
ATOM     11  C   UNL     1      11.154  13.091  18.641  0.00  0.00    +0.000 A 
ATOM     12  C   UNL     1      10.310  11.977  18.782  0.00  0.00    +0.000 A 
ATOM     13  C   UNL     1       9.935  10.887  17.955  0.00  0.00    +0.000 A 
ATOM     14  C   UNL     1       9.041  10.118  18.679  0.00  0.00    +0.000 A 
ATOM     15  O   UNL     1       8.854  10.677  19.913  0.00  0.00    +0.000 OA
ATOM     16  C   UNL     1       9.638  11.789  19.984  0.00  0.00    +0.000 A 
ENDBRANCH   1  14
BRANCH   4  17
ATOM     17  C   UNL     1       7.079   5.564  18.433  0.00  0.00    +0.000 C 
ATOM     18  C   UNL     1       7.758   4.502  17.588  0.00  0.00    +0.000 C 
ATOM     19  C   UNL     1       6.918   4.460  16.326  0.00  0.00    +0.000 C 
ATOM     20  O   UNL     1       5.611   4.955  16.650  0.00  0.00    +0.000 OA
ATOM     21  C   UNL     1       5.615   5.434  18.012  0.00  0.00    +0.000 C 
BRANCH  21  22
ATOM     22  C   UNL     1       4.860   4.418  18.824  0.00  0.00    +0.000 A 
ATOM     23  N   UNL     1       5.364   3.314  19.347  0.00  0.00    +0.000 NA
ATOM     24  C   UNL     1       4.333   2.700  20.004  0.00  0.00    +0.000 A 
ATOM     25  C   UNL     1       3.179   3.430  19.885  0.00  0.00    +0.000 A 
ATOM     26  N   UNL     1       3.521   4.521  19.133  0.00  0.00    +0.000 N 
ATOM     27  C   UNL     1       2.620   5.579  18.747  0.00  0.00    +0.000 C 
ENDBRANCH  21  22
ENDBRANCH   4  17
TORSDOF 3
ENDMDL
MODEL 2
REMARK VINA RESULT:      -8.4      5.460      7.758
REMARK  Name = 
REMARK  5 active torsions:
REMARK  status: ('A' for Active; 'I' for Inactive)
REMARK    1  A    between atoms: C_1  and  C_2
REMARK    2  A    between atoms: C_9  and  C_10
REMARK    3  A    between atoms: C_13  and  C_14
REMARK    4  A    between atoms: C_18  and  C_19
REMARK    5  A    between atoms: N_23  and  C_24
REMARK                            x       y       z     vdW  Elec       q    Type
REMARK                         _______ _______ _______ _____ _____    ______ ____
ROOT
ATOM      1  C   UNL     1       1.664   6.960  20.211  0.00  0.00    +0.000 A 
ATOM      2  N   UNL     1       1.554   5.873  20.991  0.00  0.00    +0.000 NA
ATOM      3  O   UNL     1       2.182   4.877  20.251  0.00  0.00    +0.000 OA
ATOM      4  C   UNL     1       2.623   5.463  19.101  0.00  0.00    +0.000 A 
ATOM      5  N   UNL     1       2.308   6.736  19.017  0.00  0.00    +0.000 NA
ENDROOT
BRANCH   1  14
ATOM      6  C   UNL     1       1.468  12.335  19.060  0.00  0.00    +0.000 C 
ATOM      7  C   UNL     1       0.791  11.824  20.291  0.00  0.00    +0.000 A 
ATOM      8  C   UNL     1       0.076  12.677  21.153  0.00  0.00    +0.000 A 
ATOM      9  C   UNL     1      -0.575  12.189  22.290  0.00  0.00    +0.000 A 
ATOM     10 CL   UNL     1      -1.433  13.281  23.308  0.00  0.00    +0.000 Cl
ATOM     11  C   UNL     1      -0.556  10.828  22.615  0.00  0.00    +0.000 A 
ATOM     12  C   UNL     1       0.142   9.953  21.766  0.00  0.00    +0.000 A 
ATOM     13  C   UNL     1       0.367   8.554  21.728  0.00  0.00    +0.000 A 
ATOM     14  C   UNL     1       1.165   8.300  20.626  0.00  0.00    +0.000 A 
ATOM     15  O   UNL     1       1.435   9.475  19.980  0.00  0.00    +0.000 OA
ATOM     16  C   UNL     1       0.798  10.472  20.656  0.00  0.00    +0.000 A 
ENDBRANCH   1  14
BRANCH   4  17
ATOM     17  C   UNL     1       3.429   4.632  18.162  0.00  0.00    +0.000 C 
ATOM     18  C   UNL     1       3.422   3.160  18.529  0.00  0.00    +0.000 C 
ATOM     19  C   UNL     1       4.584   3.027  19.495  0.00  0.00    +0.000 C 
ATOM     20  O   UNL     1       5.496   4.105  19.237  0.00  0.00    +0.000 OA
ATOM     21  C   UNL     1       4.913   4.988  18.255  0.00  0.00    +0.000 C 
BRANCH  21  22
ATOM     22  C   UNL     1       5.654   4.746  16.969  0.00  0.00    +0.000 A 
ATOM     23  N   UNL     1       5.373   3.812  16.077  0.00  0.00    +0.000 NA
ATOM     24  C   UNL     1       6.290   3.961  15.071  0.00  0.00    +0.000 A 
ATOM     25  C   UNL     1       7.146   4.995  15.345  0.00  0.00    +0.000 A 
ATOM     26  N   UNL     1       6.737   5.489  16.553  0.00  0.00    +0.000 N 
ATOM     27  C   UNL     1       7.349   6.596  17.248  0.00  0.00    +0.000 C 
ENDBRANCH  21  22
ENDBRANCH   4  17
TORSDOF 3
ENDMDL
MODEL 3
REMARK VINA RESULT:      -8.4      0.819      1.721
REMARK  Name = 
REMARK  5 active torsions:
REMARK  status: ('A' for Active; 'I' for Inactive)
REMARK    1  A    between atoms: C_1  and  C_2
REMARK    2  A    between atoms: C_9  and  C_10
REMARK    3  A    between atoms: C_13  and  C_14
REMARK    4  A    between atoms: C_18  and  C_19
REMARK    5  A    between atoms: N_23  and  C_24
REMARK                            x       y       z     vdW  Elec       q    Type
REMARK                         _______ _______ _______ _____ _____    ______ ____
ROOT
ATOM      1  C   UNL     1       8.379   8.916  18.095  0.00  0.00    +0.000 A 
ATOM      2  N   UNL     1       7.768   8.803  16.906  0.00  0.00    +0.000 NA
ATOM      3  O   UNL     1       7.268   7.505  16.920  0.00  0.00    +0.000 OA
ATOM      4  C   UNL     1       7.614   6.965  18.124  0.00  0.00    +0.000 A 
ATOM      5  N   UNL     1       8.319   7.784  18.872  0.00  0.00    +0.000 NA
ENDROOT
BRANCH   1  14
ATOM      6  C   UNL     1      11.458  13.246  16.670  0.00  0.00    +0.000 C 
ATOM      7  C   UNL     1      10.995  13.110  18.085  0.00  0.00    +0.000 A 
ATOM      8  C   UNL     1      11.301  14.076  19.063  0.00  0.00    +0.000 A 
ATOM      9  C   UNL     1      10.846  13.954  20.379  0.00  0.00    +0.000 A 
ATOM     10 CL   UNL     1      11.253  15.168  21.531  0.00  0.00    +0.000 Cl
ATOM     11  C   UNL     1      10.055  12.873  20.781  0.00  0.00    +0.000 A 
ATOM     12  C   UNL     1       9.727  11.899  19.823  0.00  0.00    +0.000 A 
ATOM     13  C   UNL     1       8.951  10.712  19.820  0.00  0.00    +0.000 A 
ATOM     14  C   UNL     1       9.031  10.178  18.546  0.00  0.00    +0.000 A 
ATOM     15  O   UNL     1       9.811  10.984  17.763  0.00  0.00    +0.000 OA
ATOM     16  C   UNL     1      10.213  12.037  18.529  0.00  0.00    +0.000 A 
ENDBRANCH   1  14
BRANCH   4  17
ATOM     17  C   UNL     1       7.111   5.601  18.444  0.00  0.00    +0.000 C 
ATOM     18  C   UNL     1       7.849   4.511  17.689  0.00  0.00    +0.000 C 
ATOM     19  C   UNL     1       7.075   4.389  16.391  0.00  0.00    +0.000 C 
ATOM     20  O   UNL     1       5.745   4.875  16.624  0.00  0.00    +0.000 OA
ATOM     21  C   UNL     1       5.672   5.422  17.959  0.00  0.00    +0.000 C 
BRANCH  21  22
ATOM     22  C   UNL     1       4.894   4.434  18.783  0.00  0.00    +0.000 A 
ATOM     23  N   UNL     1       5.395   3.382  19.409  0.00  0.00    +0.000 NA
ATOM     24  C   UNL     1       4.340   2.776  20.035  0.00  0.00    +0.000 A 
ATOM     25  C   UNL     1       3.175   3.457  19.792  0.00  0.00    +0.000 A 
ATOM     26  N   UNL     1       3.535   4.509  18.995  0.00  0.00    +0.000 N 
ATOM     27  C   UNL     1       2.631   5.509  18.482  0.00  0.00    +0.000 C 
ENDBRANCH  21  22
ENDBRANCH   4  17
TORSDOF 3
ENDMDL
MODEL 4
REMARK VINA RESULT:      -8.3      6.466      9.750
REMARK  Name = 
REMARK  5 active torsions:
REMARK  status: ('A' for Active; 'I' for Inactive)
REMARK    1  A    between atoms: C_1  and  C_2
REMARK    2  A    between atoms: C_9  and  C_10
REMARK    3  A    between atoms: C_13  and  C_14
REMARK    4  A    between atoms: C_18  and  C_19
REMARK    5  A    between atoms: N_23  and  C_24
REMARK                            x       y       z     vdW  Elec       q    Type
REMARK                         _______ _______ _______ _____ _____    ______ ____
ROOT
ATOM      1  C   UNL     1       2.074   7.827  19.321  0.00  0.00    +0.000 A 
ATOM      2  N   UNL     1       1.706   7.459  20.558  0.00  0.00    +0.000 NA
ATOM      3  O   UNL     1       0.931   8.527  20.998  0.00  0.00    +0.000 OA
ATOM      4  C   UNL     1       0.894   9.430  19.976  0.00  0.00    +0.000 A 
ATOM      5  N   UNL     1       1.601   9.058  18.933  0.00  0.00    +0.000 NA
ENDROOT
BRANCH   1  14
ATOM      6  C   UNL     1       3.221   2.682  17.750  0.00  0.00    +0.000 C 
ATOM      7  C   UNL     1       3.964   3.821  17.129  0.00  0.00    +0.000 A 
ATOM      8  C   UNL     1       4.934   3.617  16.129  0.00  0.00    +0.000 A 
ATOM      9  C   UNL     1       5.609   4.688  15.536  0.00  0.00    +0.000 A 
ATOM     10 CL   UNL     1       6.786   4.376  14.318  0.00  0.00    +0.000 Cl
ATOM     11  C   UNL     1       5.342   6.011  15.901  0.00  0.00    +0.000 A 
ATOM     12  C   UNL     1       4.373   6.244  16.891  0.00  0.00    +0.000 A 
ATOM     13  C   UNL     1       3.810   7.396  17.497  0.00  0.00    +0.000 A 
ATOM     14  C   UNL     1       2.891   6.954  18.432  0.00  0.00    +0.000 A 
ATOM     15  O   UNL     1       2.856   5.586  18.425  0.00  0.00    +0.000 OA
ATOM     16  C   UNL     1       3.735   5.157  17.477  0.00  0.00    +0.000 A 
ENDBRANCH   1  14
BRANCH   4  17
ATOM     17  C   UNL     1       0.037  10.637  20.147  0.00  0.00    +0.000 C 
ATOM     18  C   UNL     1      -0.197  11.379  18.845  0.00  0.00    +0.000 C 
ATOM     19  C   UNL     1       0.975  12.338  18.765  0.00  0.00    +0.000 C 
ATOM     20  O   UNL     1       1.456  12.558  20.098  0.00  0.00    +0.000 OA
ATOM     21  C   UNL     1       0.742  11.689  21.004  0.00  0.00    +0.000 C 
BRANCH  21  22
ATOM     22  C   UNL     1      -0.217  12.562  21.766  0.00  0.00    +0.000 A 
ATOM     23  N   UNL     1      -0.367  13.866  21.613  0.00  0.00    +0.000 NA
ATOM     24  C   UNL     1      -1.344  14.242  22.495  0.00  0.00    +0.000 A 
ATOM     25  C   UNL     1      -1.801  13.160  23.201  0.00  0.00    +0.000 A 
ATOM     26  N   UNL     1      -1.080  12.096  22.734  0.00  0.00    +0.000 N 
ATOM     27  C   UNL     1      -1.219  10.734  23.189  0.00  0.00    +0.000 C 
ENDBRANCH  21  22
ENDBRANCH   4  17
TORSDOF 3
ENDMDL
MODEL 5
REMARK VINA RESULT:      -8.2      6.819     10.127
REMARK  Name = 
REMARK  5 active torsions:
REMARK  status: ('A' for Active; 'I' for Inactive)
REMARK    1  A    between atoms: C_1  and  C_2
REMARK    2  A    between atoms: C_9  and  C_10
REMARK    3  A    between atoms: C_13  and  C_14
REMARK    4  A    between atoms: C_18  and  C_19
REMARK    5  A    between atoms: N_23  and  C_24
REMARK                            x       y       z     vdW  Elec       q    Type
REMARK                         _______ _______ _______ _____ _____    ______ ____
ROOT
ATOM      1  C   UNL     1       1.816   8.307  19.302  0.00  0.00    +0.000 A 
ATOM      2  N   UNL     1       1.475   8.138  20.589  0.00  0.00    +0.000 NA
ATOM      3  O   UNL     1       0.722   9.271  20.878  0.00  0.00    +0.000 OA
ATOM      4  C   UNL     1       0.669  10.008  19.732  0.00  0.00    +0.000 A 
ATOM      5  N   UNL     1       1.346   9.471  18.742  0.00  0.00    +0.000 NA
ENDROOT
BRANCH   1  14
ATOM      6  C   UNL     1       2.523   2.977  18.141  0.00  0.00    +0.000 C 
ATOM      7  C   UNL     1       3.430   3.989  17.519  0.00  0.00    +0.000 A 
ATOM      8  C   UNL     1       4.448   3.620  16.618  0.00  0.00    +0.000 A 
ATOM      9  C   UNL     1       5.279   4.574  16.023  0.00  0.00    +0.000 A 
ATOM     10 CL   UNL     1       6.507   4.062  14.929  0.00  0.00    +0.000 Cl
ATOM     11  C   UNL     1       5.127   5.940  16.285  0.00  0.00    +0.000 A 
ATOM     12  C   UNL     1       4.114   6.337  17.174  0.00  0.00    +0.000 A 
ATOM     13  C   UNL     1       3.632   7.578  17.661  0.00  0.00    +0.000 A 
ATOM     14  C   UNL     1       2.601   7.297  18.540  0.00  0.00    +0.000 A 
ATOM     15  O   UNL     1       2.420   5.943  18.610  0.00  0.00    +0.000 OA
ATOM     16  C   UNL     1       3.319   5.363  17.766  0.00  0.00    +0.000 A 
ENDBRANCH   1  14
BRANCH   4  17
ATOM     17  C   UNL     1      -0.170  11.239  19.735  0.00  0.00    +0.000 C 
ATOM     18  C   UNL     1       0.628  12.493  19.430  0.00  0.00    +0.000 C 
ATOM     19  C   UNL     1       1.124  12.941  20.791  0.00  0.00    +0.000 C 
ATOM     20  O   UNL     1       0.239  12.401  21.782  0.00  0.00    +0.000 OA
ATOM     21  C   UNL     1      -0.711  11.526  21.136  0.00  0.00    +0.000 C 
BRANCH  21  22
ATOM     22  C   UNL     1      -2.023  12.260  21.117  0.00  0.00    +0.000 A 
ATOM     23  N   UNL     1      -2.564  12.854  20.067  0.00  0.00    +0.000 NA
ATOM     24  C   UNL     1      -3.751  13.382  20.499  0.00  0.00    +0.000 A 
ATOM     25  C   UNL     1      -3.945  13.114  21.829  0.00  0.00    +0.000 A 
ATOM     26  N   UNL     1      -2.843  12.401  22.216  0.00  0.00    +0.000 N 
ATOM     27  C   UNL     1      -2.605  11.896  23.546  0.00  0.00    +0.000 C 
ENDBRANCH  21  22
ENDBRANCH   4  17
TORSDOF 3
ENDMDL
MODEL 6
REMARK VINA RESULT:      -8.1      5.798      8.196
REMARK  Name = 
REMARK  5 active torsions:
REMARK  status: ('A' for Active; 'I' for Inactive)
REMARK    1  A    between atoms: C_1  and  C_2
REMARK    2  A    between atoms: C_9  and  C_10
REMARK    3  A    between atoms: C_13  and  C_14
REMARK    4  A    between atoms: C_18  and  C_19
REMARK    5  A    between atoms: N_23  and  C_24
REMARK                            x       y       z     vdW  Elec       q    Type
REMARK                         _______ _______ _______ _____ _____    ______ ____
ROOT
ATOM      1  C   UNL     1       1.604   9.070  18.696  0.00  0.00    +0.000 A 
ATOM      2  N   UNL     1       1.932   9.544  17.484  0.00  0.00    +0.000 NA
ATOM      3  O   UNL     1       2.724   8.537  16.944  0.00  0.00    +0.000 OA
ATOM      4  C   UNL     1       2.786   7.545  17.878  0.00  0.00    +0.000 A 
ATOM      5  N   UNL     1       2.134   7.834  18.982  0.00  0.00    +0.000 NA
ENDROOT
BRANCH   1  14
ATOM      6  C   UNL     1      -0.186   9.591  23.871  0.00  0.00    +0.000 C 
ATOM      7  C   UNL     1      -0.740  10.487  22.810  0.00  0.00    +0.000 A 
ATOM      8  C   UNL     1      -1.689  11.485  23.103  0.00  0.00    +0.000 A 
ATOM      9  C   UNL     1      -2.186  12.335  22.110  0.00  0.00    +0.000 A 
ATOM     10 CL   UNL     1      -3.347  13.536  22.528  0.00  0.00    +0.000 Cl
ATOM     11  C   UNL     1      -1.752  12.241  20.784  0.00  0.00    +0.000 A 
ATOM     12  C   UNL     1      -0.798  11.260  20.466  0.00  0.00    +0.000 A 
ATOM     13  C   UNL     1      -0.104  10.874  19.291  0.00  0.00    +0.000 A 
ATOM     14  C   UNL     1       0.708   9.806  19.631  0.00  0.00    +0.000 A 
ATOM     15  O   UNL     1       0.553   9.522  20.960  0.00  0.00    +0.000 OA
ATOM     16  C   UNL     1      -0.340  10.416  21.470  0.00  0.00    +0.000 A 
ENDBRANCH   1  14
BRANCH   4  17
ATOM     17  C   UNL     1       3.497   6.288  17.511  0.00  0.00    +0.000 C 
ATOM     18  C   UNL     1       2.702   5.043  17.856  0.00  0.00    +0.000 C 
ATOM     19  C   UNL     1       3.109   4.744  19.285  0.00  0.00    +0.000 C 
ATOM     20  O   UNL     1       4.394   5.340  19.512  0.00  0.00    +0.000 OA
ATOM     21  C   UNL     1       4.763   6.114  18.350  0.00  0.00    +0.000 C 
BRANCH  21  22
ATOM     22  C   UNL     1       5.833   5.331  17.640  0.00  0.00    +0.000 A 
ATOM     23  N   UNL     1       5.689   4.683  16.496  0.00  0.00    +0.000 NA
ATOM     24  C   UNL     1       6.908   4.126  16.220  0.00  0.00    +0.000 A 
ATOM     25  C   UNL     1       7.814   4.431  17.202  0.00  0.00    +0.000 A 
ATOM     26  N   UNL     1       7.124   5.196  18.102  0.00  0.00    +0.000 N 
ATOM     27  C   UNL     1       7.675   5.754  19.313  0.00  0.00    +0.000 C 
ENDBRANCH  21  22
ENDBRANCH   4  17
TORSDOF 3
ENDMDL
MODEL 7
REMARK VINA RESULT:      -8.1      6.337      9.775
REMARK  Name = 
REMARK  5 active torsions:
REMARK  status: ('A' for Active; 'I' for Inactive)
REMARK    1  A    between atoms: C_1  and  C_2
REMARK    2  A    between atoms: C_9  and  C_10
REMARK    3  A    between atoms: C_13  and  C_14
REMARK    4  A    between atoms: C_18  and  C_19
REMARK    5  A    between atoms: N_23  and  C_24
REMARK                            x       y       z     vdW  Elec       q    Type
REMARK                         _______ _______ _______ _____ _____    ______ ____
ROOT
ATOM      1  C   UNL     1       1.969   7.674  19.626  0.00  0.00    +0.000 A 
ATOM      2  N   UNL     1       1.610   7.189  20.824  0.00  0.00    +0.000 NA
ATOM      3  O   UNL     1       0.785   8.181  21.344  0.00  0.00    +0.000 OA
ATOM      4  C   UNL     1       0.714   9.164  20.401  0.00  0.00    +0.000 A 
ATOM      5  N   UNL     1       1.444   8.912  19.337  0.00  0.00    +0.000 NA
ENDROOT
BRANCH   1  14
ATOM      6  C   UNL     1       3.637   2.721  17.912  0.00  0.00    +0.000 C 
ATOM      7  C   UNL     1       4.195   3.947  17.263  0.00  0.00    +0.000 A 
ATOM      8  C   UNL     1       5.117   3.872  16.202  0.00  0.00    +0.000 A 
ATOM      9  C   UNL     1       5.617   5.022  15.585  0.00  0.00    +0.000 A 
ATOM     10 CL   UNL     1       6.745   4.866  14.292  0.00  0.00    +0.000 Cl
ATOM     11  C   UNL     1       5.214   6.300  15.985  0.00  0.00    +0.000 A 
ATOM     12  C   UNL     1       4.287   6.404  17.036  0.00  0.00    +0.000 A 
ATOM     13  C   UNL     1       3.626   7.473  17.693  0.00  0.00    +0.000 A 
ATOM     14  C   UNL     1       2.829   6.915  18.676  0.00  0.00    +0.000 A 
ATOM     15  O   UNL     1       2.961   5.553  18.651  0.00  0.00    +0.000 OA
ATOM     16  C   UNL     1       3.825   5.243  17.644  0.00  0.00    +0.000 A 
ENDBRANCH   1  14
BRANCH   4  17
ATOM     17  C   UNL     1      -0.196  10.313  20.663  0.00  0.00    +0.000 C 
ATOM     18  C   UNL     1      -1.126  10.601  19.500  0.00  0.00    +0.000 C 
ATOM     19  C   UNL     1      -0.328  11.553  18.631  0.00  0.00    +0.000 C 
ATOM     20  O   UNL     1       0.642  12.203  19.465  0.00  0.00    +0.000 OA
ATOM     21  C   UNL     1       0.593  11.617  20.785  0.00  0.00    +0.000 C 
BRANCH  21  22
ATOM     22  C   UNL     1      -0.078  12.627  21.674  0.00  0.00    +0.000 A 
ATOM     23  N   UNL     1      -1.211  12.448  22.332  0.00  0.00    +0.000 NA
ATOM     24  C   UNL     1      -1.441  13.612  23.015  0.00  0.00    +0.000 A 
ATOM     25  C   UNL     1      -0.442  14.520  22.776  0.00  0.00    +0.000 A 
ATOM     26  N   UNL     1       0.421  13.887  21.922  0.00  0.00    +0.000 N 
ATOM     27  C   UNL     1       1.633  14.461  21.390  0.00  0.00    +0.000 C 
ENDBRANCH  21  22
ENDBRANCH   4  17
TORSDOF 3
ENDMDL
MODEL 8
REMARK VINA RESULT:      -8.0      7.843     11.159
REMARK  Name = 
REMARK  5 active torsions:
REMARK  status: ('A' for Active; 'I' for Inactive)
REMARK    1  A    between atoms: C_1  and  C_2
REMARK    2  A    between atoms: C_9  and  C_10
REMARK    3  A    between atoms: C_13  and  C_14
REMARK    4  A    between atoms: C_18  and  C_19
REMARK    5  A    between atoms: N_23  and  C_24
REMARK                            x       y       z     vdW  Elec       q    Type
REMARK                         _______ _______ _______ _____ _____    ______ ____
ROOT
ATOM      1  C   UNL     1       0.990   8.880  21.145  0.00  0.00    +0.000 A 
ATOM      2  N   UNL     1       1.389   9.302  22.355  0.00  0.00    +0.000 NA
ATOM      3  O   UNL     1       0.532  10.362  22.629  0.00  0.00    +0.000 OA
ATOM      4  C   UNL     1      -0.311  10.470  21.562  0.00  0.00    +0.000 A 
ATOM      5  N   UNL     1      -0.055   9.598  20.613  0.00  0.00    +0.000 NA
ENDROOT
BRANCH   1  14
ATOM      6  C   UNL     1       1.852   3.448  21.243  0.00  0.00    +0.000 C 
ATOM      7  C   UNL     1       2.417   4.260  20.122  0.00  0.00    +0.000 A 
ATOM      8  C   UNL     1       3.142   3.669  19.069  0.00  0.00    +0.000 A 
ATOM      9  C   UNL     1       3.648   4.431  18.012  0.00  0.00    +0.000 A 
ATOM     10 CL   UNL     1       4.529   3.652  16.753  0.00  0.00    +0.000 Cl
ATOM     11  C   UNL     1       3.445   5.813  17.945  0.00  0.00    +0.000 A 
ATOM     12  C   UNL     1       2.717   6.427  18.978  0.00  0.00    +0.000 A 
ATOM     13  C   UNL     1       2.283   7.749  19.254  0.00  0.00    +0.000 A 
ATOM     14  C   UNL     1       1.605   7.709  20.460  0.00  0.00    +0.000 A 
ATOM     15  O   UNL     1       1.593   6.425  20.934  0.00  0.00    +0.000 OA
ATOM     16  C   UNL     1       2.246   5.646  20.026  0.00  0.00    +0.000 A 
ENDBRANCH   1  14
BRANCH   4  17
ATOM     17  C   UNL     1      -1.407  11.475  21.641  0.00  0.00    +0.000 C 
ATOM     18  C   UNL     1      -1.432  12.410  20.446  0.00  0.00    +0.000 C 
ATOM     19  C   UNL     1      -0.499  13.534  20.853  0.00  0.00    +0.000 C 
ATOM     20  O   UNL     1      -0.444  13.564  22.286  0.00  0.00    +0.000 OA
ATOM     21  C   UNL     1      -1.182  12.437  22.808  0.00  0.00    +0.000 C 
BRANCH  21  22
ATOM     22  C   UNL     1      -2.464  12.989  23.367  0.00  0.00    +0.000 A 
ATOM     23  N   UNL     1      -3.671  12.480  23.187  0.00  0.00    +0.000 NA
ATOM     24  C   UNL     1      -4.531  13.291  23.876  0.00  0.00    +0.000 A 
ATOM     25  C   UNL     1      -3.851  14.313  24.486  0.00  0.00    +0.000 A 
ATOM     26  N   UNL     1      -2.537  14.115  24.158  0.00  0.00    +0.000 N 
ATOM     27  C   UNL     1      -1.440  14.952  24.580  0.00  0.00    +0.000 C 
ENDBRANCH  21  22
ENDBRANCH   4  17
TORSDOF 3
ENDMDL
MODEL 9
REMARK VINA RESULT:      -8.0      6.845     10.539
REMARK  Name = 
REMARK  5 active torsions:
REMARK  status: ('A' for Active; 'I' for Inactive)
REMARK    1  A    between atoms: C_1  and  C_2
REMARK    2  A    between atoms: C_9  and  C_10
REMARK    3  A    between atoms: C_13  and  C_14
REMARK    4  A    between atoms: C_18  and  C_19
REMARK    5  A    between atoms: N_23  and  C_24
REMARK                            x       y       z     vdW  Elec       q    Type
REMARK                         _______ _______ _______ _____ _____    ______ ____
ROOT
ATOM      1  C   UNL     1       1.484   8.459  20.577  0.00  0.00    +0.000 A 
ATOM      2  N   UNL     1       1.151   8.562  21.873  0.00  0.00    +0.000 NA
ATOM      3  O   UNL     1       0.666   9.861  21.983  0.00  0.00    +0.000 OA
ATOM      4  C   UNL     1       0.742  10.413  20.738  0.00  0.00    +0.000 A 
ATOM      5  N   UNL     1       1.260   9.601  19.844  0.00  0.00    +0.000 NA
ENDROOT
BRANCH   1  14
ATOM      6  C   UNL     1       4.668   6.216  16.693  0.00  0.00    +0.000 C 
ATOM      7  C   UNL     1       3.930   5.325  17.640  0.00  0.00    +0.000 A 
ATOM      8  C   UNL     1       4.049   3.923  17.587  0.00  0.00    +0.000 A 
ATOM      9  C   UNL     1       3.375   3.097  18.491  0.00  0.00    +0.000 A 
ATOM     10 CL   UNL     1       3.558   1.389  18.375  0.00  0.00    +0.000 Cl
ATOM     11  C   UNL     1       2.561   3.627  19.498  0.00  0.00    +0.000 A 
ATOM     12  C   UNL     1       2.432   5.024  19.580  0.00  0.00    +0.000 A 
ATOM     13  C   UNL     1       1.754   5.923  20.442  0.00  0.00    +0.000 A 
ATOM     14  C   UNL     1       2.014   7.201  19.980  0.00  0.00    +0.000 A 
ATOM     15  O   UNL     1       2.826   7.133  18.882  0.00  0.00    +0.000 OA
ATOM     16  C   UNL     1       3.098   5.817  18.653  0.00  0.00    +0.000 A 
ENDBRANCH   1  14
BRANCH   4  17
ATOM     17  C   UNL     1       0.187  11.783  20.550  0.00  0.00    +0.000 C 
ATOM     18  C   UNL     1      -1.327  11.820  20.651  0.00  0.00    +0.000 C 
ATOM     19  C   UNL     1      -1.786  11.543  19.233  0.00  0.00    +0.000 C 
ATOM     20  O   UNL     1      -0.721  11.913  18.345  0.00  0.00    +0.000 OA
ATOM     21  C   UNL     1       0.435  12.282  19.127  0.00  0.00    +0.000 C 
BRANCH  21  22
ATOM     22  C   UNL     1       0.547  13.779  19.043  0.00  0.00    +0.000 A 
ATOM     23  N   UNL     1      -0.425  14.612  18.709  0.00  0.00    +0.000 NA
ATOM     24  C   UNL     1       0.113  15.868  18.772  0.00  0.00    +0.000 A 
ATOM     25  C   UNL     1       1.430  15.813  19.147  0.00  0.00    +0.000 A 
ATOM     26  N   UNL     1       1.699  14.483  19.317  0.00  0.00    +0.000 N 
ATOM     27  C   UNL     1       2.974  13.937  19.716  0.00  0.00    +0.000 C 
ENDBRANCH  21  22
ENDBRANCH   4  17
TORSDOF 3
ENDMDL
