MODEL 1
REMARK VINA RESULT:      -8.1      0.000      0.000
REMARK  Name = 
REMARK  5 active torsions:
REMARK  status: ('A' for Active; 'I' for Inactive)
REMARK    1  A    between atoms: C_1  and  N_2
REMARK    2  A    between atoms: C_3  and  C_5
REMARK    3  A    between atoms: C_9  and  S_10
REMARK    4  A    between atoms: S_10  and  N_13
REMARK    5  A    between atoms: C_21  and  O_22
REMARK                            x       y       z     vdW  Elec       q    Type
REMARK                         _______ _______ _______ _____ _____    ______ ____
ROOT
ATOM      1  C   UNL     1       1.208   9.337  19.778  0.00  0.00    +0.000 A 
ATOM      2  C   UNL     1       1.412  10.117  18.640  0.00  0.00    +0.000 A 
ATOM      3  C   UNL     1       2.092   9.598  17.545  0.00  0.00    +0.000 A 
ATOM      4  C   UNL     1       2.630   8.310  17.620  0.00  0.00    +0.000 A 
ATOM      5  C   UNL     1       2.611   7.567  18.810  0.00  0.00    +0.000 A 
ATOM      6  C   UNL     1       1.776   8.031  19.839  0.00  0.00    +0.000 A 
ENDROOT
BRANCH   1   9
ATOM      7  C   UNL     1      -1.502  10.468  19.003  0.00  0.00    +0.000 C 
ATOM      8  N   UNL     1      -0.909  10.571  20.330  0.00  0.00    +0.000 N 
ATOM      9  C   UNL     1       0.222   9.872  20.759  0.00  0.00    +0.000 C 
ATOM     10  O   UNL     1       0.520   9.708  21.941  0.00  0.00    +0.000 OA
ATOM     11  C   UNL     1      -1.275  11.715  21.091  0.00  0.00    +0.000 A 
ATOM     12  C   UNL     1      -1.292  11.679  22.484  0.00  0.00    +0.000 A 
ATOM     13  C   UNL     1      -1.328  12.871  23.199  0.00  0.00    +0.000 A 
ATOM     14  C   UNL     1      -1.357  14.064  22.507  0.00  0.00    +0.000 A 
ATOM     15  C   UNL     1      -1.425  14.021  21.125  0.00  0.00    +0.000 A 
ATOM     16  N   UNL     1      -1.428  12.872  20.409  0.00  0.00    +0.000 NA
ENDBRANCH   1   9
BRANCH   5  17
ATOM     17  S   UNL     1       3.486   5.940  19.031  0.00  0.00    +0.000 S 
ATOM     18  O   UNL     1       4.841   6.219  18.606  0.00  0.00    +0.000 OA
ATOM     19  O   UNL     1       3.267   5.522  20.404  0.00  0.00    +0.000 OA
BRANCH  17  20
ATOM     20  N   UNL     1       2.925   4.690  17.947  0.00  0.00    +0.000 NA
ATOM     21  C   UNL     1       1.479   4.471  17.772  0.00  0.00    +0.000 C 
ATOM     22  C   UNL     1       1.307   3.068  18.326  0.00  0.00    +0.000 C 
ATOM     23  C   UNL     1       1.793   2.971  19.791  0.00  0.00    +0.000 C 
ATOM     24  C   UNL     1       3.196   2.244  19.725  0.00  0.00    +0.000 C 
ATOM     25  C   UNL     1       2.736   1.195  18.722  0.00  0.00    +0.000 C 
ATOM     26  C   UNL     1       2.402   2.265  17.643  0.00  0.00    +0.000 C 
ATOM     27  C   UNL     1       3.570   3.348  17.658  0.00  0.00    +0.000 C 
ATOM     28  C   UNL     1       4.345   2.790  18.815  0.00  0.00    +0.000 C 
BRANCH  28  29
ATOM     29  O   UNL     1       5.314   3.653  19.311  0.00  0.00    +0.000 OA
ATOM     30  H   UNL     1       5.109   3.880  20.230  0.00  0.00    +0.000 HD
ENDBRANCH  28  29
ENDBRANCH  17  20
ENDBRANCH   5  17
TORSDOF 4
ENDMDL
MODEL 2
REMARK VINA RESULT:      -8.0      2.026      2.757
REMARK  Name = 
REMARK  5 active torsions:
REMARK  status: ('A' for Active; 'I' for Inactive)
REMARK    1  A    between atoms: C_1  and  N_2
REMARK    2  A    between atoms: C_3  and  C_5
REMARK    3  A    between atoms: C_9  and  S_10
REMARK    4  A    between atoms: S_10  and  N_13
REMARK    5  A    between atoms: C_21  and  O_22
REMARK                            x       y       z     vdW  Elec       q    Type
REMARK                         _______ _______ _______ _____ _____    ______ ____
ROOT
ATOM      1  C   UNL     1       0.669   9.790  19.612  0.00  0.00    +0.000 A 
ATOM      2  C   UNL     1       0.319   9.614  20.951  0.00  0.00    +0.000 A 
ATOM      3  C   UNL     1       0.868   8.572  21.689  0.00  0.00    +0.000 A 
ATOM      4  C   UNL     1       1.721   7.661  21.060  0.00  0.00    +0.000 A 
ATOM      5  C   UNL     1       1.948   7.692  19.676  0.00  0.00    +0.000 A 
ATOM      6  C   UNL     1       1.531   8.842  18.986  0.00  0.00    +0.000 A 
ENDROOT
BRANCH   1   9
ATOM      7  C   UNL     1       2.564  11.579  18.052  0.00  0.00    +0.000 C 
ATOM      8  N   UNL     1       1.229  11.966  18.489  0.00  0.00    +0.000 N 
ATOM      9  C   UNL     1       0.270  11.091  19.005  0.00  0.00    +0.000 C 
ATOM     10  O   UNL     1      -0.932  11.347  19.063  0.00  0.00    +0.000 OA
ATOM     11  C   UNL     1       1.034  13.350  18.752  0.00  0.00    +0.000 A 
ATOM     12  C   UNL     1      -0.218  13.943  18.600  0.00  0.00    +0.000 A 
ATOM     13  C   UNL     1      -0.457  15.189  19.168  0.00  0.00    +0.000 A 
ATOM     14  C   UNL     1       0.558  15.814  19.860  0.00  0.00    +0.000 A 
ATOM     15  C   UNL     1       1.801  15.205  19.897  0.00  0.00    +0.000 A 
ATOM     16  N   UNL     1       2.068  14.009  19.321  0.00  0.00    +0.000 NA
ENDBRANCH   1   9
BRANCH   5  17
ATOM     17  S   UNL     1       2.905   6.391  18.752  0.00  0.00    +0.000 S 
ATOM     18  O   UNL     1       3.123   6.985  17.451  0.00  0.00    +0.000 OA
ATOM     19  O   UNL     1       4.064   6.061  19.561  0.00  0.00    +0.000 OA
BRANCH  17  20
ATOM     20  N   UNL     1       1.986   4.940  18.433  0.00  0.00    +0.000 NA
ATOM     21  C   UNL     1       1.205   4.318  19.516  0.00  0.00    +0.000 C 
ATOM     22  C   UNL     1       1.903   2.980  19.676  0.00  0.00    +0.000 C 
ATOM     23  C   UNL     1       3.406   3.156  19.996  0.00  0.00    +0.000 C 
ATOM     24  C   UNL     1       4.168   2.838  18.646  0.00  0.00    +0.000 C 
ATOM     25  C   UNL     1       3.321   1.615  18.322  0.00  0.00    +0.000 C 
ATOM     26  C   UNL     1       2.008   2.447  18.257  0.00  0.00    +0.000 C 
ATOM     27  C   UNL     1       2.334   3.804  17.490  0.00  0.00    +0.000 C 
ATOM     28  C   UNL     1       3.810   3.590  17.322  0.00  0.00    +0.000 C 
BRANCH  28  29
ATOM     29  O   UNL     1       4.501   4.727  16.926  0.00  0.00    +0.000 OA
ATOM     30  H   UNL     1       4.933   5.130  17.693  0.00  0.00    +0.000 HD
ENDBRANCH  28  29
ENDBRANCH  17  20
ENDBRANCH   5  17
TORSDOF 4
ENDMDL
MODEL 3
REMARK VINA RESULT:      -7.9      2.936      9.146
REMARK  Name = 
REMARK  5 active torsions:
REMARK  status: ('A' for Active; 'I' for Inactive)
REMARK    1  A    between atoms: C_1  and  N_2
REMARK    2  A    between atoms: C_3  and  C_5
REMARK    3  A    between atoms: C_9  and  S_10
REMARK    4  A    between atoms: S_10  and  N_13
REMARK    5  A    between atoms: C_21  and  O_22
REMARK                            x       y       z     vdW  Elec       q    Type
REMARK                         _______ _______ _______ _____ _____    ______ ____
ROOT
ATOM      1  C   UNL     1       3.045   5.936  18.898  0.00  0.00    +0.000 A 
ATOM      2  C   UNL     1       2.636   5.472  20.148  0.00  0.00    +0.000 A 
ATOM      3  C   UNL     1       1.732   6.205  20.908  0.00  0.00    +0.000 A 
ATOM      4  C   UNL     1       1.289   7.444  20.440  0.00  0.00    +0.000 A 
ATOM      5  C   UNL     1       1.819   8.032  19.280  0.00  0.00    +0.000 A 
ATOM      6  C   UNL     1       2.591   7.209  18.444  0.00  0.00    +0.000 A 
ENDROOT
BRANCH   1   9
ATOM      7  C   UNL     1       5.977   5.226  19.249  0.00  0.00    +0.000 C 
ATOM      8  N   UNL     1       5.157   4.823  18.115  0.00  0.00    +0.000 N 
ATOM      9  C   UNL     1       3.766   4.949  18.046  0.00  0.00    +0.000 C 
ATOM     10  O   UNL     1       3.059   4.326  17.256  0.00  0.00    +0.000 OA
ATOM     11  C   UNL     1       5.840   4.646  16.880  0.00  0.00    +0.000 A 
ATOM     12  C   UNL     1       5.371   3.751  15.919  0.00  0.00    +0.000 A 
ATOM     13  C   UNL     1       5.851   3.834  14.617  0.00  0.00    +0.000 A 
ATOM     14  C   UNL     1       6.790   4.796  14.311  0.00  0.00    +0.000 A 
ATOM     15  C   UNL     1       7.273   5.593  15.335  0.00  0.00    +0.000 A 
ATOM     16  N   UNL     1       6.847   5.508  16.617  0.00  0.00    +0.000 NA
ENDBRANCH   1   9
BRANCH   5  17
ATOM     17  S   UNL     1       1.422   9.760  18.719  0.00  0.00    +0.000 S 
ATOM     18  O   UNL     1       2.673  10.239  18.172  0.00  0.00    +0.000 OA
ATOM     19  O   UNL     1       0.276   9.667  17.833  0.00  0.00    +0.000 OA
BRANCH  17  20
ATOM     20  N   UNL     1       1.057  10.856  20.029  0.00  0.00    +0.000 NA
ATOM     21  C   UNL     1      -0.014  10.521  20.983  0.00  0.00    +0.000 C 
ATOM     22  C   UNL     1      -1.018  11.630  20.728  0.00  0.00    +0.000 C 
ATOM     23  C   UNL     1      -1.470  11.661  19.249  0.00  0.00    +0.000 C 
ATOM     24  C   UNL     1      -0.699  12.877  18.594  0.00  0.00    +0.000 C 
ATOM     25  C   UNL     1      -0.949  13.816  19.766  0.00  0.00    +0.000 C 
ATOM     26  C   UNL     1      -0.182  12.899  20.763  0.00  0.00    +0.000 C 
ATOM     27  C   UNL     1       1.126  12.372  20.024  0.00  0.00    +0.000 C 
ATOM     28  C   UNL     1       0.859  12.984  18.680  0.00  0.00    +0.000 C 
BRANCH  28  29
ATOM     29  O   UNL     1       1.675  12.496  17.668  0.00  0.00    +0.000 OA
ATOM     30  H   UNL     1       2.307  13.179  17.401  0.00  0.00    +0.000 HD
ENDBRANCH  28  29
ENDBRANCH  17  20
ENDBRANCH   5  17
TORSDOF 4
ENDMDL
MODEL 4
REMARK VINA RESULT:      -7.6      2.850      4.167
REMARK  Name = 
REMARK  5 active torsions:
REMARK  status: ('A' for Active; 'I' for Inactive)
REMARK    1  A    between atoms: C_1  and  N_2
REMARK    2  A    between atoms: C_3  and  C_5
REMARK    3  A    between atoms: C_9  and  S_10
REMARK    4  A    between atoms: S_10  and  N_13
REMARK    5  A    between atoms: C_21  and  O_22
REMARK                            x       y       z     vdW  Elec       q    Type
REMARK                         _______ _______ _______ _____ _____    ______ ____
ROOT
ATOM      1  C   UNL     1       1.861   7.199  20.031  0.00  0.00    +0.000 A 
ATOM      2  C   UNL     1       1.042   6.211  20.579  0.00  0.00    +0.000 A 
ATOM      3  C   UNL     1       1.535   4.930  20.793  0.00  0.00    +0.000 A 
ATOM      4  C   UNL     1       2.836   4.619  20.390  0.00  0.00    +0.000 A 
ATOM      5  C   UNL     1       3.625   5.527  19.665  0.00  0.00    +0.000 A 
ATOM      6  C   UNL     1       3.181   6.859  19.615  0.00  0.00    +0.000 A 
ENDROOT
BRANCH   1   9
ATOM      7  C   UNL     1       0.716   8.736  17.675  0.00  0.00    +0.000 C 
ATOM      8  N   UNL     1       1.030   9.320  18.973  0.00  0.00    +0.000 N 
ATOM      9  C   UNL     1       1.342   8.593  20.124  0.00  0.00    +0.000 C 
ATOM     10  O   UNL     1       1.283   9.053  21.264  0.00  0.00    +0.000 OA
ATOM     11  C   UNL     1       1.402  10.692  18.967  0.00  0.00    +0.000 A 
ATOM     12  C   UNL     1       1.164  11.508  20.072  0.00  0.00    +0.000 A 
ATOM     13  C   UNL     1       1.819  12.731  20.172  0.00  0.00    +0.000 A 
ATOM     14  C   UNL     1       2.683  13.110  19.167  0.00  0.00    +0.000 A 
ATOM     15  C   UNL     1       2.805  12.289  18.059  0.00  0.00    +0.000 A 
ATOM     16  N   UNL     1       2.150  11.112  17.922  0.00  0.00    +0.000 NA
ENDBRANCH   1   9
BRANCH   5  17
ATOM     17  S   UNL     1       5.279   5.105  18.927  0.00  0.00    +0.000 S 
ATOM     18  O   UNL     1       6.223   5.508  19.947  0.00  0.00    +0.000 OA
ATOM     19  O   UNL     1       5.231   3.705  18.549  0.00  0.00    +0.000 OA
BRANCH  17  20
ATOM     20  N   UNL     1       5.690   6.071  17.531  0.00  0.00    +0.000 NA
ATOM     21  C   UNL     1       4.629   6.504  16.605  0.00  0.00    +0.000 C 
ATOM     22  C   UNL     1       5.015   5.784  15.327  0.00  0.00    +0.000 C 
ATOM     23  C   UNL     1       5.091   4.253  15.536  0.00  0.00    +0.000 C 
ATOM     24  C   UNL     1       6.634   3.911  15.615  0.00  0.00    +0.000 C 
ATOM     25  C   UNL     1       7.011   4.810  14.445  0.00  0.00    +0.000 C 
ATOM     26  C   UNL     1       6.495   6.090  15.164  0.00  0.00    +0.000 C 
ATOM     27  C   UNL     1       6.950   6.004  16.688  0.00  0.00    +0.000 C 
ATOM     28  C   UNL     1       7.569   4.638  16.636  0.00  0.00    +0.000 C 
BRANCH  28  29
ATOM     29  O   UNL     1       7.838   4.095  17.886  0.00  0.00    +0.000 OA
ATOM     30  H   UNL     1       7.111   3.514  18.152  0.00  0.00    +0.000 HD
ENDBRANCH  28  29
ENDBRANCH  17  20
ENDBRANCH   5  17
TORSDOF 4
ENDMDL
MODEL 5
REMARK VINA RESULT:      -7.4      1.369      1.726
REMARK  Name = 
REMARK  5 active torsions:
REMARK  status: ('A' for Active; 'I' for Inactive)
REMARK    1  A    between atoms: C_1  and  N_2
REMARK    2  A    between atoms: C_3  and  C_5
REMARK    3  A    between atoms: C_9  and  S_10
REMARK    4  A    between atoms: S_10  and  N_13
REMARK    5  A    between atoms: C_21  and  O_22
REMARK                            x       y       z     vdW  Elec       q    Type
REMARK                         _______ _______ _______ _____ _____    ______ ____
ROOT
ATOM      1  C   UNL     1       1.127   9.623  20.051  0.00  0.00    +0.000 A 
ATOM      2  C   UNL     1       1.576  10.099  18.818  0.00  0.00    +0.000 A 
ATOM      3  C   UNL     1       2.046   9.217  17.853  0.00  0.00    +0.000 A 
ATOM      4  C   UNL     1       2.132   7.855  18.153  0.00  0.00    +0.000 A 
ATOM      5  C   UNL     1       1.870   7.361  19.441  0.00  0.00    +0.000 A 
ATOM      6  C   UNL     1       1.235   8.231  20.341  0.00  0.00    +0.000 A 
ENDROOT
BRANCH   1   9
ATOM      7  C   UNL     1      -1.481  10.918  19.188  0.00  0.00    +0.000 C 
ATOM      8  N   UNL     1      -0.700  11.320  20.350  0.00  0.00    +0.000 N 
ATOM      9  C   UNL     1       0.372  10.599  20.884  0.00  0.00    +0.000 C 
ATOM     10  O   UNL     1       0.806  10.759  22.024  0.00  0.00    +0.000 OA
ATOM     11  C   UNL     1      -0.793  12.689  20.723  0.00  0.00    +0.000 A 
ATOM     12  C   UNL     1      -0.620  13.089  22.047  0.00  0.00    +0.000 A 
ATOM     13  C   UNL     1      -0.389  14.430  22.332  0.00  0.00    +0.000 A 
ATOM     14  C   UNL     1      -0.349  15.336  21.293  0.00  0.00    +0.000 A 
ATOM     15  C   UNL     1      -0.615  14.881  20.013  0.00  0.00    +0.000 A 
ATOM     16  N   UNL     1      -0.877  13.586  19.716  0.00  0.00    +0.000 NA
ENDBRANCH   1   9
BRANCH   5  17
ATOM     17  S   UNL     1       2.161   5.596  19.954  0.00  0.00    +0.000 S 
ATOM     18  O   UNL     1       2.572   5.706  21.338  0.00  0.00    +0.000 OA
ATOM     19  O   UNL     1       0.948   4.860  19.654  0.00  0.00    +0.000 OA
BRANCH  17  20
ATOM     20  N   UNL     1       3.514   4.845  19.144  0.00  0.00    +0.000 NA
ATOM     21  C   UNL     1       3.657   4.981  17.684  0.00  0.00    +0.000 C 
ATOM     22  C   UNL     1       3.503   3.545  17.220  0.00  0.00    +0.000 C 
ATOM     23  C   UNL     1       2.154   2.940  17.673  0.00  0.00    +0.000 C 
ATOM     24  C   UNL     1       2.501   1.993  18.892  0.00  0.00    +0.000 C 
ATOM     25  C   UNL     1       3.726   1.387  18.222  0.00  0.00    +0.000 C 
ATOM     26  C   UNL     1       4.445   2.763  18.121  0.00  0.00    +0.000 C 
ATOM     27  C   UNL     1       4.200   3.537  19.491  0.00  0.00    +0.000 C 
ATOM     28  C   UNL     1       3.290   2.530  20.131  0.00  0.00    +0.000 C 
BRANCH  28  29
ATOM     29  O   UNL     1       2.633   3.003  21.259  0.00  0.00    +0.000 OA
ATOM     30  H   UNL     1       3.206   3.622  21.734  0.00  0.00    +0.000 HD
ENDBRANCH  28  29
ENDBRANCH  17  20
ENDBRANCH   5  17
TORSDOF 4
ENDMDL
MODEL 6
REMARK VINA RESULT:      -7.4      1.947      9.160
REMARK  Name = 
REMARK  5 active torsions:
REMARK  status: ('A' for Active; 'I' for Inactive)
REMARK    1  A    between atoms: C_1  and  N_2
REMARK    2  A    between atoms: C_3  and  C_5
REMARK    3  A    between atoms: C_9  and  S_10
REMARK    4  A    between atoms: S_10  and  N_13
REMARK    5  A    between atoms: C_21  and  O_22
REMARK                            x       y       z     vdW  Elec       q    Type
REMARK                         _______ _______ _______ _____ _____    ______ ____
ROOT
ATOM      1  C   UNL     1       1.964   7.330  19.594  0.00  0.00    +0.000 A 
ATOM      2  C   UNL     1       2.143   7.617  18.241  0.00  0.00    +0.000 A 
ATOM      3  C   UNL     1       2.010   8.920  17.775  0.00  0.00    +0.000 A 
ATOM      4  C   UNL     1       1.628   9.929  18.662  0.00  0.00    +0.000 A 
ATOM      5  C   UNL     1       1.255   9.651  19.987  0.00  0.00    +0.000 A 
ATOM      6  C   UNL     1       1.561   8.373  20.480  0.00  0.00    +0.000 A 
ENDROOT
BRANCH   1   9
ATOM      7  C   UNL     1       4.746   6.233  19.071  0.00  0.00    +0.000 C 
ATOM      8  N   UNL     1       3.629   5.450  19.581  0.00  0.00    +0.000 N 
ATOM      9  C   UNL     1       2.419   5.982  20.035  0.00  0.00    +0.000 C 
ATOM     10  O   UNL     1       1.627   5.372  20.753  0.00  0.00    +0.000 OA
ATOM     11  C   UNL     1       3.631   4.068  19.249  0.00  0.00    +0.000 A 
ATOM     12  C   UNL     1       3.030   3.125  20.081  0.00  0.00    +0.000 A 
ATOM     13  C   UNL     1       2.756   1.854  19.589  0.00  0.00    +0.000 A 
ATOM     14  C   UNL     1       3.098   1.554  18.288  0.00  0.00    +0.000 A 
ATOM     15  C   UNL     1       3.770   2.511  17.547  0.00  0.00    +0.000 A 
ATOM     16  N   UNL     1       4.079   3.743  18.016  0.00  0.00    +0.000 NA
ENDBRANCH   1   9
BRANCH   5  17
ATOM     17  S   UNL     1       0.545  10.915  21.152  0.00  0.00    +0.000 S 
ATOM     18  O   UNL     1       0.520  10.231  22.427  0.00  0.00    +0.000 OA
ATOM     19  O   UNL     1       1.358  12.111  21.030  0.00  0.00    +0.000 OA
BRANCH  17  20
ATOM     20  N   UNL     1      -1.124  11.311  20.824  0.00  0.00    +0.000 NA
ATOM     21  C   UNL     1      -1.587  11.426  19.430  0.00  0.00    +0.000 C 
ATOM     22  C   UNL     1      -1.971  12.892  19.348  0.00  0.00    +0.000 C 
ATOM     23  C   UNL     1      -0.780  13.814  19.702  0.00  0.00    +0.000 C 
ATOM     24  C   UNL     1      -1.063  14.327  21.172  0.00  0.00    +0.000 C 
ATOM     25  C   UNL     1      -2.538  14.604  20.915  0.00  0.00    +0.000 C 
ATOM     26  C   UNL     1      -2.837  13.115  20.577  0.00  0.00    +0.000 C 
ATOM     27  C   UNL     1      -2.044  12.214  21.624  0.00  0.00    +0.000 C 
ATOM     28  C   UNL     1      -1.327  13.322  22.340  0.00  0.00    +0.000 C 
BRANCH  28  29
ATOM     29  O   UNL     1      -0.300  12.885  23.166  0.00  0.00    +0.000 OA
ATOM     30  H   UNL     1      -0.671  12.511  23.979  0.00  0.00    +0.000 HD
ENDBRANCH  28  29
ENDBRANCH  17  20
ENDBRANCH   5  17
TORSDOF 4
ENDMDL
MODEL 7
REMARK VINA RESULT:      -7.3      1.945      2.876
REMARK  Name = 
REMARK  5 active torsions:
REMARK  status: ('A' for Active; 'I' for Inactive)
REMARK    1  A    between atoms: C_1  and  N_2
REMARK    2  A    between atoms: C_3  and  C_5
REMARK    3  A    between atoms: C_9  and  S_10
REMARK    4  A    between atoms: S_10  and  N_13
REMARK    5  A    between atoms: C_21  and  O_22
REMARK                            x       y       z     vdW  Elec       q    Type
REMARK                         _______ _______ _______ _____ _____    ______ ____
ROOT
ATOM      1  C   UNL     1       0.166   9.204  19.060  0.00  0.00    +0.000 A 
ATOM      2  C   UNL     1       0.102   9.417  20.437  0.00  0.00    +0.000 A 
ATOM      3  C   UNL     1       1.047   8.848  21.281  0.00  0.00    +0.000 A 
ATOM      4  C   UNL     1       2.024   8.004  20.746  0.00  0.00    +0.000 A 
ATOM      5  C   UNL     1       2.010   7.614  19.398  0.00  0.00    +0.000 A 
ATOM      6  C   UNL     1       1.163   8.329  18.536  0.00  0.00    +0.000 A 
ENDROOT
BRANCH   1   9
ATOM      7  C   UNL     1      -0.320  12.140  19.663  0.00  0.00    +0.000 C 
ATOM      8  N   UNL     1      -1.053  11.365  18.671  0.00  0.00    +0.000 N 
ATOM      9  C   UNL     1      -0.696  10.089  18.228  0.00  0.00    +0.000 C 
ATOM     10  O   UNL     1      -1.108   9.585  17.183  0.00  0.00    +0.000 OA
ATOM     11  C   UNL     1      -2.394  11.770  18.427  0.00  0.00    +0.000 A 
ATOM     12  C   UNL     1      -2.997  11.559  17.188  0.00  0.00    +0.000 A 
ATOM     13  C   UNL     1      -4.379  11.656  17.075  0.00  0.00    +0.000 A 
ATOM     14  C   UNL     1      -5.120  11.972  18.194  0.00  0.00    +0.000 A 
ATOM     15  C   UNL     1      -4.447  12.253  19.371  0.00  0.00    +0.000 A 
ATOM     16  N   UNL     1      -3.101  12.199  19.497  0.00  0.00    +0.000 NA
ENDBRANCH   1   9
BRANCH   5  17
ATOM     17  S   UNL     1       3.155   6.338  18.675  0.00  0.00    +0.000 S 
ATOM     18  O   UNL     1       3.694   6.989  17.501  0.00  0.00    +0.000 OA
ATOM     19  O   UNL     1       4.074   5.947  19.727  0.00  0.00    +0.000 OA
BRANCH  17  20
ATOM     20  N   UNL     1       2.333   4.924  18.065  0.00  0.00    +0.000 NA
ATOM     21  C   UNL     1       1.223   4.336  18.835  0.00  0.00    +0.000 C 
ATOM     22  C   UNL     1       1.782   2.972  19.198  0.00  0.00    +0.000 C 
ATOM     23  C   UNL     1       3.109   3.091  19.983  0.00  0.00    +0.000 C 
ATOM     24  C   UNL     1       4.250   2.739  18.945  0.00  0.00    +0.000 C 
ATOM     25  C   UNL     1       3.506   1.548  18.355  0.00  0.00    +0.000 C 
ATOM     26  C   UNL     1       2.315   2.431  17.881  0.00  0.00    +0.000 C 
ATOM     27  C   UNL     1       2.921   3.772  17.272  0.00  0.00    +0.000 C 
ATOM     28  C   UNL     1       4.364   3.500  17.583  0.00  0.00    +0.000 C 
BRANCH  28  29
ATOM     29  O   UNL     1       5.188   4.608  17.440  0.00  0.00    +0.000 OA
ATOM     30  H   UNL     1       6.081   4.393  17.744  0.00  0.00    +0.000 HD
ENDBRANCH  28  29
ENDBRANCH  17  20
ENDBRANCH   5  17
TORSDOF 4
ENDMDL
MODEL 8
REMARK VINA RESULT:      -7.3      1.722      2.527
REMARK  Name = 
REMARK  5 active torsions:
REMARK  status: ('A' for Active; 'I' for Inactive)
REMARK    1  A    between atoms: C_1  and  N_2
REMARK    2  A    between atoms: C_3  and  C_5
REMARK    3  A    between atoms: C_9  and  S_10
REMARK    4  A    between atoms: S_10  and  N_13
REMARK    5  A    between atoms: C_21  and  O_22
REMARK                            x       y       z     vdW  Elec       q    Type
REMARK                         _______ _______ _______ _____ _____    ______ ____
ROOT
ATOM      1  C   UNL     1       1.104   9.760  19.930  0.00  0.00    +0.000 A 
ATOM      2  C   UNL     1       1.398  10.609  18.862  0.00  0.00    +0.000 A 
ATOM      3  C   UNL     1       1.989  10.108  17.709  0.00  0.00    +0.000 A 
ATOM      4  C   UNL     1       2.351   8.759  17.654  0.00  0.00    +0.000 A 
ATOM      5  C   UNL     1       2.246   7.917  18.772  0.00  0.00    +0.000 A 
ATOM      6  C   UNL     1       1.493   8.390  19.859  0.00  0.00    +0.000 A 
ENDROOT
BRANCH   1   9
ATOM      7  C   UNL     1      -1.724  10.728  19.395  0.00  0.00    +0.000 C 
ATOM      8  N   UNL     1      -0.993  10.950  20.635  0.00  0.00    +0.000 N 
ATOM      9  C   UNL     1       0.210  10.326  20.978  0.00  0.00    +0.000 C 
ATOM     10  O   UNL     1       0.645  10.261  22.127  0.00  0.00    +0.000 OA
ATOM     11  C   UNL     1      -1.324  12.131  21.353  0.00  0.00    +0.000 A 
ATOM     12  C   UNL     1      -1.184  12.196  22.739  0.00  0.00    +0.000 A 
ATOM     13  C   UNL     1      -1.194  13.435  23.370  0.00  0.00    +0.000 A 
ATOM     14  C   UNL     1      -1.355  14.571  22.607  0.00  0.00    +0.000 A 
ATOM     15  C   UNL     1      -1.575  14.426  21.247  0.00  0.00    +0.000 A 
ATOM     16  N   UNL     1      -1.604  13.229  20.616  0.00  0.00    +0.000 NA
ENDBRANCH   1   9
BRANCH   5  17
ATOM     17  S   UNL     1       2.897   6.175  18.823  0.00  0.00    +0.000 S 
ATOM     18  O   UNL     1       2.660   5.761  20.189  0.00  0.00    +0.000 OA
ATOM     19  O   UNL     1       2.237   5.443  17.758  0.00  0.00    +0.000 OA
BRANCH  17  20
ATOM     20  N   UNL     1       4.628   6.068  18.618  0.00  0.00    +0.000 NA
ATOM     21  C   UNL     1       5.321   7.033  17.746  0.00  0.00    +0.000 C 
ATOM     22  C   UNL     1       5.855   6.133  16.647  0.00  0.00    +0.000 C 
ATOM     23  C   UNL     1       4.719   5.347  15.951  0.00  0.00    +0.000 C 
ATOM     24  C   UNL     1       4.807   3.875  16.524  0.00  0.00    +0.000 C 
ATOM     25  C   UNL     1       6.325   3.801  16.418  0.00  0.00    +0.000 C 
ATOM     26  C   UNL     1       6.527   4.994  17.397  0.00  0.00    +0.000 C 
ATOM     27  C   UNL     1       5.489   4.819  18.592  0.00  0.00    +0.000 C 
ATOM     28  C   UNL     1       4.778   3.607  18.065  0.00  0.00    +0.000 C 
BRANCH  28  29
ATOM     29  O   UNL     1       3.592   3.319  18.727  0.00  0.00    +0.000 OA
ATOM     30  H   UNL     1       3.727   3.391  19.683  0.00  0.00    +0.000 HD
ENDBRANCH  28  29
ENDBRANCH  17  20
ENDBRANCH   5  17
TORSDOF 4
ENDMDL
MODEL 9
REMARK VINA RESULT:      -7.2      2.292      3.051
REMARK  Name = 
REMARK  5 active torsions:
REMARK  status: ('A' for Active; 'I' for Inactive)
REMARK    1  A    between atoms: C_1  and  N_2
REMARK    2  A    between atoms: C_3  and  C_5
REMARK    3  A    between atoms: C_9  and  S_10
REMARK    4  A    between atoms: S_10  and  N_13
REMARK    5  A    between atoms: C_21  and  O_22
REMARK                            x       y       z     vdW  Elec       q    Type
REMARK                         _______ _______ _______ _____ _____    ______ ____
ROOT
ATOM      1  C   UNL     1       0.759   9.808  20.641  0.00  0.00    +0.000 A 
ATOM      2  C   UNL     1      -0.089   9.269  21.608  0.00  0.00    +0.000 A 
ATOM      3  C   UNL     1      -0.019   7.920  21.932  0.00  0.00    +0.000 A 
ATOM      4  C   UNL     1       0.861   7.092  21.231  0.00  0.00    +0.000 A 
ATOM      5  C   UNL     1       1.592   7.553  20.126  0.00  0.00    +0.000 A 
ATOM      6  C   UNL     1       1.641   8.943  19.928  0.00  0.00    +0.000 A 
ENDROOT
BRANCH   1   9
ATOM      7  C   UNL     1      -0.029  11.438  18.203  0.00  0.00    +0.000 C 
ATOM      8  N   UNL     1       0.647  11.975  19.376  0.00  0.00    +0.000 N 
ATOM      9  C   UNL     1       0.815  11.295  20.585  0.00  0.00    +0.000 C 
ATOM     10  O   UNL     1       1.082  11.848  21.652  0.00  0.00    +0.000 OA
ATOM     11  C   UNL     1       1.500  13.089  19.150  0.00  0.00    +0.000 A 
ATOM     12  C   UNL     1       1.731  14.035  20.148  0.00  0.00    +0.000 A 
ATOM     13  C   UNL     1       2.802  14.913  20.024  0.00  0.00    +0.000 A 
ATOM     14  C   UNL     1       3.605  14.833  18.906  0.00  0.00    +0.000 A 
ATOM     15  C   UNL     1       3.265  13.927  17.915  0.00  0.00    +0.000 A 
ATOM     16  N   UNL     1       2.207  13.087  17.997  0.00  0.00    +0.000 NA
ENDBRANCH   1   9
BRANCH   5  17
ATOM     17  S   UNL     1       2.620   6.456  19.030  0.00  0.00    +0.000 S 
ATOM     18  O   UNL     1       2.723   7.204  17.796  0.00  0.00    +0.000 OA
ATOM     19  O   UNL     1       3.841   6.154  19.755  0.00  0.00    +0.000 OA
BRANCH  17  20
ATOM     20  N   UNL     1       1.824   4.966  18.586  0.00  0.00    +0.000 NA
ATOM     21  C   UNL     1       1.149   4.163  19.620  0.00  0.00    +0.000 C 
ATOM     22  C   UNL     1       1.972   2.888  19.612  0.00  0.00    +0.000 C 
ATOM     23  C   UNL     1       3.465   3.171  19.900  0.00  0.00    +0.000 C 
ATOM     24  C   UNL     1       4.194   3.070  18.500  0.00  0.00    +0.000 C 
ATOM     25  C   UNL     1       3.449   1.812  18.073  0.00  0.00    +0.000 C 
ATOM     26  C   UNL     1       2.064   2.519  18.140  0.00  0.00    +0.000 C 
ATOM     27  C   UNL     1       2.233   3.973  17.515  0.00  0.00    +0.000 C 
ATOM     28  C   UNL     1       3.714   3.919  17.277  0.00  0.00    +0.000 C 
BRANCH  28  29
ATOM     29  O   UNL     1       4.282   5.151  16.984  0.00  0.00    +0.000 OA
ATOM     30  H   UNL     1       4.709   5.116  16.115  0.00  0.00    +0.000 HD
ENDBRANCH  28  29
ENDBRANCH  17  20
ENDBRANCH   5  17
TORSDOF 4
ENDMDL
