MODEL 1
REMARK VINA RESULT:      -8.7      0.000      0.000
REMARK  Name = 
REMARK  4 active torsions:
REMARK  status: ('A' for Active; 'I' for Inactive)
REMARK    1  A    between atoms: C_2  and  C_15
REMARK    2  A    between atoms: N_3  and  C_4
REMARK    3  A    between atoms: C_17  and  C_18
REMARK    4  A    between atoms: N_22  and  C_23
REMARK                            x       y       z     vdW  Elec       q    Type
REMARK                         _______ _______ _______ _____ _____    ______ ____
ROOT
ATOM      1  O   UNL     1       1.418   8.426  17.957  0.00  0.00    +0.000 OA
ATOM      2  C   UNL     1       2.145   7.762  18.692  0.00  0.00    +0.000 C 
ATOM      3  N   UNL     1       2.118   7.801  20.078  0.00  0.00    +0.000 N 
ATOM      4  H   UNL     1       2.837   7.284  20.565  0.00  0.00    +0.000 HD
ENDROOT
BRANCH   3   5
ATOM      5  C   UNL     1       1.280   8.623  20.869  0.00  0.00    +0.000 A 
ATOM      6  C   UNL     1       0.266   8.113  21.687  0.00  0.00    +0.000 A 
ATOM      7  C   UNL     1      -0.548   8.961  22.437  0.00  0.00    +0.000 A 
ATOM      8  C   UNL     1      -0.379  10.335  22.352  0.00  0.00    +0.000 A 
ATOM      9  C   UNL     1       0.621  10.867  21.538  0.00  0.00    +0.000 A 
ATOM     10  C   UNL     1       1.473  10.012  20.825  0.00  0.00    +0.000 A 
ATOM     11  O   UNL     1       0.864  12.213  21.456  0.00  0.00    +0.000 OA
ATOM     12  C   UNL     1      -0.258  12.933  20.933  0.00  0.00    +0.000 C 
ATOM     13  C   UNL     1      -1.334  13.212  21.976  0.00  0.00    +0.000 C 
ATOM     14  C   UNL     1      -2.039  11.935  22.404  0.00  0.00    +0.000 C 
ATOM     15  O   UNL     1      -1.171  11.098  23.163  0.00  0.00    +0.000 OA
ENDBRANCH   3   5
BRANCH   2  16
ATOM     16  C   UNL     1       3.154   6.896  18.140  0.00  0.00    +0.000 A 
ATOM     17  C   UNL     1       4.143   7.181  17.215  0.00  0.00    +0.000 A 
ATOM     18  C   UNL     1       4.942   6.031  17.174  0.00  0.00    +0.000 A 
ATOM     19  N   UNL     1       4.548   5.104  18.042  0.00  0.00    +0.000 NA
ATOM     20  N   UNL     1       3.380   5.586  18.551  0.00  0.00    +0.000 N 
BRANCH  20  21
ATOM     21  C   UNL     1       2.535   4.706  19.290  0.00  0.00    +0.000 A 
ATOM     22  C   UNL     1       2.737   4.555  20.670  0.00  0.00    +0.000 A 
ATOM     23  C   UNL     1       1.937   3.677  21.406  0.00  0.00    +0.000 A 
ATOM     24  C   UNL     1       0.953   2.924  20.767  0.00  0.00    +0.000 A 
ATOM     25  C   UNL     1       0.760   3.054  19.394  0.00  0.00    +0.000 A 
ATOM     26  C   UNL     1       1.543   3.945  18.655  0.00  0.00    +0.000 A 
ENDBRANCH  20  21
BRANCH  18  27
ATOM     27  C   UNL     1       6.123   5.868  16.228  0.00  0.00    +0.000 C 
ATOM     28  C   UNL     1       5.891   5.080  14.951  0.00  0.00    +0.000 C 
ATOM     29  C   UNL     1       6.747   4.505  16.026  0.00  0.00    +0.000 C 
ENDBRANCH  18  27
ENDBRANCH   2  16
TORSDOF 4
ENDMDL
MODEL 2
REMARK VINA RESULT:      -8.7      2.261      2.679
REMARK  Name = 
REMARK  4 active torsions:
REMARK  status: ('A' for Active; 'I' for Inactive)
REMARK    1  A    between atoms: C_2  and  C_15
REMARK    2  A    between atoms: N_3  and  C_4
REMARK    3  A    between atoms: C_17  and  C_18
REMARK    4  A    between atoms: N_22  and  C_23
REMARK                            x       y       z     vdW  Elec       q    Type
REMARK                         _______ _______ _______ _____ _____    ______ ____
ROOT
ATOM      1  O   UNL     1       2.044   7.537  19.894  0.00  0.00    +0.000 OA
ATOM      2  C   UNL     1       2.376   7.675  18.719  0.00  0.00    +0.000 C 
ATOM      3  N   UNL     1       1.910   8.673  17.876  0.00  0.00    +0.000 N 
ATOM      4  H   UNL     1       2.181   8.616  16.905  0.00  0.00    +0.000 HD
ENDROOT
BRANCH   3   5
ATOM      5  C   UNL     1       0.965   9.671  18.214  0.00  0.00    +0.000 A 
ATOM      6  C   UNL     1       1.162  10.586  19.254  0.00  0.00    +0.000 A 
ATOM      7  C   UNL     1       0.196  11.542  19.564  0.00  0.00    +0.000 A 
ATOM      8  C   UNL     1      -0.999  11.572  18.858  0.00  0.00    +0.000 A 
ATOM      9  C   UNL     1      -1.221  10.665  17.822  0.00  0.00    +0.000 A 
ATOM     10  C   UNL     1      -0.227   9.739  17.477  0.00  0.00    +0.000 A 
ATOM     11  O   UNL     1      -2.359  10.684  17.060  0.00  0.00    +0.000 OA
ATOM     12  C   UNL     1      -3.534  10.428  17.839  0.00  0.00    +0.000 C 
ATOM     13  C   UNL     1      -4.039  11.656  18.587  0.00  0.00    +0.000 C 
ATOM     14  C   UNL     1      -3.088  12.059  19.702  0.00  0.00    +0.000 C 
ATOM     15  O   UNL     1      -1.869  12.577  19.176  0.00  0.00    +0.000 OA
ENDBRANCH   3   5
BRANCH   2  16
ATOM     16  C   UNL     1       3.273   6.738  18.094  0.00  0.00    +0.000 A 
ATOM     17  C   UNL     1       4.197   6.951  17.087  0.00  0.00    +0.000 A 
ATOM     18  C   UNL     1       4.909   5.747  16.989  0.00  0.00    +0.000 A 
ATOM     19  N   UNL     1       4.526   4.854  17.897  0.00  0.00    +0.000 NA
ATOM     20  N   UNL     1       3.441   5.418  18.497  0.00  0.00    +0.000 N 
BRANCH  20  21
ATOM     21  C   UNL     1       2.603   4.602  19.313  0.00  0.00    +0.000 A 
ATOM     22  C   UNL     1       2.939   4.401  20.660  0.00  0.00    +0.000 A 
ATOM     23  C   UNL     1       2.145   3.583  21.468  0.00  0.00    +0.000 A 
ATOM     24  C   UNL     1       1.031   2.938  20.932  0.00  0.00    +0.000 A 
ATOM     25  C   UNL     1       0.703   3.117  19.590  0.00  0.00    +0.000 A 
ATOM     26  C   UNL     1       1.481   3.949  18.781  0.00  0.00    +0.000 A 
ENDBRANCH  20  21
BRANCH  18  27
ATOM     27  C   UNL     1       5.992   5.499  15.950  0.00  0.00    +0.000 C 
ATOM     28  C   UNL     1       5.589   4.761  14.685  0.00  0.00    +0.000 C 
ATOM     29  C   UNL     1       6.472   4.090  15.680  0.00  0.00    +0.000 C 
ENDBRANCH  18  27
ENDBRANCH   2  16
TORSDOF 4
ENDMDL
MODEL 3
REMARK VINA RESULT:      -8.5      1.508      1.807
REMARK  Name = 
REMARK  4 active torsions:
REMARK  status: ('A' for Active; 'I' for Inactive)
REMARK    1  A    between atoms: C_2  and  C_15
REMARK    2  A    between atoms: N_3  and  C_4
REMARK    3  A    between atoms: C_17  and  C_18
REMARK    4  A    between atoms: N_22  and  C_23
REMARK                            x       y       z     vdW  Elec       q    Type
REMARK                         _______ _______ _______ _____ _____    ______ ____
ROOT
ATOM      1  O   UNL     1       2.016   7.428  20.124  0.00  0.00    +0.000 OA
ATOM      2  C   UNL     1       2.295   7.678  18.954  0.00  0.00    +0.000 C 
ATOM      3  N   UNL     1       1.781   8.744  18.229  0.00  0.00    +0.000 N 
ATOM      4  H   UNL     1       2.009   8.780  17.245  0.00  0.00    +0.000 HD
ENDROOT
BRANCH   3   5
ATOM      5  C   UNL     1       0.841   9.691  18.699  0.00  0.00    +0.000 A 
ATOM      6  C   UNL     1      -0.366   9.956  18.042  0.00  0.00    +0.000 A 
ATOM      7  C   UNL     1      -1.256  10.911  18.531  0.00  0.00    +0.000 A 
ATOM      8  C   UNL     1      -0.934  11.640  19.667  0.00  0.00    +0.000 A 
ATOM      9  C   UNL     1       0.267  11.397  20.335  0.00  0.00    +0.000 A 
ATOM     10  C   UNL     1       1.136  10.400  19.872  0.00  0.00    +0.000 A 
ATOM     11  O   UNL     1       0.611  12.051  21.489  0.00  0.00    +0.000 OA
ATOM     12  C   UNL     1       0.746  13.463  21.290  0.00  0.00    +0.000 C 
ATOM     13  C   UNL     1      -0.588  14.201  21.294  0.00  0.00    +0.000 C 
ATOM     14  C   UNL     1      -1.419  13.858  20.068  0.00  0.00    +0.000 C 
ATOM     15  O   UNL     1      -1.883  12.512  20.122  0.00  0.00    +0.000 OA
ENDBRANCH   3   5
BRANCH   2  16
ATOM     16  C   UNL     1       3.173   6.817  18.206  0.00  0.00    +0.000 A 
ATOM     17  C   UNL     1       4.046   7.135  17.181  0.00  0.00    +0.000 A 
ATOM     18  C   UNL     1       4.768   5.958  16.943  0.00  0.00    +0.000 A 
ATOM     19  N   UNL     1       4.441   4.980  17.783  0.00  0.00    +0.000 NA
ATOM     20  N   UNL     1       3.378   5.469  18.481  0.00  0.00    +0.000 N 
BRANCH  20  21
ATOM     21  C   UNL     1       2.590   4.569  19.258  0.00  0.00    +0.000 A 
ATOM     22  C   UNL     1       2.954   4.309  20.588  0.00  0.00    +0.000 A 
ATOM     23  C   UNL     1       2.210   3.410  21.356  0.00  0.00    +0.000 A 
ATOM     24  C   UNL     1       1.122   2.743  20.796  0.00  0.00    +0.000 A 
ATOM     25  C   UNL     1       0.767   2.981  19.470  0.00  0.00    +0.000 A 
ATOM     26  C   UNL     1       1.494   3.894  18.702  0.00  0.00    +0.000 A 
ENDBRANCH  20  21
BRANCH  18  27
ATOM     27  C   UNL     1       5.803   5.822  15.837  0.00  0.00    +0.000 C 
ATOM     28  C   UNL     1       5.560   4.760  14.780  0.00  0.00    +0.000 C 
ATOM     29  C   UNL     1       6.669   4.584  15.759  0.00  0.00    +0.000 C 
ENDBRANCH  18  27
ENDBRANCH   2  16
TORSDOF 4
ENDMDL
MODEL 4
REMARK VINA RESULT:      -8.4      2.107      3.107
REMARK  Name = 
REMARK  4 active torsions:
REMARK  status: ('A' for Active; 'I' for Inactive)
REMARK    1  A    between atoms: C_2  and  C_15
REMARK    2  A    between atoms: N_3  and  C_4
REMARK    3  A    between atoms: C_17  and  C_18
REMARK    4  A    between atoms: N_22  and  C_23
REMARK                            x       y       z     vdW  Elec       q    Type
REMARK                         _______ _______ _______ _____ _____    ______ ____
ROOT
ATOM      1  O   UNL     1       5.328   7.299  17.728  0.00  0.00    +0.000 OA
ATOM      2  C   UNL     1       4.487   6.553  17.232  0.00  0.00    +0.000 C 
ATOM      3  N   UNL     1       3.133   6.573  17.535  0.00  0.00    +0.000 N 
ATOM      4  H   UNL     1       2.564   5.841  17.135  0.00  0.00    +0.000 HD
ENDROOT
BRANCH   3   5
ATOM      5  C   UNL     1       2.506   7.424  18.475  0.00  0.00    +0.000 A 
ATOM      6  C   UNL     1       2.286   7.057  19.807  0.00  0.00    +0.000 A 
ATOM      7  C   UNL     1       1.648   7.921  20.696  0.00  0.00    +0.000 A 
ATOM      8  C   UNL     1       1.189   9.153  20.253  0.00  0.00    +0.000 A 
ATOM      9  C   UNL     1       1.390   9.539  18.928  0.00  0.00    +0.000 A 
ATOM     10  C   UNL     1       2.079   8.691  18.049  0.00  0.00    +0.000 A 
ATOM     11  O   UNL     1       1.003  10.763  18.452  0.00  0.00    +0.000 OA
ATOM     12  C   UNL     1      -0.415  10.948  18.526  0.00  0.00    +0.000 C 
ATOM     13  C   UNL     1      -0.896  11.358  19.913  0.00  0.00    +0.000 C 
ATOM     14  C   UNL     1      -0.743  10.225  20.914  0.00  0.00    +0.000 C 
ATOM     15  O   UNL     1       0.631   9.970  21.196  0.00  0.00    +0.000 OA
ENDBRANCH   3   5
BRANCH   2  16
ATOM     16  C   UNL     1       4.873   5.529  16.297  0.00  0.00    +0.000 A 
ATOM     17  C   UNL     1       5.476   5.656  15.058  0.00  0.00    +0.000 A 
ATOM     18  C   UNL     1       5.779   4.345  14.667  0.00  0.00    +0.000 A 
ATOM     19  N   UNL     1       5.461   3.449  15.597  0.00  0.00    +0.000 NA
ATOM     20  N   UNL     1       4.797   4.163  16.548  0.00  0.00    +0.000 N 
BRANCH  20  21
ATOM     21  C   UNL     1       4.054   3.461  17.544  0.00  0.00    +0.000 A 
ATOM     22  C   UNL     1       2.767   2.995  17.241  0.00  0.00    +0.000 A 
ATOM     23  C   UNL     1       2.013   2.330  18.212  0.00  0.00    +0.000 A 
ATOM     24  C   UNL     1       2.526   2.154  19.497  0.00  0.00    +0.000 A 
ATOM     25  C   UNL     1       3.796   2.632  19.811  0.00  0.00    +0.000 A 
ATOM     26  C   UNL     1       4.563   3.280  18.839  0.00  0.00    +0.000 A 
ENDBRANCH  20  21
BRANCH  18  27
ATOM     27  C   UNL     1       6.394   3.996  13.321  0.00  0.00    +0.000 C 
ATOM     28  C   UNL     1       5.455   3.875  12.134  0.00  0.00    +0.000 C 
ATOM     29  C   UNL     1       6.108   2.654  12.683  0.00  0.00    +0.000 C 
ENDBRANCH  18  27
ENDBRANCH   2  16
TORSDOF 4
ENDMDL
MODEL 5
REMARK VINA RESULT:      -8.2      1.902      2.740
REMARK  Name = 
REMARK  4 active torsions:
REMARK  status: ('A' for Active; 'I' for Inactive)
REMARK    1  A    between atoms: C_2  and  C_15
REMARK    2  A    between atoms: N_3  and  C_4
REMARK    3  A    between atoms: C_17  and  C_18
REMARK    4  A    between atoms: N_22  and  C_23
REMARK                            x       y       z     vdW  Elec       q    Type
REMARK                         _______ _______ _______ _____ _____    ______ ____
ROOT
ATOM      1  O   UNL     1       5.185   7.390  17.799  0.00  0.00    +0.000 OA
ATOM      2  C   UNL     1       4.365   6.551  17.434  0.00  0.00    +0.000 C 
ATOM      3  N   UNL     1       3.027   6.541  17.800  0.00  0.00    +0.000 N 
ATOM      4  H   UNL     1       2.481   5.740  17.516  0.00  0.00    +0.000 HD
ENDROOT
BRANCH   3   5
ATOM      5  C   UNL     1       2.396   7.464  18.667  0.00  0.00    +0.000 A 
ATOM      6  C   UNL     1       2.155   7.197  20.019  0.00  0.00    +0.000 A 
ATOM      7  C   UNL     1       1.515   8.130  20.833  0.00  0.00    +0.000 A 
ATOM      8  C   UNL     1       1.075   9.331  20.296  0.00  0.00    +0.000 A 
ATOM      9  C   UNL     1       1.298   9.617  18.948  0.00  0.00    +0.000 A 
ATOM     10  C   UNL     1       1.989   8.700  18.144  0.00  0.00    +0.000 A 
ATOM     11  O   UNL     1       0.931  10.807  18.379  0.00  0.00    +0.000 OA
ATOM     12  C   UNL     1      -0.487  11.011  18.420  0.00  0.00    +0.000 C 
ATOM     13  C   UNL     1      -0.981  11.526  19.766  0.00  0.00    +0.000 C 
ATOM     14  C   UNL     1      -0.854  10.467  20.849  0.00  0.00    +0.000 C 
ATOM     15  O   UNL     1       0.513  10.221  21.168  0.00  0.00    +0.000 OA
ENDBRANCH   3   5
BRANCH   2  16
ATOM     16  C   UNL     1       4.765   5.444  16.605  0.00  0.00    +0.000 A 
ATOM     17  C   UNL     1       5.496   5.450  15.431  0.00  0.00    +0.000 A 
ATOM     18  C   UNL     1       5.738   4.098  15.149  0.00  0.00    +0.000 A 
ATOM     19  N   UNL     1       5.262   3.288  16.090  0.00  0.00    +0.000 NA
ATOM     20  N   UNL     1       4.562   4.106  16.925  0.00  0.00    +0.000 N 
BRANCH  20  21
ATOM     21  C   UNL     1       3.673   3.523  17.876  0.00  0.00    +0.000 A 
ATOM     22  C   UNL     1       4.126   3.282  19.182  0.00  0.00    +0.000 A 
ATOM     23  C   UNL     1       3.279   2.687  20.121  0.00  0.00    +0.000 A 
ATOM     24  C   UNL     1       1.990   2.301  19.756  0.00  0.00    +0.000 A 
ATOM     25  C   UNL     1       1.541   2.519  18.455  0.00  0.00    +0.000 A 
ATOM     26  C   UNL     1       2.375   3.132  17.517  0.00  0.00    +0.000 A 
ENDBRANCH  20  21
BRANCH  18  27
ATOM     27  C   UNL     1       6.456   3.622  13.896  0.00  0.00    +0.000 C 
ATOM     28  C   UNL     1       6.793   4.664  12.845  0.00  0.00    +0.000 C 
ATOM     29  C   UNL     1       5.744   3.644  12.561  0.00  0.00    +0.000 C 
ENDBRANCH  18  27
ENDBRANCH   2  16
TORSDOF 4
ENDMDL
MODEL 6
REMARK VINA RESULT:      -8.2      1.435      2.251
REMARK  Name = 
REMARK  4 active torsions:
REMARK  status: ('A' for Active; 'I' for Inactive)
REMARK    1  A    between atoms: C_2  and  C_15
REMARK    2  A    between atoms: N_3  and  C_4
REMARK    3  A    between atoms: C_17  and  C_18
REMARK    4  A    between atoms: N_22  and  C_23
REMARK                            x       y       z     vdW  Elec       q    Type
REMARK                         _______ _______ _______ _____ _____    ______ ____
ROOT
ATOM      1  O   UNL     1       2.466   6.945  19.801  0.00  0.00    +0.000 OA
ATOM      2  C   UNL     1       2.802   7.288  18.670  0.00  0.00    +0.000 C 
ATOM      3  N   UNL     1       2.472   8.500  18.080  0.00  0.00    +0.000 N 
ATOM      4  H   UNL     1       2.722   8.619  17.109  0.00  0.00    +0.000 HD
ENDROOT
BRANCH   3   5
ATOM      5  C   UNL     1       1.680   9.518  18.662  0.00  0.00    +0.000 A 
ATOM      6  C   UNL     1       1.714  10.848  18.231  0.00  0.00    +0.000 A 
ATOM      7  C   UNL     1       0.928  11.823  18.845  0.00  0.00    +0.000 A 
ATOM      8  C   UNL     1       0.123  11.485  19.923  0.00  0.00    +0.000 A 
ATOM      9  C   UNL     1       0.077  10.166  20.374  0.00  0.00    +0.000 A 
ATOM     10  C   UNL     1       0.827   9.177  19.723  0.00  0.00    +0.000 A 
ATOM     11  O   UNL     1      -0.738   9.768  21.400  0.00  0.00    +0.000 OA
ATOM     12  C   UNL     1      -0.409  10.416  22.634  0.00  0.00    +0.000 C 
ATOM     13  C   UNL     1      -0.988  11.822  22.747  0.00  0.00    +0.000 C 
ATOM     14  C   UNL     1      -0.315  12.781  21.779  0.00  0.00    +0.000 C 
ATOM     15  O   UNL     1      -0.665  12.480  20.431  0.00  0.00    +0.000 OA
ENDBRANCH   3   5
BRANCH   2  16
ATOM     16  C   UNL     1       3.552   6.398  17.823  0.00  0.00    +0.000 A 
ATOM     17  C   UNL     1       4.385   6.696  16.760  0.00  0.00    +0.000 A 
ATOM     18  C   UNL     1       4.982   5.476  16.415  0.00  0.00    +0.000 A 
ATOM     19  N   UNL     1       4.619   4.484  17.224  0.00  0.00    +0.000 NA
ATOM     20  N   UNL     1       3.650   5.024  18.015  0.00  0.00    +0.000 N 
BRANCH  20  21
ATOM     21  C   UNL     1       2.833   4.153  18.795  0.00  0.00    +0.000 A 
ATOM     22  C   UNL     1       1.568   3.783  18.314  0.00  0.00    +0.000 A 
ATOM     23  C   UNL     1       0.742   2.954  19.077  0.00  0.00    +0.000 A 
ATOM     24  C   UNL     1       1.157   2.514  20.333  0.00  0.00    +0.000 A 
ATOM     25  C   UNL     1       2.404   2.894  20.825  0.00  0.00    +0.000 A 
ATOM     26  C   UNL     1       3.243   3.707  20.060  0.00  0.00    +0.000 A 
ENDBRANCH  20  21
BRANCH  18  27
ATOM     27  C   UNL     1       5.931   5.314  15.238  0.00  0.00    +0.000 C 
ATOM     28  C   UNL     1       5.511   4.367  14.127  0.00  0.00    +0.000 C 
ATOM     29  C   UNL     1       6.646   3.999  15.019  0.00  0.00    +0.000 C 
ENDBRANCH  18  27
ENDBRANCH   2  16
TORSDOF 4
ENDMDL
MODEL 7
REMARK VINA RESULT:      -8.2      1.269      1.780
REMARK  Name = 
REMARK  4 active torsions:
REMARK  status: ('A' for Active; 'I' for Inactive)
REMARK    1  A    between atoms: C_2  and  C_15
REMARK    2  A    between atoms: N_3  and  C_4
REMARK    3  A    between atoms: C_17  and  C_18
REMARK    4  A    between atoms: N_22  and  C_23
REMARK                            x       y       z     vdW  Elec       q    Type
REMARK                         _______ _______ _______ _____ _____    ______ ____
ROOT
ATOM      1  O   UNL     1       1.247   7.223  17.390  0.00  0.00    +0.000 OA
ATOM      2  C   UNL     1       2.190   7.410  18.156  0.00  0.00    +0.000 C 
ATOM      3  N   UNL     1       2.224   8.382  19.145  0.00  0.00    +0.000 N 
ATOM      4  H   UNL     1       3.097   8.500  19.640  0.00  0.00    +0.000 HD
ENDROOT
BRANCH   3   5
ATOM      5  C   UNL     1       1.207   9.328  19.416  0.00  0.00    +0.000 A 
ATOM      6  C   UNL     1       0.849  10.339  18.519  0.00  0.00    +0.000 A 
ATOM      7  C   UNL     1      -0.148  11.261  18.834  0.00  0.00    +0.000 A 
ATOM      8  C   UNL     1      -0.778  11.203  20.069  0.00  0.00    +0.000 A 
ATOM      9  C   UNL     1      -0.433  10.208  20.983  0.00  0.00    +0.000 A 
ATOM     10  C   UNL     1       0.533   9.250  20.644  0.00  0.00    +0.000 A 
ATOM     11  O   UNL     1      -1.057  10.074  22.195  0.00  0.00    +0.000 OA
ATOM     12  C   UNL     1      -0.867  11.222  23.030  0.00  0.00    +0.000 C 
ATOM     13  C   UNL     1      -1.808  12.373  22.695  0.00  0.00    +0.000 C 
ATOM     14  C   UNL     1      -1.475  12.991  21.348  0.00  0.00    +0.000 C 
ATOM     15  O   UNL     1      -1.788  12.099  20.281  0.00  0.00    +0.000 OA
ENDBRANCH   3   5
BRANCH   2  16
ATOM     16  C   UNL     1       3.396   6.632  18.042  0.00  0.00    +0.000 A 
ATOM     17  C   UNL     1       4.566   6.926  17.365  0.00  0.00    +0.000 A 
ATOM     18  C   UNL     1       5.461   5.912  17.733  0.00  0.00    +0.000 A 
ATOM     19  N   UNL     1       4.940   5.070  18.621  0.00  0.00    +0.000 NA
ATOM     20  N   UNL     1       3.633   5.443  18.722  0.00  0.00    +0.000 N 
BRANCH  20  21
ATOM     21  C   UNL     1       2.713   4.562  19.364  0.00  0.00    +0.000 A 
ATOM     22  C   UNL     1       2.689   4.495  20.765  0.00  0.00    +0.000 A 
ATOM     23  C   UNL     1       1.813   3.618  21.411  0.00  0.00    +0.000 A 
ATOM     24  C   UNL     1       0.980   2.784  20.667  0.00  0.00    +0.000 A 
ATOM     25  C   UNL     1       1.013   2.832  19.275  0.00  0.00    +0.000 A 
ATOM     26  C   UNL     1       1.872   3.720  18.622  0.00  0.00    +0.000 A 
ENDBRANCH  20  21
BRANCH  18  27
ATOM     27  C   UNL     1       6.866   5.791  17.164  0.00  0.00    +0.000 C 
ATOM     28  C   UNL     1       7.097   4.745  16.088  0.00  0.00    +0.000 C 
ATOM     29  C   UNL     1       7.690   4.553  17.441  0.00  0.00    +0.000 C 
ENDBRANCH  18  27
ENDBRANCH   2  16
TORSDOF 4
ENDMDL
MODEL 8
REMARK VINA RESULT:      -8.1      1.631      2.252
REMARK  Name = 
REMARK  4 active torsions:
REMARK  status: ('A' for Active; 'I' for Inactive)
REMARK    1  A    between atoms: C_2  and  C_15
REMARK    2  A    between atoms: N_3  and  C_4
REMARK    3  A    between atoms: C_17  and  C_18
REMARK    4  A    between atoms: N_22  and  C_23
REMARK                            x       y       z     vdW  Elec       q    Type
REMARK                         _______ _______ _______ _____ _____    ______ ____
ROOT
ATOM      1  O   UNL     1       1.232   7.110  17.440  0.00  0.00    +0.000 OA
ATOM      2  C   UNL     1       2.143   7.419  18.204  0.00  0.00    +0.000 C 
ATOM      3  N   UNL     1       2.091   8.460  19.119  0.00  0.00    +0.000 N 
ATOM      4  H   UNL     1       2.943   8.676  19.616  0.00  0.00    +0.000 HD
ENDROOT
BRANCH   3   5
ATOM      5  C   UNL     1       1.005   9.349  19.304  0.00  0.00    +0.000 A 
ATOM      6  C   UNL     1       0.398  10.040  18.249  0.00  0.00    +0.000 A 
ATOM      7  C   UNL     1      -0.659  10.919  18.479  0.00  0.00    +0.000 A 
ATOM      8  C   UNL     1      -1.101  11.146  19.775  0.00  0.00    +0.000 A 
ATOM      9  C   UNL     1      -0.507  10.473  20.843  0.00  0.00    +0.000 A 
ATOM     10  C   UNL     1       0.520   9.549  20.605  0.00  0.00    +0.000 A 
ATOM     11  O   UNL     1      -0.938  10.620  22.135  0.00  0.00    +0.000 OA
ATOM     12  C   UNL     1      -0.787  11.964  22.605  0.00  0.00    +0.000 C 
ATOM     13  C   UNL     1      -1.908  12.891  22.147  0.00  0.00    +0.000 C 
ATOM     14  C   UNL     1      -1.845  13.145  20.650  0.00  0.00    +0.000 C 
ATOM     15  O   UNL     1      -2.181  11.971  19.915  0.00  0.00    +0.000 OA
ENDBRANCH   3   5
BRANCH   2  16
ATOM     16  C   UNL     1       3.403   6.722  18.166  0.00  0.00    +0.000 A 
ATOM     17  C   UNL     1       4.616   7.135  17.646  0.00  0.00    +0.000 A 
ATOM     18  C   UNL     1       5.531   6.146  18.033  0.00  0.00    +0.000 A 
ATOM     19  N   UNL     1       4.975   5.208  18.794  0.00  0.00    +0.000 NA
ATOM     20  N   UNL     1       3.644   5.496  18.778  0.00  0.00    +0.000 N 
BRANCH  20  21
ATOM     21  C   UNL     1       2.720   4.517  19.247  0.00  0.00    +0.000 A 
ATOM     22  C   UNL     1       2.065   3.690  18.322  0.00  0.00    +0.000 A 
ATOM     23  C   UNL     1       1.136   2.743  18.761  0.00  0.00    +0.000 A 
ATOM     24  C   UNL     1       0.831   2.636  20.117  0.00  0.00    +0.000 A 
ATOM     25  C   UNL     1       1.463   3.468  21.039  0.00  0.00    +0.000 A 
ATOM     26  C   UNL     1       2.408   4.403  20.610  0.00  0.00    +0.000 A 
ENDBRANCH  20  21
BRANCH  18  27
ATOM     27  C   UNL     1       6.993   6.152  17.616  0.00  0.00    +0.000 C 
ATOM     28  C   UNL     1       8.017   6.553  18.663  0.00  0.00    +0.000 C 
ATOM     29  C   UNL     1       7.746   7.461  17.514  0.00  0.00    +0.000 C 
ENDBRANCH  18  27
ENDBRANCH   2  16
TORSDOF 4
ENDMDL
MODEL 9
REMARK VINA RESULT:      -8.1      2.375      2.664
REMARK  Name = 
REMARK  4 active torsions:
REMARK  status: ('A' for Active; 'I' for Inactive)
REMARK    1  A    between atoms: C_2  and  C_15
REMARK    2  A    between atoms: N_3  and  C_4
REMARK    3  A    between atoms: C_17  and  C_18
REMARK    4  A    between atoms: N_22  and  C_23
REMARK                            x       y       z     vdW  Elec       q    Type
REMARK                         _______ _______ _______ _____ _____    ______ ____
ROOT
ATOM      1  O   UNL     1       2.588   7.120  19.721  0.00  0.00    +0.000 OA
ATOM      2  C   UNL     1       2.783   7.161  18.509  0.00  0.00    +0.000 C 
ATOM      3  N   UNL     1       2.338   8.172  17.669  0.00  0.00    +0.000 N 
ATOM      4  H   UNL     1       2.475   8.037  16.677  0.00  0.00    +0.000 HD
ENDROOT
BRANCH   3   5
ATOM      5  C   UNL     1       1.570   9.295  18.057  0.00  0.00    +0.000 A 
ATOM      6  C   UNL     1       0.172   9.321  17.992  0.00  0.00    +0.000 A 
ATOM      7  C   UNL     1      -0.544  10.457  18.369  0.00  0.00    +0.000 A 
ATOM      8  C   UNL     1       0.132  11.595  18.783  0.00  0.00    +0.000 A 
ATOM      9  C   UNL     1       1.525  11.595  18.850  0.00  0.00    +0.000 A 
ATOM     10  C   UNL     1       2.241  10.436  18.521  0.00  0.00    +0.000 A 
ATOM     11  O   UNL     1       2.240  12.674  19.300  0.00  0.00    +0.000 OA
ATOM     12  C   UNL     1       2.054  13.828  18.472  0.00  0.00    +0.000 C 
ATOM     13  C   UNL     1       0.764  14.583  18.772  0.00  0.00    +0.000 C 
ATOM     14  C   UNL     1      -0.459  13.783  18.357  0.00  0.00    +0.000 C 
ATOM     15  O   UNL     1      -0.639  12.646  19.196  0.00  0.00    +0.000 OA
ENDBRANCH   3   5
BRANCH   2  16
ATOM     16  C   UNL     1       3.474   6.091  17.838  0.00  0.00    +0.000 A 
ATOM     17  C   UNL     1       4.281   6.139  16.715  0.00  0.00    +0.000 A 
ATOM     18  C   UNL     1       4.826   4.852  16.607  0.00  0.00    +0.000 A 
ATOM     19  N   UNL     1       4.459   4.057  17.607  0.00  0.00    +0.000 NA
ATOM     20  N   UNL     1       3.535   4.781  18.299  0.00  0.00    +0.000 N 
BRANCH  20  21
ATOM     21  C   UNL     1       2.717   4.116  19.260  0.00  0.00    +0.000 A 
ATOM     22  C   UNL     1       1.413   3.735  18.907  0.00  0.00    +0.000 A 
ATOM     23  C   UNL     1       0.587   3.108  19.843  0.00  0.00    +0.000 A 
ATOM     24  C   UNL     1       1.042   2.884  21.141  0.00  0.00    +0.000 A 
ATOM     25  C   UNL     1       2.329   3.277  21.505  0.00  0.00    +0.000 A 
ATOM     26  C   UNL     1       3.167   3.887  20.568  0.00  0.00    +0.000 A 
ENDBRANCH  20  21
BRANCH  18  27
ATOM     27  C   UNL     1       5.729   4.422  15.461  0.00  0.00    +0.000 C 
ATOM     28  C   UNL     1       7.229   4.487  15.691  0.00  0.00    +0.000 C 
ATOM     29  C   UNL     1       6.586   5.445  14.749  0.00  0.00    +0.000 C 
ENDBRANCH  18  27
ENDBRANCH   2  16
TORSDOF 4
ENDMDL
