MODEL 1
REMARK VINA RESULT:      -9.0      0.000      0.000
REMARK  Name = 
REMARK  6 active torsions:
REMARK  status: ('A' for Active; 'I' for Inactive)
REMARK    1  A    between atoms: C_1  and  C_2
REMARK    2  A    between atoms: C_5  and  N_6
REMARK    3  A    between atoms: C_8  and  C_9
REMARK    4  A    between atoms: N_11  and  C_12
REMARK    5  A    between atoms: C_16  and  C_17
REMARK    6  A    between atoms: C_25  and  C_26
REMARK                            x       y       z     vdW  Elec       q    Type
REMARK                         _______ _______ _______ _____ _____    ______ ____
ROOT
ATOM      1  C   UNL     1       7.788   7.398  18.170  0.00  0.00    +0.000 C 
ATOM      2  O   UNL     1       8.558   6.961  19.027  0.00  0.00    +0.000 OA
ATOM      3  N   UNL     1       7.681   8.730  17.758  0.00  0.00    +0.000 N 
ATOM      4  H   UNL     1       6.915   8.903  17.110  0.00  0.00    +0.000 HD
ENDROOT
BRANCH   1   7
ATOM      5  N   UNL     1       5.164   5.163  17.227  0.00  0.00    +0.000 N 
ATOM      6  N   UNL     1       5.703   6.060  18.103  0.00  0.00    +0.000 NA
ATOM      7  C   UNL     1       6.837   6.479  17.517  0.00  0.00    +0.000 A 
ATOM      8  C   UNL     1       6.963   5.940  16.213  0.00  0.00    +0.000 A 
ATOM      9  C   UNL     1       5.865   5.128  16.027  0.00  0.00    +0.000 A 
ATOM     10  C   UNL     1       5.420   4.432  14.788  0.00  0.00    +0.000 C 
BRANCH   5  15
ATOM     11  C   UNL     1       0.495   2.181  18.663  0.00  0.00    +0.000 C 
ATOM     12  C   UNL     1       1.718   2.972  18.305  0.00  0.00    +0.000 A 
ATOM     13  C   UNL     1       1.665   4.364  18.169  0.00  0.00    +0.000 A 
ATOM     14  C   UNL     1       2.814   5.088  17.838  0.00  0.00    +0.000 A 
ATOM     15  C   UNL     1       4.020   4.418  17.606  0.00  0.00    +0.000 A 
ATOM     16  C   UNL     1       4.083   3.030  17.777  0.00  0.00    +0.000 A 
ATOM     17  C   UNL     1       2.938   2.314  18.124  0.00  0.00    +0.000 A 
ENDBRANCH   5  15
ENDBRANCH   1   7
BRANCH   3  18
ATOM     18  C   UNL     1       8.458   9.828  18.221  0.00  0.00    +0.000 A 
ATOM     19  C   UNL     1       9.230   9.701  19.384  0.00  0.00    +0.000 A 
ATOM     20  C   UNL     1       9.961  10.770  19.878  0.00  0.00    +0.000 A 
ATOM     21  C   UNL     1       9.942  11.978  19.195  0.00  0.00    +0.000 A 
ATOM     22  C   UNL     1       9.212  12.167  18.003  0.00  0.00    +0.000 A 
ATOM     23  C   UNL     1       8.475  11.064  17.513  0.00  0.00    +0.000 A 
BRANCH  22  24
ATOM     24  C   UNL     1       9.312  13.590  17.462  0.00  0.00    +0.000 C 
ATOM     25  C   UNL     1       8.608  14.843  17.995  0.00  0.00    +0.000 C 
ATOM     26  N   UNL     1       9.476  15.934  17.592  0.00  0.00    +0.000 N 
ATOM     27  C   UNL     1      10.733  15.514  17.197  0.00  0.00    +0.000 C 
ATOM     28  O   UNL     1      11.627  16.238  16.814  0.00  0.00    +0.000 OA
ATOM     29  C   UNL     1      10.794  14.029  17.361  0.00  0.00    +0.000 C 
ATOM     30  H   UNL     1       9.236  16.909  17.547  0.00  0.00    +0.000 HD
ENDBRANCH  22  24
ENDBRANCH   3  18
TORSDOF 4
ENDMDL
MODEL 2
REMARK VINA RESULT:      -8.9      6.757      9.751
REMARK  Name = 
REMARK  6 active torsions:
REMARK  status: ('A' for Active; 'I' for Inactive)
REMARK    1  A    between atoms: C_1  and  C_2
REMARK    2  A    between atoms: C_5  and  N_6
REMARK    3  A    between atoms: C_8  and  C_9
REMARK    4  A    between atoms: N_11  and  C_12
REMARK    5  A    between atoms: C_16  and  C_17
REMARK    6  A    between atoms: C_25  and  C_26
REMARK                            x       y       z     vdW  Elec       q    Type
REMARK                         _______ _______ _______ _____ _____    ______ ____
ROOT
ATOM      1  C   UNL     1       1.107   9.239  19.712  0.00  0.00    +0.000 C 
ATOM      2  O   UNL     1       1.277   8.906  20.887  0.00  0.00    +0.000 OA
ATOM      3  N   UNL     1       1.697   8.646  18.593  0.00  0.00    +0.000 N 
ATOM      4  H   UNL     1       1.507   9.132  17.718  0.00  0.00    +0.000 HD
ENDROOT
BRANCH   1   7
ATOM      5  N   UNL     1      -1.509  11.550  18.949  0.00  0.00    +0.000 N 
ATOM      6  N   UNL     1      -1.097  10.311  19.345  0.00  0.00    +0.000 NA
ATOM      7  C   UNL     1       0.243  10.395  19.408  0.00  0.00    +0.000 A 
ATOM      8  C   UNL     1       0.680  11.720  19.168  0.00  0.00    +0.000 A 
ATOM      9  C   UNL     1      -0.457  12.457  18.913  0.00  0.00    +0.000 A 
ATOM     10  C   UNL     1      -0.593  13.930  18.742  0.00  0.00    +0.000 C 
BRANCH   5  15
ATOM     11  C   UNL     1      -7.045  12.315  17.714  0.00  0.00    +0.000 C 
ATOM     12  C   UNL     1      -5.589  12.128  18.023  0.00  0.00    +0.000 A 
ATOM     13  C   UNL     1      -4.708  11.608  17.068  0.00  0.00    +0.000 A 
ATOM     14  C   UNL     1      -3.353  11.443  17.370  0.00  0.00    +0.000 A 
ATOM     15  C   UNL     1      -2.876  11.767  18.645  0.00  0.00    +0.000 A 
ATOM     16  C   UNL     1      -3.749  12.320  19.589  0.00  0.00    +0.000 A 
ATOM     17  C   UNL     1      -5.096  12.500  19.277  0.00  0.00    +0.000 A 
ENDBRANCH   5  15
ENDBRANCH   1   7
BRANCH   3  18
ATOM     18  C   UNL     1       2.578   7.530  18.586  0.00  0.00    +0.000 A 
ATOM     19  C   UNL     1       2.478   6.550  19.583  0.00  0.00    +0.000 A 
ATOM     20  C   UNL     1       3.353   5.476  19.623  0.00  0.00    +0.000 A 
ATOM     21  C   UNL     1       4.329   5.361  18.643  0.00  0.00    +0.000 A 
ATOM     22  C   UNL     1       4.467   6.292  17.593  0.00  0.00    +0.000 A 
ATOM     23  C   UNL     1       3.565   7.380  17.569  0.00  0.00    +0.000 A 
BRANCH  22  24
ATOM     24  C   UNL     1       5.638   5.976  16.667  0.00  0.00    +0.000 C 
ATOM     25  C   UNL     1       7.056   5.551  17.065  0.00  0.00    +0.000 C 
ATOM     26  N   UNL     1       7.533   4.797  15.920  0.00  0.00    +0.000 N 
ATOM     27  C   UNL     1       6.524   4.431  15.049  0.00  0.00    +0.000 C 
ATOM     28  O   UNL     1       6.676   3.804  14.022  0.00  0.00    +0.000 OA
ATOM     29  C   UNL     1       5.228   4.913  15.618  0.00  0.00    +0.000 C 
ATOM     30  H   UNL     1       8.489   4.568  15.707  0.00  0.00    +0.000 HD
ENDBRANCH  22  24
ENDBRANCH   3  18
TORSDOF 4
ENDMDL
MODEL 3
REMARK VINA RESULT:      -8.8      6.854      9.882
REMARK  Name = 
REMARK  6 active torsions:
REMARK  status: ('A' for Active; 'I' for Inactive)
REMARK    1  A    between atoms: C_1  and  C_2
REMARK    2  A    between atoms: C_5  and  N_6
REMARK    3  A    between atoms: C_8  and  C_9
REMARK    4  A    between atoms: N_11  and  C_12
REMARK    5  A    between atoms: C_16  and  C_17
REMARK    6  A    between atoms: C_25  and  C_26
REMARK                            x       y       z     vdW  Elec       q    Type
REMARK                         _______ _______ _______ _____ _____    ______ ____
ROOT
ATOM      1  C   UNL     1       1.167   9.392  18.648  0.00  0.00    +0.000 C 
ATOM      2  O   UNL     1       0.741   9.319  17.494  0.00  0.00    +0.000 OA
ATOM      3  N   UNL     1       2.018   8.478  19.274  0.00  0.00    +0.000 N 
ATOM      4  H   UNL     1       2.173   8.666  20.263  0.00  0.00    +0.000 HD
ENDROOT
BRANCH   1   7
ATOM      5  N   UNL     1      -0.478  11.706  20.819  0.00  0.00    +0.000 N 
ATOM      6  N   UNL     1      -0.380  10.464  20.262  0.00  0.00    +0.000 NA
ATOM      7  C   UNL     1       0.732  10.509  19.507  0.00  0.00    +0.000 A 
ATOM      8  C   UNL     1       1.409  11.742  19.676  0.00  0.00    +0.000 A 
ATOM      9  C   UNL     1       0.641  12.483  20.548  0.00  0.00    +0.000 A 
ATOM     10  C   UNL     1       0.955  13.793  21.183  0.00  0.00    +0.000 C 
BRANCH   5  15
ATOM     11  C   UNL     1      -5.195  13.001  23.789  0.00  0.00    +0.000 C 
ATOM     12  C   UNL     1      -3.955  12.682  23.009  0.00  0.00    +0.000 A 
ATOM     13  C   UNL     1      -3.835  13.046  21.662  0.00  0.00    +0.000 A 
ATOM     14  C   UNL     1      -2.671  12.744  20.949  0.00  0.00    +0.000 A 
ATOM     15  C   UNL     1      -1.631  12.044  21.570  0.00  0.00    +0.000 A 
ATOM     16  C   UNL     1      -1.736  11.711  22.925  0.00  0.00    +0.000 A 
ATOM     17  C   UNL     1      -2.891  12.030  23.638  0.00  0.00    +0.000 A 
ENDBRANCH   5  15
ENDBRANCH   1   7
BRANCH   3  18
ATOM     18  C   UNL     1       2.583   7.308  18.695  0.00  0.00    +0.000 A 
ATOM     19  C   UNL     1       2.105   6.042  19.061  0.00  0.00    +0.000 A 
ATOM     20  C   UNL     1       2.668   4.886  18.543  0.00  0.00    +0.000 A 
ATOM     21  C   UNL     1       3.708   4.990  17.630  0.00  0.00    +0.000 A 
ATOM     22  C   UNL     1       4.217   6.230  17.194  0.00  0.00    +0.000 A 
ATOM     23  C   UNL     1       3.629   7.398  17.732  0.00  0.00    +0.000 A 
BRANCH  22  24
ATOM     24  C   UNL     1       5.386   6.086  16.223  0.00  0.00    +0.000 C 
ATOM     25  C   UNL     1       6.877   5.995  16.564  0.00  0.00    +0.000 C 
ATOM     26  N   UNL     1       7.450   5.264  15.449  0.00  0.00    +0.000 N 
ATOM     27  C   UNL     1       6.503   4.628  14.669  0.00  0.00    +0.000 C 
ATOM     28  O   UNL     1       6.738   3.963  13.683  0.00  0.00    +0.000 OA
ATOM     29  C   UNL     1       5.161   4.879  15.279  0.00  0.00    +0.000 C 
ATOM     30  H   UNL     1       8.423   5.219  15.195  0.00  0.00    +0.000 HD
ENDBRANCH  22  24
ENDBRANCH   3  18
TORSDOF 4
ENDMDL
MODEL 4
REMARK VINA RESULT:      -8.7      1.020      1.437
REMARK  Name = 
REMARK  6 active torsions:
REMARK  status: ('A' for Active; 'I' for Inactive)
REMARK    1  A    between atoms: C_1  and  C_2
REMARK    2  A    between atoms: C_5  and  N_6
REMARK    3  A    between atoms: C_8  and  C_9
REMARK    4  A    between atoms: N_11  and  C_12
REMARK    5  A    between atoms: C_16  and  C_17
REMARK    6  A    between atoms: C_25  and  C_26
REMARK                            x       y       z     vdW  Elec       q    Type
REMARK                         _______ _______ _______ _____ _____    ______ ____
ROOT
ATOM      1  C   UNL     1       8.094   7.533  18.469  0.00  0.00    +0.000 C 
ATOM      2  O   UNL     1       8.813   7.000  19.316  0.00  0.00    +0.000 OA
ATOM      3  N   UNL     1       8.068   8.893  18.147  0.00  0.00    +0.000 N 
ATOM      4  H   UNL     1       7.332   9.149  17.490  0.00  0.00    +0.000 HD
ENDROOT
BRANCH   1   7
ATOM      5  N   UNL     1       5.410   5.480  17.307  0.00  0.00    +0.000 N 
ATOM      6  N   UNL     1       5.970   6.272  18.267  0.00  0.00    +0.000 NA
ATOM      7  C   UNL     1       7.120   6.711  17.727  0.00  0.00    +0.000 A 
ATOM      8  C   UNL     1       7.238   6.296  16.378  0.00  0.00    +0.000 A 
ATOM      9  C   UNL     1       6.116   5.540  16.112  0.00  0.00    +0.000 A 
ATOM     10  C   UNL     1       5.658   4.981  14.810  0.00  0.00    +0.000 C 
BRANCH   5  15
ATOM     11  C   UNL     1       0.739   2.447  18.623  0.00  0.00    +0.000 C 
ATOM     12  C   UNL     1       1.963   3.233  18.259  0.00  0.00    +0.000 A 
ATOM     13  C   UNL     1       3.177   2.593  17.979  0.00  0.00    +0.000 A 
ATOM     14  C   UNL     1       4.308   3.340  17.638  0.00  0.00    +0.000 A 
ATOM     15  C   UNL     1       4.242   4.737  17.609  0.00  0.00    +0.000 A 
ATOM     16  C   UNL     1       3.021   5.376  17.854  0.00  0.00    +0.000 A 
ATOM     17  C   UNL     1       1.890   4.627  18.177  0.00  0.00    +0.000 A 
ENDBRANCH   5  15
ENDBRANCH   1   7
BRANCH   3  18
ATOM     18  C   UNL     1       8.883   9.915  18.706  0.00  0.00    +0.000 A 
ATOM     19  C   UNL     1       8.985  10.051  20.097  0.00  0.00    +0.000 A 
ATOM     20  C   UNL     1       9.738  11.066  20.665  0.00  0.00    +0.000 A 
ATOM     21  C   UNL     1      10.419  11.947  19.839  0.00  0.00    +0.000 A 
ATOM     22  C   UNL     1      10.388  11.852  18.432  0.00  0.00    +0.000 A 
ATOM     23  C   UNL     1       9.615  10.809  17.871  0.00  0.00    +0.000 A 
BRANCH  22  24
ATOM     24  C   UNL     1      11.179  12.959  17.741  0.00  0.00    +0.000 C 
ATOM     25  C   UNL     1      11.129  13.359  16.262  0.00  0.00    +0.000 C 
ATOM     26  N   UNL     1      11.520  14.756  16.262  0.00  0.00    +0.000 N 
ATOM     27  C   UNL     1      11.478  15.336  17.516  0.00  0.00    +0.000 C 
ATOM     28  O   UNL     1      11.765  16.486  17.768  0.00  0.00    +0.000 OA
ATOM     29  C   UNL     1      10.987  14.305  18.482  0.00  0.00    +0.000 C 
ATOM     30  H   UNL     1      11.835  15.292  15.471  0.00  0.00    +0.000 HD
ENDBRANCH  22  24
ENDBRANCH   3  18
TORSDOF 4
ENDMDL
MODEL 5
REMARK VINA RESULT:      -8.7      7.337     10.307
REMARK  Name = 
REMARK  6 active torsions:
REMARK  status: ('A' for Active; 'I' for Inactive)
REMARK    1  A    between atoms: C_1  and  C_2
REMARK    2  A    between atoms: C_5  and  N_6
REMARK    3  A    between atoms: C_8  and  C_9
REMARK    4  A    between atoms: N_11  and  C_12
REMARK    5  A    between atoms: C_16  and  C_17
REMARK    6  A    between atoms: C_25  and  C_26
REMARK                            x       y       z     vdW  Elec       q    Type
REMARK                         _______ _______ _______ _____ _____    ______ ____
ROOT
ATOM      1  C   UNL     1       1.169   8.920  21.102  0.00  0.00    +0.000 C 
ATOM      2  O   UNL     1       1.826   8.739  22.129  0.00  0.00    +0.000 OA
ATOM      3  N   UNL     1       1.249   8.167  19.927  0.00  0.00    +0.000 N 
ATOM      4  H   UNL     1       0.696   8.540  19.158  0.00  0.00    +0.000 HD
ENDROOT
BRANCH   1   7
ATOM      5  N   UNL     1      -0.958  11.741  21.642  0.00  0.00    +0.000 N 
ATOM      6  N   UNL     1       0.051  10.918  22.052  0.00  0.00    +0.000 NA
ATOM      7  C   UNL     1       0.226  10.052  21.039  0.00  0.00    +0.000 A 
ATOM      8  C   UNL     1      -0.589  10.395  19.933  0.00  0.00    +0.000 A 
ATOM      9  C   UNL     1      -1.314  11.502  20.321  0.00  0.00    +0.000 A 
ATOM     10  C   UNL     1      -2.214  12.360  19.501  0.00  0.00    +0.000 C 
BRANCH   5  15
ATOM     11  C   UNL     1      -3.104  15.511  25.375  0.00  0.00    +0.000 C 
ATOM     12  C   UNL     1      -2.557  14.527  24.384  0.00  0.00    +0.000 A 
ATOM     13  C   UNL     1      -3.253  13.352  24.073  0.00  0.00    +0.000 A 
ATOM     14  C   UNL     1      -2.732  12.446  23.145  0.00  0.00    +0.000 A 
ATOM     15  C   UNL     1      -1.492  12.693  22.546  0.00  0.00    +0.000 A 
ATOM     16  C   UNL     1      -0.813  13.883  22.830  0.00  0.00    +0.000 A 
ATOM     17  C   UNL     1      -1.344  14.793  23.743  0.00  0.00    +0.000 A 
ENDBRANCH   5  15
ENDBRANCH   1   7
BRANCH   3  18
ATOM     18  C   UNL     1       2.076   7.033  19.699  0.00  0.00    +0.000 A 
ATOM     19  C   UNL     1       1.913   5.877  20.476  0.00  0.00    +0.000 A 
ATOM     20  C   UNL     1       2.735   4.775  20.301  0.00  0.00    +0.000 A 
ATOM     21  C   UNL     1       3.719   4.812  19.324  0.00  0.00    +0.000 A 
ATOM     22  C   UNL     1       3.918   5.928  18.486  0.00  0.00    +0.000 A 
ATOM     23  C   UNL     1       3.069   7.043  18.678  0.00  0.00    +0.000 A 
BRANCH  22  24
ATOM     24  C   UNL     1       5.087   5.749  17.521  0.00  0.00    +0.000 C 
ATOM     25  C   UNL     1       5.995   6.838  16.941  0.00  0.00    +0.000 C 
ATOM     26  N   UNL     1       7.236   6.145  16.648  0.00  0.00    +0.000 N 
ATOM     27  C   UNL     1       7.326   4.906  17.255  0.00  0.00    +0.000 C 
ATOM     28  O   UNL     1       8.261   4.142  17.156  0.00  0.00    +0.000 OA
ATOM     29  C   UNL     1       6.090   4.705  18.073  0.00  0.00    +0.000 C 
ATOM     30  H   UNL     1       7.975   6.463  16.044  0.00  0.00    +0.000 HD
ENDBRANCH  22  24
ENDBRANCH   3  18
TORSDOF 4
ENDMDL
MODEL 6
REMARK VINA RESULT:      -8.7      6.500      9.692
REMARK  Name = 
REMARK  6 active torsions:
REMARK  status: ('A' for Active; 'I' for Inactive)
REMARK    1  A    between atoms: C_1  and  C_2
REMARK    2  A    between atoms: C_5  and  N_6
REMARK    3  A    between atoms: C_8  and  C_9
REMARK    4  A    between atoms: N_11  and  C_12
REMARK    5  A    between atoms: C_16  and  C_17
REMARK    6  A    between atoms: C_25  and  C_26
REMARK                            x       y       z     vdW  Elec       q    Type
REMARK                         _______ _______ _______ _____ _____    ______ ____
ROOT
ATOM      1  C   UNL     1       1.607   8.973  18.399  0.00  0.00    +0.000 C 
ATOM      2  O   UNL     1       2.219   9.154  17.345  0.00  0.00    +0.000 OA
ATOM      3  N   UNL     1       1.758   7.886  19.265  0.00  0.00    +0.000 N 
ATOM      4  H   UNL     1       1.087   7.871  20.032  0.00  0.00    +0.000 HD
ENDROOT
BRANCH   1   7
ATOM      5  N   UNL     1      -0.470  11.427  19.959  0.00  0.00    +0.000 N 
ATOM      6  N   UNL     1       0.724  10.774  19.855  0.00  0.00    +0.000 NA
ATOM      7  C   UNL     1       0.574   9.942  18.810  0.00  0.00    +0.000 A 
ATOM      8  C   UNL     1      -0.673  10.149  18.172  0.00  0.00    +0.000 A 
ATOM      9  C   UNL     1      -1.315  11.129  18.897  0.00  0.00    +0.000 A 
ATOM     10  C   UNL     1      -2.591  11.833  18.587  0.00  0.00    +0.000 C 
BRANCH   5  15
ATOM     11  C   UNL     1      -1.347  14.827  24.478  0.00  0.00    +0.000 C 
ATOM     12  C   UNL     1      -1.137  13.937  23.289  0.00  0.00    +0.000 A 
ATOM     13  C   UNL     1      -1.726  12.669  23.223  0.00  0.00    +0.000 A 
ATOM     14  C   UNL     1      -1.524  11.852  22.107  0.00  0.00    +0.000 A 
ATOM     15  C   UNL     1      -0.701  12.286  21.062  0.00  0.00    +0.000 A 
ATOM     16  C   UNL     1      -0.141  13.568  21.111  0.00  0.00    +0.000 A 
ATOM     17  C   UNL     1      -0.360  14.386  22.218  0.00  0.00    +0.000 A 
ENDBRANCH   5  15
ENDBRANCH   1   7
BRANCH   3  18
ATOM     18  C   UNL     1       2.665   6.801  19.118  0.00  0.00    +0.000 A 
ATOM     19  C   UNL     1       2.483   5.627  19.861  0.00  0.00    +0.000 A 
ATOM     20  C   UNL     1       3.378   4.573  19.767  0.00  0.00    +0.000 A 
ATOM     21  C   UNL     1       4.458   4.677  18.903  0.00  0.00    +0.000 A 
ATOM     22  C   UNL     1       4.686   5.815  18.102  0.00  0.00    +0.000 A 
ATOM     23  C   UNL     1       3.761   6.879  18.211  0.00  0.00    +0.000 A 
BRANCH  22  24
ATOM     24  C   UNL     1       5.960   5.712  17.269  0.00  0.00    +0.000 C 
ATOM     25  C   UNL     1       7.131   4.744  17.468  0.00  0.00    +0.000 C 
ATOM     26  N   UNL     1       7.713   4.616  16.145  0.00  0.00    +0.000 N 
ATOM     27  C   UNL     1       6.890   5.088  15.138  0.00  0.00    +0.000 C 
ATOM     28  O   UNL     1       7.158   5.093  13.957  0.00  0.00    +0.000 OA
ATOM     29  C   UNL     1       5.614   5.550  15.767  0.00  0.00    +0.000 C 
ATOM     30  H   UNL     1       8.629   4.266  15.921  0.00  0.00    +0.000 HD
ENDBRANCH  22  24
ENDBRANCH   3  18
TORSDOF 4
ENDMDL
MODEL 7
REMARK VINA RESULT:      -8.6      6.702      9.780
REMARK  Name = 
REMARK  6 active torsions:
REMARK  status: ('A' for Active; 'I' for Inactive)
REMARK    1  A    between atoms: C_1  and  C_2
REMARK    2  A    between atoms: C_5  and  N_6
REMARK    3  A    between atoms: C_8  and  C_9
REMARK    4  A    between atoms: N_11  and  C_12
REMARK    5  A    between atoms: C_16  and  C_17
REMARK    6  A    between atoms: C_25  and  C_26
REMARK                            x       y       z     vdW  Elec       q    Type
REMARK                         _______ _______ _______ _____ _____    ______ ____
ROOT
ATOM      1  C   UNL     1       1.234   9.223  18.405  0.00  0.00    +0.000 C 
ATOM      2  O   UNL     1       0.745   9.103  17.281  0.00  0.00    +0.000 OA
ATOM      3  N   UNL     1       2.143   8.348  19.008  0.00  0.00    +0.000 N 
ATOM      4  H   UNL     1       2.350   8.571  19.980  0.00  0.00    +0.000 HD
ENDROOT
BRANCH   1   7
ATOM      5  N   UNL     1      -0.352  11.577  20.576  0.00  0.00    +0.000 N 
ATOM      6  N   UNL     1      -0.267  10.324  20.041  0.00  0.00    +0.000 NA
ATOM      7  C   UNL     1       0.822  10.356  19.254  0.00  0.00    +0.000 A 
ATOM      8  C   UNL     1       1.501  11.593  19.379  0.00  0.00    +0.000 A 
ATOM      9  C   UNL     1       0.757  12.350  20.258  0.00  0.00    +0.000 A 
ATOM     10  C   UNL     1       1.087  13.673  20.857  0.00  0.00    +0.000 C 
BRANCH   5  15
ATOM     11  C   UNL     1      -4.859  13.066  23.774  0.00  0.00    +0.000 C 
ATOM     12  C   UNL     1      -3.682  12.656  22.939  0.00  0.00    +0.000 A 
ATOM     13  C   UNL     1      -2.599  11.970  23.503  0.00  0.00    +0.000 A 
ATOM     14  C   UNL     1      -1.511  11.592  22.712  0.00  0.00    +0.000 A 
ATOM     15  C   UNL     1      -1.484  11.928  21.354  0.00  0.00    +0.000 A 
ATOM     16  C   UNL     1      -2.581  12.581  20.781  0.00  0.00    +0.000 A 
ATOM     17  C   UNL     1      -3.672  12.941  21.571  0.00  0.00    +0.000 A 
ENDBRANCH   5  15
ENDBRANCH   1   7
BRANCH   3  18
ATOM     18  C   UNL     1       2.702   7.174  18.433  0.00  0.00    +0.000 A 
ATOM     19  C   UNL     1       2.056   5.940  18.587  0.00  0.00    +0.000 A 
ATOM     20  C   UNL     1       2.604   4.775  18.073  0.00  0.00    +0.000 A 
ATOM     21  C   UNL     1       3.801   4.840  17.375  0.00  0.00    +0.000 A 
ATOM     22  C   UNL     1       4.489   6.051  17.155  0.00  0.00    +0.000 A 
ATOM     23  C   UNL     1       3.914   7.229  17.686  0.00  0.00    +0.000 A 
BRANCH  22  24
ATOM     24  C   UNL     1       5.803   5.863  16.401  0.00  0.00    +0.000 C 
ATOM     25  C   UNL     1       7.028   5.057  16.846  0.00  0.00    +0.000 C 
ATOM     26  N   UNL     1       7.673   4.680  15.602  0.00  0.00    +0.000 N 
ATOM     27  C   UNL     1       6.864   4.849  14.493  0.00  0.00    +0.000 C 
ATOM     28  O   UNL     1       7.182   4.609  13.349  0.00  0.00    +0.000 OA
ATOM     29  C   UNL     1       5.534   5.341  14.967  0.00  0.00    +0.000 C 
ATOM     30  H   UNL     1       8.620   4.359  15.488  0.00  0.00    +0.000 HD
ENDBRANCH  22  24
ENDBRANCH   3  18
TORSDOF 4
ENDMDL
MODEL 8
REMARK VINA RESULT:      -8.6      7.027     10.047
REMARK  Name = 
REMARK  6 active torsions:
REMARK  status: ('A' for Active; 'I' for Inactive)
REMARK    1  A    between atoms: C_1  and  C_2
REMARK    2  A    between atoms: C_5  and  N_6
REMARK    3  A    between atoms: C_8  and  C_9
REMARK    4  A    between atoms: N_11  and  C_12
REMARK    5  A    between atoms: C_16  and  C_17
REMARK    6  A    between atoms: C_25  and  C_26
REMARK                            x       y       z     vdW  Elec       q    Type
REMARK                         _______ _______ _______ _____ _____    ______ ____
ROOT
ATOM      1  C   UNL     1       1.317   8.601  20.408  0.00  0.00    +0.000 C 
ATOM      2  O   UNL     1       1.567   8.026  21.468  0.00  0.00    +0.000 OA
ATOM      3  N   UNL     1       1.781   8.235  19.141  0.00  0.00    +0.000 N 
ATOM      4  H   UNL     1       1.544   8.898  18.405  0.00  0.00    +0.000 HD
ENDROOT
BRANCH   1   7
ATOM      5  N   UNL     1      -0.630  11.501  21.163  0.00  0.00    +0.000 N 
ATOM      6  N   UNL     1       0.236  10.518  21.547  0.00  0.00    +0.000 NA
ATOM      7  C   UNL     1       0.489   9.821  20.426  0.00  0.00    +0.000 A 
ATOM      8  C   UNL     1      -0.119  10.431  19.302  0.00  0.00    +0.000 A 
ATOM      9  C   UNL     1      -0.801  11.527  19.784  0.00  0.00    +0.000 A 
ATOM     10  C   UNL     1      -1.495  12.603  19.021  0.00  0.00    +0.000 C 
BRANCH   5  15
ATOM     11  C   UNL     1      -3.014  14.959  25.049  0.00  0.00    +0.000 C 
ATOM     12  C   UNL     1      -2.373  14.051  24.043  0.00  0.00    +0.000 A 
ATOM     13  C   UNL     1      -1.190  14.417  23.389  0.00  0.00    +0.000 A 
ATOM     14  C   UNL     1      -0.603  13.558  22.456  0.00  0.00    +0.000 A 
ATOM     15  C   UNL     1      -1.215  12.339  22.145  0.00  0.00    +0.000 A 
ATOM     16  C   UNL     1      -2.377  11.956  22.823  0.00  0.00    +0.000 A 
ATOM     17  C   UNL     1      -2.951  12.808  23.766  0.00  0.00    +0.000 A 
ENDBRANCH   5  15
ENDBRANCH   1   7
BRANCH   3  18
ATOM     18  C   UNL     1       2.601   7.117  18.826  0.00  0.00    +0.000 A 
ATOM     19  C   UNL     1       2.472   5.924  19.551  0.00  0.00    +0.000 A 
ATOM     20  C   UNL     1       3.289   4.835  19.291  0.00  0.00    +0.000 A 
ATOM     21  C   UNL     1       4.235   4.925  18.280  0.00  0.00    +0.000 A 
ATOM     22  C   UNL     1       4.399   6.081  17.491  0.00  0.00    +0.000 A 
ATOM     23  C   UNL     1       3.555   7.181  17.770  0.00  0.00    +0.000 A 
BRANCH  22  24
ATOM     24  C   UNL     1       5.531   5.955  16.474  0.00  0.00    +0.000 C 
ATOM     25  C   UNL     1       7.019   5.724  16.757  0.00  0.00    +0.000 C 
ATOM     26  N   UNL     1       7.509   5.071  15.558  0.00  0.00    +0.000 N 
ATOM     27  C   UNL     1       6.499   4.586  14.748  0.00  0.00    +0.000 C 
ATOM     28  O   UNL     1       6.660   4.010  13.694  0.00  0.00    +0.000 OA
ATOM     29  C   UNL     1       5.195   4.868  15.422  0.00  0.00    +0.000 C 
ATOM     30  H   UNL     1       8.469   4.983  15.270  0.00  0.00    +0.000 HD
ENDBRANCH  22  24
ENDBRANCH   3  18
TORSDOF 4
ENDMDL
MODEL 9
REMARK VINA RESULT:      -8.6      6.634     10.458
REMARK  Name = 
REMARK  6 active torsions:
REMARK  status: ('A' for Active; 'I' for Inactive)
REMARK    1  A    between atoms: C_1  and  C_2
REMARK    2  A    between atoms: C_5  and  N_6
REMARK    3  A    between atoms: C_8  and  C_9
REMARK    4  A    between atoms: N_11  and  C_12
REMARK    5  A    between atoms: C_16  and  C_17
REMARK    6  A    between atoms: C_25  and  C_26
REMARK                            x       y       z     vdW  Elec       q    Type
REMARK                         _______ _______ _______ _____ _____    ______ ____
ROOT
ATOM      1  C   UNL     1       1.371   9.080  19.092  0.00  0.00    +0.000 C 
ATOM      2  O   UNL     1       1.598   8.617  20.211  0.00  0.00    +0.000 OA
ATOM      3  N   UNL     1       1.924   8.638  17.887  0.00  0.00    +0.000 N 
ATOM      4  H   UNL     1       1.686   9.217  17.084  0.00  0.00    +0.000 HD
ENDROOT
BRANCH   1   7
ATOM      5  N   UNL     1      -1.323  11.396  18.701  0.00  0.00    +0.000 N 
ATOM      6  N   UNL     1      -0.869  10.129  18.925  0.00  0.00    +0.000 NA
ATOM      7  C   UNL     1       0.470  10.241  18.961  0.00  0.00    +0.000 A 
ATOM      8  C   UNL     1       0.868  11.598  18.879  0.00  0.00    +0.000 A 
ATOM      9  C   UNL     1      -0.294  12.329  18.751  0.00  0.00    +0.000 A 
ATOM     10  C   UNL     1      -0.470  13.808  18.772  0.00  0.00    +0.000 C 
BRANCH   5  15
ATOM     11  C   UNL     1      -6.913  12.156  17.740  0.00  0.00    +0.000 C 
ATOM     12  C   UNL     1      -5.444  11.971  17.978  0.00  0.00    +0.000 A 
ATOM     13  C   UNL     1      -4.605  11.474  16.972  0.00  0.00    +0.000 A 
ATOM     14  C   UNL     1      -3.238  11.310  17.208  0.00  0.00    +0.000 A 
ATOM     15  C   UNL     1      -2.703  11.612  18.466  0.00  0.00    +0.000 A 
ATOM     16  C   UNL     1      -3.533  12.142  19.460  0.00  0.00    +0.000 A 
ATOM     17  C   UNL     1      -4.894  12.320  19.215  0.00  0.00    +0.000 A 
ENDBRANCH   5  15
ENDBRANCH   1   7
BRANCH   3  18
ATOM     18  C   UNL     1       2.827   7.552  17.714  0.00  0.00    +0.000 A 
ATOM     19  C   UNL     1       3.967   7.708  16.915  0.00  0.00    +0.000 A 
ATOM     20  C   UNL     1       4.838   6.652  16.696  0.00  0.00    +0.000 A 
ATOM     21  C   UNL     1       4.585   5.429  17.299  0.00  0.00    +0.000 A 
ATOM     22  C   UNL     1       3.475   5.210  18.141  0.00  0.00    +0.000 A 
ATOM     23  C   UNL     1       2.598   6.299  18.353  0.00  0.00    +0.000 A 
BRANCH  22  24
ATOM     24  C   UNL     1       3.386   3.774  18.650  0.00  0.00    +0.000 C 
ATOM     25  C   UNL     1       3.289   2.492  17.816  0.00  0.00    +0.000 C 
ATOM     26  N   UNL     1       3.855   1.469  18.676  0.00  0.00    +0.000 N 
ATOM     27  C   UNL     1       4.563   1.984  19.746  0.00  0.00    +0.000 C 
ATOM     28  O   UNL     1       5.120   1.329  20.600  0.00  0.00    +0.000 OA
ATOM     29  C   UNL     1       4.546   3.475  19.632  0.00  0.00    +0.000 C 
ATOM     30  H   UNL     1       3.745   0.473  18.579  0.00  0.00    +0.000 HD
ENDBRANCH  22  24
ENDBRANCH   3  18
TORSDOF 4
ENDMDL
