MODEL 1
REMARK VINA RESULT:      -9.1      0.000      0.000
REMARK  Name = 
REMARK  3 active torsions:
REMARK  status: ('A' for Active; 'I' for Inactive)
REMARK    1  A    between atoms: C_2  and  C_20
REMARK    2  A    between atoms: N_3  and  C_4
REMARK    3  A    between atoms: C_8  and  C_9
REMARK                            x       y       z     vdW  Elec       q    Type
REMARK                         _______ _______ _______ _____ _____    ______ ____
ROOT
ATOM      1  O   UNL     1       2.095   7.784  18.197  0.00  0.00    +0.000 OA
ATOM      2  C   UNL     1       2.418   7.214  19.230  0.00  0.00    +0.000 C 
ATOM      3  N   UNL     1       2.084   7.587  20.523  0.00  0.00    +0.000 N 
ATOM      4  H   UNL     1       2.375   6.952  21.257  0.00  0.00    +0.000 HD
ENDROOT
BRANCH   2   5
ATOM      5  C   UNL     1       2.970   5.876  19.210  0.00  0.00    +0.000 A 
ATOM      6  N   UNL     1       4.188   5.597  19.802  0.00  0.00    +0.000 N 
ATOM      7  C   UNL     1       4.966   5.117  18.763  0.00  0.00    +0.000 A 
ATOM      8  C   UNL     1       6.336   5.239  18.531  0.00  0.00    +0.000 A 
ATOM      9  C   UNL     1       6.785   4.849  17.268  0.00  0.00    +0.000 A 
ATOM     10  C   UNL     1       5.918   4.265  16.348  0.00  0.00    +0.000 A 
ATOM     11  F   UNL     1       6.374   3.967  15.124  0.00  0.00    +0.000 F 
ATOM     12  C   UNL     1       4.569   4.046  16.633  0.00  0.00    +0.000 A 
ATOM     13  C   UNL     1       4.071   4.549  17.849  0.00  0.00    +0.000 A 
ATOM     14  C   UNL     1       2.759   4.824  18.336  0.00  0.00    +0.000 A 
ATOM     15 CL   UNL     1       1.323   4.449  17.497  0.00  0.00    +0.000 Cl
ATOM     16  H   UNL     1       4.565   6.143  20.565  0.00  0.00    +0.000 HD
ENDBRANCH   2   5
BRANCH   3  17
ATOM     17  C   UNL     1       1.163   8.566  20.934  0.00  0.00    +0.000 A 
ATOM     18  C   UNL     1       0.475   8.506  22.142  0.00  0.00    +0.000 A 
ATOM     19  C   UNL     1      -0.429   9.509  22.478  0.00  0.00    +0.000 A 
ATOM     20  C   UNL     1      -0.620  10.596  21.625  0.00  0.00    +0.000 A 
ATOM     21  C   UNL     1       0.137  10.732  20.454  0.00  0.00    +0.000 A 
ATOM     22  C   UNL     1       0.994   9.672  20.084  0.00  0.00    +0.000 A 
BRANCH  21  23
ATOM     23  C   UNL     1       0.101  11.963  19.655  0.00  0.00    +0.000 A 
ATOM     24  N   UNL     1      -0.630  12.163  18.574  0.00  0.00    +0.000 NA
ATOM     25  N   UNL     1      -0.370  13.424  18.098  0.00  0.00    +0.000 NA
ATOM     26  C   UNL     1       0.542  13.981  18.869  0.00  0.00    +0.000 A 
ATOM     27  N   UNL     1       0.892  13.082  19.846  0.00  0.00    +0.000 N 
ATOM     28  C   UNL     1       1.915  13.243  20.863  0.00  0.00    +0.000 C 
ATOM     29  C   UNL     1       3.157  14.000  20.419  0.00  0.00    +0.000 C 
ATOM     30  C   UNL     1       2.981  15.515  20.418  0.00  0.00    +0.000 C 
ATOM     31  C   UNL     1       1.615  16.016  19.943  0.00  0.00    +0.000 C 
ATOM     32  C   UNL     1       1.123  15.342  18.667  0.00  0.00    +0.000 C 
ENDBRANCH  21  23
ENDBRANCH   3  17
TORSDOF 3
ENDMDL
MODEL 2
REMARK VINA RESULT:      -9.1      1.984      2.447
REMARK  Name = 
REMARK  3 active torsions:
REMARK  status: ('A' for Active; 'I' for Inactive)
REMARK    1  A    between atoms: C_2  and  C_20
REMARK    2  A    between atoms: N_3  and  C_4
REMARK    3  A    between atoms: C_8  and  C_9
REMARK                            x       y       z     vdW  Elec       q    Type
REMARK                         _______ _______ _______ _____ _____    ______ ____
ROOT
ATOM      1  O   UNL     1       1.833   5.152  17.963  0.00  0.00    +0.000 OA
ATOM      2  C   UNL     1       2.772   5.918  17.793  0.00  0.00    +0.000 C 
ATOM      3  N   UNL     1       2.868   7.224  18.249  0.00  0.00    +0.000 N 
ATOM      4  H   UNL     1       3.753   7.689  18.081  0.00  0.00    +0.000 HD
ENDROOT
BRANCH   2   5
ATOM      5  C   UNL     1       4.056   5.445  17.323  0.00  0.00    +0.000 A 
ATOM      6  N   UNL     1       4.771   4.497  18.032  0.00  0.00    +0.000 N 
ATOM      7  C   UNL     1       5.965   5.129  18.333  0.00  0.00    +0.000 A 
ATOM      8  C   UNL     1       6.793   5.008  19.448  0.00  0.00    +0.000 A 
ATOM      9  C   UNL     1       7.807   5.959  19.570  0.00  0.00    +0.000 A 
ATOM     10  C   UNL     1       8.034   6.896  18.565  0.00  0.00    +0.000 A 
ATOM     11  F   UNL     1       8.973   7.833  18.752  0.00  0.00    +0.000 F 
ATOM     12  C   UNL     1       7.268   6.937  17.400  0.00  0.00    +0.000 A 
ATOM     13  C   UNL     1       6.161   6.072  17.317  0.00  0.00    +0.000 A 
ATOM     14  C   UNL     1       4.994   6.043  16.500  0.00  0.00    +0.000 A 
ATOM     15 CL   UNL     1       4.699   7.111  15.204  0.00  0.00    +0.000 Cl
ATOM     16  H   UNL     1       4.331   3.827  18.649  0.00  0.00    +0.000 HD
ENDBRANCH   2   5
BRANCH   3  17
ATOM     17  C   UNL     1       2.023   7.894  19.150  0.00  0.00    +0.000 A 
ATOM     18  C   UNL     1       1.869   7.511  20.480  0.00  0.00    +0.000 A 
ATOM     19  C   UNL     1       1.007   8.218  21.311  0.00  0.00    +0.000 A 
ATOM     20  C   UNL     1       0.324   9.335  20.829  0.00  0.00    +0.000 A 
ATOM     21  C   UNL     1       0.543   9.802  19.526  0.00  0.00    +0.000 A 
ATOM     22  C   UNL     1       1.359   9.034  18.668  0.00  0.00    +0.000 A 
BRANCH  21  23
ATOM     23  C   UNL     1      -0.002  11.087  19.071  0.00  0.00    +0.000 A 
ATOM     24  N   UNL     1      -1.048  11.248  18.281  0.00  0.00    +0.000 NA
ATOM     25  N   UNL     1      -1.228  12.592  18.063  0.00  0.00    +0.000 NA
ATOM     26  C   UNL     1      -0.274  13.247  18.691  0.00  0.00    +0.000 A 
ATOM     27  N   UNL     1       0.542  12.336  19.314  0.00  0.00    +0.000 N 
ATOM     28  C   UNL     1       1.760  12.609  20.056  0.00  0.00    +0.000 C 
ATOM     29  C   UNL     1       2.612  13.742  19.507  0.00  0.00    +0.000 C 
ATOM     30  C   UNL     1       2.113  15.128  19.902  0.00  0.00    +0.000 C 
ATOM     31  C   UNL     1       0.593  15.300  19.910  0.00  0.00    +0.000 C 
ATOM     32  C   UNL     1      -0.097  14.730  18.675  0.00  0.00    +0.000 C 
ENDBRANCH  21  23
ENDBRANCH   3  17
TORSDOF 3
ENDMDL
MODEL 3
REMARK VINA RESULT:      -9.0      3.971      9.638
REMARK  Name = 
REMARK  3 active torsions:
REMARK  status: ('A' for Active; 'I' for Inactive)
REMARK    1  A    between atoms: C_2  and  C_20
REMARK    2  A    between atoms: N_3  and  C_4
REMARK    3  A    between atoms: C_8  and  C_9
REMARK                            x       y       z     vdW  Elec       q    Type
REMARK                         _______ _______ _______ _____ _____    ______ ____
ROOT
ATOM      1  O   UNL     1       2.132   7.458  20.194  0.00  0.00    +0.000 OA
ATOM      2  C   UNL     1       2.199   8.062  19.131  0.00  0.00    +0.000 C 
ATOM      3  N   UNL     1       2.855   7.648  17.982  0.00  0.00    +0.000 N 
ATOM      4  H   UNL     1       2.742   8.241  17.168  0.00  0.00    +0.000 HD
ENDROOT
BRANCH   2   5
ATOM      5  C   UNL     1       1.333   9.187  18.848  0.00  0.00    +0.000 A 
ATOM      6  N   UNL     1       1.601  10.049  17.801  0.00  0.00    +0.000 N 
ATOM      7  C   UNL     1       1.746  11.284  18.408  0.00  0.00    +0.000 A 
ATOM      8  C   UNL     1       2.566  12.361  18.075  0.00  0.00    +0.000 A 
ATOM      9  C   UNL     1       2.662  13.381  19.024  0.00  0.00    +0.000 A 
ATOM     10  C   UNL     1       1.885  13.358  20.179  0.00  0.00    +0.000 A 
ATOM     11  F   UNL     1       2.057  14.320  21.096  0.00  0.00    +0.000 F 
ATOM     12  C   UNL     1       0.984  12.328  20.450  0.00  0.00    +0.000 A 
ATOM     13  C   UNL     1       0.968  11.229  19.570  0.00  0.00    +0.000 A 
ATOM     14  C   UNL     1       0.474   9.896  19.670  0.00  0.00    +0.000 A 
ATOM     15 CL   UNL     1      -0.419   9.297  20.993  0.00  0.00    +0.000 Cl
ATOM     16  H   UNL     1       2.128   9.771  16.984  0.00  0.00    +0.000 HD
ENDBRANCH   2   5
BRANCH   3  17
ATOM     17  C   UNL     1       3.419   6.390  17.710  0.00  0.00    +0.000 A 
ATOM     18  C   UNL     1       2.921   5.201  18.235  0.00  0.00    +0.000 A 
ATOM     19  C   UNL     1       3.538   3.993  17.927  0.00  0.00    +0.000 A 
ATOM     20  C   UNL     1       4.632   3.963  17.062  0.00  0.00    +0.000 A 
ATOM     21  C   UNL     1       5.086   5.133  16.439  0.00  0.00    +0.000 A 
ATOM     22  C   UNL     1       4.503   6.362  16.817  0.00  0.00    +0.000 A 
BRANCH  21  23
ATOM     23  C   UNL     1       6.094   5.092  15.372  0.00  0.00    +0.000 A 
ATOM     24  N   UNL     1       7.225   5.773  15.351  0.00  0.00    +0.000 NA
ATOM     25  N   UNL     1       7.883   5.488  14.179  0.00  0.00    +0.000 NA
ATOM     26  C   UNL     1       7.140   4.661  13.474  0.00  0.00    +0.000 A 
ATOM     27  N   UNL     1       5.986   4.409  14.174  0.00  0.00    +0.000 N 
ATOM     28  C   UNL     1       4.851   3.615  13.741  0.00  0.00    +0.000 C 
ATOM     29  C   UNL     1       4.520   3.711  12.260  0.00  0.00    +0.000 C 
ATOM     30  C   UNL     1       5.409   2.841  11.378  0.00  0.00    +0.000 C 
ATOM     31  C   UNL     1       6.880   2.777  11.791  0.00  0.00    +0.000 C 
ATOM     32  C   UNL     1       7.487   4.137  12.119  0.00  0.00    +0.000 C 
ENDBRANCH  21  23
ENDBRANCH   3  17
TORSDOF 3
ENDMDL
MODEL 4
REMARK VINA RESULT:      -9.0      2.463      3.491
REMARK  Name = 
REMARK  3 active torsions:
REMARK  status: ('A' for Active; 'I' for Inactive)
REMARK    1  A    between atoms: C_2  and  C_20
REMARK    2  A    between atoms: N_3  and  C_4
REMARK    3  A    between atoms: C_8  and  C_9
REMARK                            x       y       z     vdW  Elec       q    Type
REMARK                         _______ _______ _______ _____ _____    ______ ____
ROOT
ATOM      1  O   UNL     1       2.031   5.757  20.672  0.00  0.00    +0.000 OA
ATOM      2  C   UNL     1       2.574   5.695  19.577  0.00  0.00    +0.000 C 
ATOM      3  N   UNL     1       2.588   6.680  18.601  0.00  0.00    +0.000 N 
ATOM      4  H   UNL     1       3.153   6.485  17.783  0.00  0.00    +0.000 HD
ENDROOT
BRANCH   2   5
ATOM      5  C   UNL     1       3.539   4.660  19.273  0.00  0.00    +0.000 A 
ATOM      6  N   UNL     1       4.852   4.763  19.692  0.00  0.00    +0.000 N 
ATOM      7  C   UNL     1       5.585   4.735  18.518  0.00  0.00    +0.000 A 
ATOM      8  C   UNL     1       6.781   5.371  18.187  0.00  0.00    +0.000 A 
ATOM      9  C   UNL     1       7.145   5.337  16.839  0.00  0.00    +0.000 A 
ATOM     10  C   UNL     1       6.402   4.607  15.915  0.00  0.00    +0.000 A 
ATOM     11  F   UNL     1       6.746   4.657  14.621  0.00  0.00    +0.000 F 
ATOM     12  C   UNL     1       5.267   3.882  16.280  0.00  0.00    +0.000 A 
ATOM     13  C   UNL     1       4.811   4.009  17.605  0.00  0.00    +0.000 A 
ATOM     14  C   UNL     1       3.572   3.727  18.251  0.00  0.00    +0.000 A 
ATOM     15 CL   UNL     1       2.242   2.975  17.495  0.00  0.00    +0.000 Cl
ATOM     16  H   UNL     1       5.129   5.302  20.501  0.00  0.00    +0.000 HD
ENDBRANCH   2   5
BRANCH   3  17
ATOM     17  C   UNL     1       2.160   8.014  18.707  0.00  0.00    +0.000 A 
ATOM     18  C   UNL     1       2.189   8.911  17.643  0.00  0.00    +0.000 A 
ATOM     19  C   UNL     1       1.758  10.221  17.826  0.00  0.00    +0.000 A 
ATOM     20  C   UNL     1       1.261  10.630  19.063  0.00  0.00    +0.000 A 
ATOM     21  C   UNL     1       1.124   9.719  20.119  0.00  0.00    +0.000 A 
ATOM     22  C   UNL     1       1.635   8.414  19.948  0.00  0.00    +0.000 A 
BRANCH  21  23
ATOM     23  C   UNL     1       0.414  10.076  21.354  0.00  0.00    +0.000 A 
ATOM     24  N   UNL     1       0.517   9.453  22.513  0.00  0.00    +0.000 NA
ATOM     25  N   UNL     1      -0.320  10.065  23.414  0.00  0.00    +0.000 NA
ATOM     26  C   UNL     1      -0.957  11.038  22.795  0.00  0.00    +0.000 A 
ATOM     27  N   UNL     1      -0.549  11.061  21.484  0.00  0.00    +0.000 N 
ATOM     28  C   UNL     1      -1.046  11.918  20.424  0.00  0.00    +0.000 C 
ATOM     29  C   UNL     1      -2.534  12.228  20.484  0.00  0.00    +0.000 C 
ATOM     30  C   UNL     1      -2.888  13.328  21.479  0.00  0.00    +0.000 C 
ATOM     31  C   UNL     1      -2.095  13.308  22.788  0.00  0.00    +0.000 C 
ATOM     32  C   UNL     1      -1.984  11.925  23.419  0.00  0.00    +0.000 C 
ENDBRANCH  21  23
ENDBRANCH   3  17
TORSDOF 3
ENDMDL
MODEL 5
REMARK VINA RESULT:      -8.9      3.469      9.004
REMARK  Name = 
REMARK  3 active torsions:
REMARK  status: ('A' for Active; 'I' for Inactive)
REMARK    1  A    between atoms: C_2  and  C_20
REMARK    2  A    between atoms: N_3  and  C_4
REMARK    3  A    between atoms: C_8  and  C_9
REMARK                            x       y       z     vdW  Elec       q    Type
REMARK                         _______ _______ _______ _____ _____    ______ ____
ROOT
ATOM      1  O   UNL     1       1.718   8.862  22.172  0.00  0.00    +0.000 OA
ATOM      2  C   UNL     1       1.266   8.930  21.037  0.00  0.00    +0.000 C 
ATOM      3  N   UNL     1       1.410   7.988  20.030  0.00  0.00    +0.000 N 
ATOM      4  H   UNL     1       0.903   8.174  19.172  0.00  0.00    +0.000 HD
ENDROOT
BRANCH   2   5
ATOM      5  C   UNL     1       0.256   9.904  20.686  0.00  0.00    +0.000 A 
ATOM      6  N   UNL     1       0.187  10.435  19.410  0.00  0.00    +0.000 N 
ATOM      7  C   UNL     1       0.352  11.795  19.601  0.00  0.00    +0.000 A 
ATOM      8  C   UNL     1       0.965  12.751  18.791  0.00  0.00    +0.000 A 
ATOM      9  C   UNL     1       1.183  14.003  19.371  0.00  0.00    +0.000 A 
ATOM     10  C   UNL     1       0.705  14.295  20.645  0.00  0.00    +0.000 A 
ATOM     11  F   UNL     1       0.994  15.484  21.191  0.00  0.00    +0.000 F 
ATOM     12  C   UNL     1      -0.006  13.363  21.404  0.00  0.00    +0.000 A 
ATOM     13  C   UNL     1      -0.123  12.058  20.891  0.00  0.00    +0.000 A 
ATOM     14  C   UNL     1      -0.450  10.798  21.472  0.00  0.00    +0.000 A 
ATOM     15 CL   UNL     1      -0.948  10.584  23.088  0.00  0.00    +0.000 Cl
ATOM     16  H   UNL     1       0.532   9.947  18.595  0.00  0.00    +0.000 HD
ENDBRANCH   2   5
BRANCH   3  17
ATOM     17  C   UNL     1       1.926   6.685  20.127  0.00  0.00    +0.000 A 
ATOM     18  C   UNL     1       1.171   5.595  20.553  0.00  0.00    +0.000 A 
ATOM     19  C   UNL     1       1.754   4.335  20.633  0.00  0.00    +0.000 A 
ATOM     20  C   UNL     1       3.082   4.150  20.250  0.00  0.00    +0.000 A 
ATOM     21  C   UNL     1       3.831   5.208  19.718  0.00  0.00    +0.000 A 
ATOM     22  C   UNL     1       3.256   6.498  19.714  0.00  0.00    +0.000 A 
BRANCH  21  23
ATOM     23  C   UNL     1       5.153   4.989  19.119  0.00  0.00    +0.000 A 
ATOM     24  N   UNL     1       6.289   4.862  19.779  0.00  0.00    +0.000 NA
ATOM     25  N   UNL     1       7.306   4.697  18.869  0.00  0.00    +0.000 NA
ATOM     26  C   UNL     1       6.794   4.756  17.657  0.00  0.00    +0.000 A 
ATOM     27  N   UNL     1       5.442   4.972  17.766  0.00  0.00    +0.000 N 
ATOM     28  C   UNL     1       4.495   5.180  16.686  0.00  0.00    +0.000 C 
ATOM     29  C   UNL     1       5.028   5.969  15.500  0.00  0.00    +0.000 C 
ATOM     30  C   UNL     1       5.872   5.135  14.542  0.00  0.00    +0.000 C 
ATOM     31  C   UNL     1       6.791   4.106  15.202  0.00  0.00    +0.000 C 
ATOM     32  C   UNL     1       7.576   4.655  16.389  0.00  0.00    +0.000 C 
ENDBRANCH  21  23
ENDBRANCH   3  17
TORSDOF 3
ENDMDL
MODEL 6
REMARK VINA RESULT:      -8.9      1.230      1.250
REMARK  Name = 
REMARK  3 active torsions:
REMARK  status: ('A' for Active; 'I' for Inactive)
REMARK    1  A    between atoms: C_2  and  C_20
REMARK    2  A    between atoms: N_3  and  C_4
REMARK    3  A    between atoms: C_8  and  C_9
REMARK                            x       y       z     vdW  Elec       q    Type
REMARK                         _______ _______ _______ _____ _____    ______ ____
ROOT
ATOM      1  O   UNL     1       1.159   5.209  20.492  0.00  0.00    +0.000 OA
ATOM      2  C   UNL     1       2.114   5.827  20.042  0.00  0.00    +0.000 C 
ATOM      3  N   UNL     1       2.271   7.205  20.015  0.00  0.00    +0.000 N 
ATOM      4  H   UNL     1       3.163   7.543  19.673  0.00  0.00    +0.000 HD
ENDROOT
BRANCH   2   5
ATOM      5  C   UNL     1       3.361   5.164  19.730  0.00  0.00    +0.000 A 
ATOM      6  N   UNL     1       4.536   5.880  19.592  0.00  0.00    +0.000 N 
ATOM      7  C   UNL     1       4.946   5.611  18.298  0.00  0.00    +0.000 A 
ATOM      8  C   UNL     1       5.622   6.416  17.381  0.00  0.00    +0.000 A 
ATOM      9  C   UNL     1       5.680   5.942  16.069  0.00  0.00    +0.000 A 
ATOM     10  C   UNL     1       5.184   4.683  15.740  0.00  0.00    +0.000 A 
ATOM     11  F   UNL     1       5.198   4.295  14.457  0.00  0.00    +0.000 F 
ATOM     12  C   UNL     1       4.608   3.839  16.690  0.00  0.00    +0.000 A 
ATOM     13  C   UNL     1       4.424   4.350  17.988  0.00  0.00    +0.000 A 
ATOM     14  C   UNL     1       3.611   3.961  19.093  0.00  0.00    +0.000 A 
ATOM     15 CL   UNL     1       2.652   2.552  19.132  0.00  0.00    +0.000 Cl
ATOM     16  H   UNL     1       4.692   6.770  20.046  0.00  0.00    +0.000 HD
ENDBRANCH   2   5
BRANCH   3  17
ATOM     17  C   UNL     1       1.486   8.181  20.652  0.00  0.00    +0.000 A 
ATOM     18  C   UNL     1       1.223   8.176  22.019  0.00  0.00    +0.000 A 
ATOM     19  C   UNL     1       0.429   9.172  22.577  0.00  0.00    +0.000 A 
ATOM     20  C   UNL     1      -0.074  10.199  21.779  0.00  0.00    +0.000 A 
ATOM     21  C   UNL     1       0.262  10.284  20.421  0.00  0.00    +0.000 A 
ATOM     22  C   UNL     1       1.004   9.228  19.849  0.00  0.00    +0.000 A 
BRANCH  21  23
ATOM     23  C   UNL     1      -0.084  11.463  19.617  0.00  0.00    +0.000 A 
ATOM     24  N   UNL     1      -0.961  11.496  18.631  0.00  0.00    +0.000 NA
ATOM     25  N   UNL     1      -0.984  12.767  18.111  0.00  0.00    +0.000 NA
ATOM     26  C   UNL     1      -0.099  13.498  18.756  0.00  0.00    +0.000 A 
ATOM     27  N   UNL     1       0.517  12.707  19.695  0.00  0.00    +0.000 N 
ATOM     28  C   UNL     1       1.608  13.077  20.577  0.00  0.00    +0.000 C 
ATOM     29  C   UNL     1       2.637  14.021  19.973  0.00  0.00    +0.000 C 
ATOM     30  C   UNL     1       2.199  15.482  19.974  0.00  0.00    +0.000 C 
ATOM     31  C   UNL     1       0.720  15.723  19.665  0.00  0.00    +0.000 C 
ATOM     32  C   UNL     1       0.206  14.931  18.467  0.00  0.00    +0.000 C 
ENDBRANCH  21  23
ENDBRANCH   3  17
TORSDOF 3
ENDMDL
MODEL 7
REMARK VINA RESULT:      -8.9      3.496      5.056
REMARK  Name = 
REMARK  3 active torsions:
REMARK  status: ('A' for Active; 'I' for Inactive)
REMARK    1  A    between atoms: C_2  and  C_20
REMARK    2  A    between atoms: N_3  and  C_4
REMARK    3  A    between atoms: C_8  and  C_9
REMARK                            x       y       z     vdW  Elec       q    Type
REMARK                         _______ _______ _______ _____ _____    ______ ____
ROOT
ATOM      1  O   UNL     1       1.371   8.499  17.106  0.00  0.00    +0.000 OA
ATOM      2  C   UNL     1       1.949   8.691  18.167  0.00  0.00    +0.000 C 
ATOM      3  N   UNL     1       1.910   9.845  18.935  0.00  0.00    +0.000 N 
ATOM      4  H   UNL     1       2.389   9.801  19.827  0.00  0.00    +0.000 HD
ENDROOT
BRANCH   2   5
ATOM      5  C   UNL     1       2.534   7.599  18.915  0.00  0.00    +0.000 A 
ATOM      6  N   UNL     1       3.462   6.753  18.336  0.00  0.00    +0.000 N 
ATOM      7  C   UNL     1       2.880   5.501  18.423  0.00  0.00    +0.000 A 
ATOM      8  C   UNL     1       2.959   4.408  17.561  0.00  0.00    +0.000 A 
ATOM      9  C   UNL     1       2.062   3.365  17.803  0.00  0.00    +0.000 A 
ATOM     10  C   UNL     1       1.225   3.384  18.915  0.00  0.00    +0.000 A 
ATOM     11  F   UNL     1       0.333   2.397  19.073  0.00  0.00    +0.000 F 
ATOM     12  C   UNL     1       1.232   4.434  19.834  0.00  0.00    +0.000 A 
ATOM     13  C   UNL     1       2.035   5.552  19.538  0.00  0.00    +0.000 A 
ATOM     14  C   UNL     1       2.061   6.897  20.010  0.00  0.00    +0.000 A 
ATOM     15 CL   UNL     1       1.085   7.492  21.276  0.00  0.00    +0.000 Cl
ATOM     16  H   UNL     1       4.052   7.033  17.564  0.00  0.00    +0.000 HD
ENDBRANCH   2   5
BRANCH   3  17
ATOM     17  C   UNL     1       1.072  10.962  18.782  0.00  0.00    +0.000 A 
ATOM     18  C   UNL     1       1.529  12.275  18.858  0.00  0.00    +0.000 A 
ATOM     19  C   UNL     1       0.638  13.332  18.705  0.00  0.00    +0.000 A 
ATOM     20  C   UNL     1      -0.708  13.082  18.437  0.00  0.00    +0.000 A 
ATOM     21  C   UNL     1      -1.173  11.773  18.253  0.00  0.00    +0.000 A 
ATOM     22  C   UNL     1      -0.278  10.706  18.486  0.00  0.00    +0.000 A 
BRANCH  21  23
ATOM     23  C   UNL     1      -2.532  11.502  17.768  0.00  0.00    +0.000 A 
ATOM     24  N   UNL     1      -2.855  11.114  16.548  0.00  0.00    +0.000 NA
ATOM     25  N   UNL     1      -4.221  10.993  16.476  0.00  0.00    +0.000 NA
ATOM     26  C   UNL     1      -4.732  11.338  17.640  0.00  0.00    +0.000 A 
ATOM     27  N   UNL     1      -3.704  11.699  18.476  0.00  0.00    +0.000 N 
ATOM     28  C   UNL     1      -3.811  12.219  19.827  0.00  0.00    +0.000 C 
ATOM     29  C   UNL     1      -4.996  13.139  20.074  0.00  0.00    +0.000 C 
ATOM     30  C   UNL     1      -6.308  12.396  20.304  0.00  0.00    +0.000 C 
ATOM     31  C   UNL     1      -6.520  11.156  19.434  0.00  0.00    +0.000 C 
ATOM     32  C   UNL     1      -6.190  11.374  17.961  0.00  0.00    +0.000 C 
ENDBRANCH  21  23
ENDBRANCH   3  17
TORSDOF 3
ENDMDL
MODEL 8
REMARK VINA RESULT:      -8.8      3.173      4.558
REMARK  Name = 
REMARK  3 active torsions:
REMARK  status: ('A' for Active; 'I' for Inactive)
REMARK    1  A    between atoms: C_2  and  C_20
REMARK    2  A    between atoms: N_3  and  C_4
REMARK    3  A    between atoms: C_8  and  C_9
REMARK                            x       y       z     vdW  Elec       q    Type
REMARK                         _______ _______ _______ _____ _____    ______ ____
ROOT
ATOM      1  O   UNL     1       4.165   7.241  17.038  0.00  0.00    +0.000 OA
ATOM      2  C   UNL     1       3.594   6.600  17.910  0.00  0.00    +0.000 C 
ATOM      3  N   UNL     1       2.682   7.088  18.833  0.00  0.00    +0.000 N 
ATOM      4  H   UNL     1       2.248   6.397  19.436  0.00  0.00    +0.000 HD
ENDROOT
BRANCH   2   5
ATOM      5  C   UNL     1       3.588   5.153  17.900  0.00  0.00    +0.000 A 
ATOM      6  N   UNL     1       2.488   4.446  17.452  0.00  0.00    +0.000 N 
ATOM      7  C   UNL     1       2.107   3.686  18.544  0.00  0.00    +0.000 A 
ATOM      8  C   UNL     1       0.841   3.276  18.959  0.00  0.00    +0.000 A 
ATOM      9  C   UNL     1       0.761   2.718  20.237  0.00  0.00    +0.000 A 
ATOM     10  C   UNL     1       1.909   2.487  20.991  0.00  0.00    +0.000 A 
ATOM     11  F   UNL     1       1.782   2.014  22.237  0.00  0.00    +0.000 F 
ATOM     12  C   UNL     1       3.184   2.800  20.518  0.00  0.00    +0.000 A 
ATOM     13  C   UNL     1       3.274   3.481  19.289  0.00  0.00    +0.000 A 
ATOM     14  C   UNL     1       4.302   4.241  18.659  0.00  0.00    +0.000 A 
ATOM     15 CL   UNL     1       5.882   4.421  19.274  0.00  0.00    +0.000 Cl
ATOM     16  H   UNL     1       1.827   4.825  16.787  0.00  0.00    +0.000 HD
ENDBRANCH   2   5
BRANCH   3  17
ATOM     17  C   UNL     1       2.068   8.352  18.864  0.00  0.00    +0.000 A 
ATOM     18  C   UNL     1       1.966   9.178  17.748  0.00  0.00    +0.000 A 
ATOM     19  C   UNL     1       1.352  10.421  17.857  0.00  0.00    +0.000 A 
ATOM     20  C   UNL     1       0.803  10.828  19.073  0.00  0.00    +0.000 A 
ATOM     21  C   UNL     1       0.800   9.973  20.183  0.00  0.00    +0.000 A 
ATOM     22  C   UNL     1       1.493   8.747  20.084  0.00  0.00    +0.000 A 
BRANCH  21  23
ATOM     23  C   UNL     1       0.049  10.299  21.401  0.00  0.00    +0.000 A 
ATOM     24  N   UNL     1       0.110   9.645  22.546  0.00  0.00    +0.000 NA
ATOM     25  N   UNL     1      -0.756  10.235  23.433  0.00  0.00    +0.000 NA
ATOM     26  C   UNL     1      -1.369  11.227  22.820  0.00  0.00    +0.000 A 
ATOM     27  N   UNL     1      -0.916  11.283  21.525  0.00  0.00    +0.000 N 
ATOM     28  C   UNL     1      -1.373  12.170  20.471  0.00  0.00    +0.000 C 
ATOM     29  C   UNL     1      -2.861  12.484  20.489  0.00  0.00    +0.000 C 
ATOM     30  C   UNL     1      -3.247  13.557  21.501  0.00  0.00    +0.000 C 
ATOM     31  C   UNL     1      -2.501  13.500  22.835  0.00  0.00    +0.000 C 
ATOM     32  C   UNL     1      -2.415  12.099  23.432  0.00  0.00    +0.000 C 
ENDBRANCH  21  23
ENDBRANCH   3  17
TORSDOF 3
ENDMDL
MODEL 9
REMARK VINA RESULT:      -8.8      2.732      4.407
REMARK  Name = 
REMARK  3 active torsions:
REMARK  status: ('A' for Active; 'I' for Inactive)
REMARK    1  A    between atoms: C_2  and  C_20
REMARK    2  A    between atoms: N_3  and  C_4
REMARK    3  A    between atoms: C_8  and  C_9
REMARK                            x       y       z     vdW  Elec       q    Type
REMARK                         _______ _______ _______ _____ _____    ______ ____
ROOT
ATOM      1  O   UNL     1       4.165   2.911  18.254  0.00  0.00    +0.000 OA
ATOM      2  C   UNL     1       4.490   4.040  17.911  0.00  0.00    +0.000 C 
ATOM      3  N   UNL     1       3.812   5.218  18.188  0.00  0.00    +0.000 N 
ATOM      4  H   UNL     1       4.268   6.073  17.890  0.00  0.00    +0.000 HD
ENDROOT
BRANCH   2   5
ATOM      5  C   UNL     1       5.815   4.321  17.402  0.00  0.00    +0.000 A 
ATOM      6  N   UNL     1       6.933   4.182  18.203  0.00  0.00    +0.000 N 
ATOM      7  C   UNL     1       7.496   5.446  18.220  0.00  0.00    +0.000 A 
ATOM      8  C   UNL     1       8.194   6.108  19.230  0.00  0.00    +0.000 A 
ATOM      9  C   UNL     1       8.428   7.470  19.027  0.00  0.00    +0.000 A 
ATOM     10  C   UNL     1       8.078   8.086  17.828  0.00  0.00    +0.000 A 
ATOM     11  F   UNL     1       8.258   9.407  17.701  0.00  0.00    +0.000 F 
ATOM     12  C   UNL     1       7.479   7.386  16.780  0.00  0.00    +0.000 A 
ATOM     13  C   UNL     1       7.118   6.046  17.014  0.00  0.00    +0.000 A 
ATOM     14  C   UNL     1       6.231   5.139  16.365  0.00  0.00    +0.000 A 
ATOM     15 CL   UNL     1       5.395   5.478  14.918  0.00  0.00    +0.000 Cl
ATOM     16  H   UNL     1       6.965   3.554  18.995  0.00  0.00    +0.000 HD
ENDBRANCH   2   5
BRANCH   3  17
ATOM     17  C   UNL     1       2.730   5.412  19.063  0.00  0.00    +0.000 A 
ATOM     18  C   UNL     1       1.956   4.368  19.563  0.00  0.00    +0.000 A 
ATOM     19  C   UNL     1       0.894   4.638  20.419  0.00  0.00    +0.000 A 
ATOM     20  C   UNL     1       0.623   5.950  20.809  0.00  0.00    +0.000 A 
ATOM     21  C   UNL     1       1.450   7.006  20.403  0.00  0.00    +0.000 A 
ATOM     22  C   UNL     1       2.477   6.732  19.475  0.00  0.00    +0.000 A 
BRANCH  21  23
ATOM     23  C   UNL     1       1.306   8.353  20.968  0.00  0.00    +0.000 A 
ATOM     24  N   UNL     1       1.486   8.685  22.232  0.00  0.00    +0.000 NA
ATOM     25  N   UNL     1       1.234  10.029  22.371  0.00  0.00    +0.000 NA
ATOM     26  C   UNL     1       0.869  10.507  21.199  0.00  0.00    +0.000 A 
ATOM     27  N   UNL     1       0.869   9.478  20.290  0.00  0.00    +0.000 N 
ATOM     28  C   UNL     1       0.460   9.534  18.899  0.00  0.00    +0.000 C 
ATOM     29  C   UNL     1      -0.716  10.453  18.606  0.00  0.00    +0.000 C 
ATOM     30  C   UNL     1      -0.330  11.926  18.507  0.00  0.00    +0.000 C 
ATOM     31  C   UNL     1       0.728  12.395  19.507  0.00  0.00    +0.000 C 
ATOM     32  C   UNL     1       0.476  11.924  20.935  0.00  0.00    +0.000 C 
ENDBRANCH  21  23
ENDBRANCH   3  17
TORSDOF 3
ENDMDL
