MODEL 1
REMARK VINA RESULT:      -8.7      0.000      0.000
REMARK  Name = 
REMARK  5 active torsions:
REMARK  status: ('A' for Active; 'I' for Inactive)
REMARK    1  A    between atoms: C_1  and  C_2
REMARK    2  A    between atoms: C_8  and  C_9
REMARK    3  A    between atoms: C_9  and  C_10
REMARK    4  A    between atoms: C_13  and  C_14
REMARK    5  A    between atoms: N_19  and  C_20
REMARK                            x       y       z     vdW  Elec       q    Type
REMARK                         _______ _______ _______ _____ _____    ______ ____
ROOT
ATOM      1  C   UNL     1       3.508   5.407  18.966  0.00  0.00    +0.000 A 
ATOM      2  N   UNL     1       2.525   5.338  19.882  0.00  0.00    +0.000 NA
ATOM      3  O   UNL     1       1.845   6.555  19.700  0.00  0.00    +0.000 OA
ATOM      4  C   UNL     1       2.563   7.261  18.778  0.00  0.00    +0.000 A 
ATOM      5  N   UNL     1       3.607   6.609  18.323  0.00  0.00    +0.000 NA
ENDROOT
BRANCH   4   6
ATOM      6  C   UNL     1       2.099   8.552  18.325  0.00  0.00    +0.000 C 
ATOM      7  O   UNL     1       2.176   8.886  17.140  0.00  0.00    +0.000 OA
ATOM      8  N   UNL     1       1.577   9.432  19.282  0.00  0.00    +0.000 N 
ATOM      9  C   UNL     1       1.235   9.103  20.681  0.00  0.00    +0.000 C 
ATOM     10  C   UNL     1      -0.267   9.308  20.973  0.00  0.00    +0.000 C 
ATOM     11  N   UNL     1      -0.731  10.607  20.470  0.00  0.00    +0.000 N 
ATOM     12  C   UNL     1      -0.397  10.901  19.064  0.00  0.00    +0.000 C 
ATOM     13  C   UNL     1       1.119  10.754  18.857  0.00  0.00    +0.000 C 
BRANCH  11  14
ATOM     14  C   UNL     1      -1.387  11.537  21.253  0.00  0.00    +0.000 A 
ATOM     15  C   UNL     1      -2.245  12.511  20.710  0.00  0.00    +0.000 A 
ATOM     16  C   UNL     1      -2.929  13.419  21.511  0.00  0.00    +0.000 A 
ATOM     17  C   UNL     1      -2.776  13.395  22.894  0.00  0.00    +0.000 A 
ATOM     18  C   UNL     1      -1.922  12.459  23.466  0.00  0.00    +0.000 A 
ATOM     19  C   UNL     1      -1.233  11.552  22.650  0.00  0.00    +0.000 A 
ENDBRANCH  11  14
ENDBRANCH   4   6
BRANCH   1  20
ATOM     20  C   UNL     1       4.197   4.173  18.371  0.00  0.00    +0.000 C 
ATOM     21  C   UNL     1       4.530   3.188  19.515  0.00  0.00    +0.000 C 
ATOM     22  C   UNL     1       3.520   2.803  18.487  0.00  0.00    +0.000 C 
BRANCH  20  30
ATOM     23  C   UNL     1       7.010   5.351  18.818  0.00  0.00    +0.000 C 
ATOM     24  C   UNL     1       6.490   4.980  17.449  0.00  0.00    +0.000 A 
ATOM     25  C   UNL     1       7.361   5.190  16.355  0.00  0.00    +0.000 A 
ATOM     26  C   UNL     1       6.980   4.828  15.070  0.00  0.00    +0.000 A 
ATOM     27  C   UNL     1       5.746   4.243  14.870  0.00  0.00    +0.000 A 
ATOM     28  F   UNL     1       5.381   3.876  13.636  0.00  0.00    +0.000 F 
ATOM     29  C   UNL     1       4.873   4.023  15.934  0.00  0.00    +0.000 A 
ATOM     30  C   UNL     1       5.203   4.402  17.250  0.00  0.00    +0.000 A 
ENDBRANCH  20  30
ENDBRANCH   1  20
TORSDOF 4
ENDMDL
MODEL 2
REMARK VINA RESULT:      -8.2      3.121      4.761
REMARK  Name = 
REMARK  5 active torsions:
REMARK  status: ('A' for Active; 'I' for Inactive)
REMARK    1  A    between atoms: C_1  and  C_2
REMARK    2  A    between atoms: C_8  and  C_9
REMARK    3  A    between atoms: C_9  and  C_10
REMARK    4  A    between atoms: C_13  and  C_14
REMARK    5  A    between atoms: N_19  and  C_20
REMARK                            x       y       z     vdW  Elec       q    Type
REMARK                         _______ _______ _______ _____ _____    ______ ____
ROOT
ATOM      1  C   UNL     1       2.379   7.523  18.236  0.00  0.00    +0.000 A 
ATOM      2  N   UNL     1       2.624   8.336  17.192  0.00  0.00    +0.000 NA
ATOM      3  O   UNL     1       2.084   9.561  17.620  0.00  0.00    +0.000 OA
ATOM      4  C   UNL     1       1.479   9.316  18.819  0.00  0.00    +0.000 A 
ATOM      5  N   UNL     1       1.609   8.074  19.222  0.00  0.00    +0.000 NA
ENDROOT
BRANCH   4   6
ATOM      6  C   UNL     1       0.863  10.394  19.559  0.00  0.00    +0.000 C 
ATOM      7  O   UNL     1       1.539  11.231  20.162  0.00  0.00    +0.000 OA
ATOM      8  N   UNL     1      -0.536  10.448  19.593  0.00  0.00    +0.000 N 
ATOM      9  C   UNL     1      -1.465   9.652  18.764  0.00  0.00    +0.000 C 
ATOM     10  C   UNL     1      -2.341  10.543  17.858  0.00  0.00    +0.000 C 
ATOM     11  N   UNL     1      -2.925  11.656  18.617  0.00  0.00    +0.000 N 
ATOM     12  C   UNL     1      -1.974  12.449  19.418  0.00  0.00    +0.000 C 
ATOM     13  C   UNL     1      -1.188  11.514  20.352  0.00  0.00    +0.000 C 
BRANCH  11  14
ATOM     14  C   UNL     1      -4.279  11.931  18.647  0.00  0.00    +0.000 A 
ATOM     15  C   UNL     1      -5.127  11.668  17.555  0.00  0.00    +0.000 A 
ATOM     16  C   UNL     1      -6.495  11.913  17.609  0.00  0.00    +0.000 A 
ATOM     17  C   UNL     1      -7.073  12.441  18.760  0.00  0.00    +0.000 A 
ATOM     18  C   UNL     1      -6.263  12.731  19.853  0.00  0.00    +0.000 A 
ATOM     19  C   UNL     1      -4.886  12.485  19.786  0.00  0.00    +0.000 A 
ENDBRANCH  11  14
ENDBRANCH   4   6
BRANCH   1  20
ATOM     20  C   UNL     1       3.196   6.260  18.534  0.00  0.00    +0.000 C 
ATOM     21  C   UNL     1       4.131   5.977  17.336  0.00  0.00    +0.000 C 
ATOM     22  C   UNL     1       4.721   6.360  18.652  0.00  0.00    +0.000 C 
BRANCH  20  30
ATOM     23  C   UNL     1       1.247   4.353  17.100  0.00  0.00    +0.000 C 
ATOM     24  C   UNL     1       1.552   4.247  18.575  0.00  0.00    +0.000 A 
ATOM     25  C   UNL     1       0.904   3.215  19.291  0.00  0.00    +0.000 A 
ATOM     26  C   UNL     1       1.168   3.016  20.639  0.00  0.00    +0.000 A 
ATOM     27  C   UNL     1       2.087   3.827  21.275  0.00  0.00    +0.000 A 
ATOM     28  F   UNL     1       2.358   3.630  22.570  0.00  0.00    +0.000 F 
ATOM     29  C   UNL     1       2.740   4.849  20.588  0.00  0.00    +0.000 A 
ATOM     30  C   UNL     1       2.482   5.107  19.228  0.00  0.00    +0.000 A 
ENDBRANCH  20  30
ENDBRANCH   1  20
TORSDOF 4
ENDMDL
MODEL 3
REMARK VINA RESULT:      -8.0      1.791      2.383
REMARK  Name = 
REMARK  5 active torsions:
REMARK  status: ('A' for Active; 'I' for Inactive)
REMARK    1  A    between atoms: C_1  and  C_2
REMARK    2  A    between atoms: C_8  and  C_9
REMARK    3  A    between atoms: C_9  and  C_10
REMARK    4  A    between atoms: C_13  and  C_14
REMARK    5  A    between atoms: N_19  and  C_20
REMARK                            x       y       z     vdW  Elec       q    Type
REMARK                         _______ _______ _______ _____ _____    ______ ____
ROOT
ATOM      1  C   UNL     1       2.860   6.214  19.352  0.00  0.00    +0.000 A 
ATOM      2  N   UNL     1       2.114   6.164  20.471  0.00  0.00    +0.000 NA
ATOM      3  O   UNL     1       1.379   7.360  20.407  0.00  0.00    +0.000 OA
ATOM      4  C   UNL     1       1.848   8.042  19.322  0.00  0.00    +0.000 A 
ATOM      5  N   UNL     1       2.776   7.391  18.661  0.00  0.00    +0.000 NA
ENDROOT
BRANCH   4   6
ATOM      6  C   UNL     1       1.258   9.305  18.942  0.00  0.00    +0.000 C 
ATOM      7  O   UNL     1       1.061   9.596  17.760  0.00  0.00    +0.000 OA
ATOM      8  N   UNL     1       0.935  10.209  19.963  0.00  0.00    +0.000 N 
ATOM      9  C   UNL     1       0.920   9.924  21.413  0.00  0.00    +0.000 C 
ATOM     10  C   UNL     1      -0.486  10.108  22.024  0.00  0.00    +0.000 C 
ATOM     11  N   UNL     1      -1.088  11.377  21.596  0.00  0.00    +0.000 N 
ATOM     12  C   UNL     1      -1.080  11.626  20.142  0.00  0.00    +0.000 C 
ATOM     13  C   UNL     1       0.356  11.504  19.609  0.00  0.00    +0.000 C 
BRANCH  11  14
ATOM     14  C   UNL     1      -1.581  12.321  22.475  0.00  0.00    +0.000 A 
ATOM     15  C   UNL     1      -2.844  12.200  23.083  0.00  0.00    +0.000 A 
ATOM     16  C   UNL     1      -3.315  13.138  23.996  0.00  0.00    +0.000 A 
ATOM     17  C   UNL     1      -2.541  14.245  24.334  0.00  0.00    +0.000 A 
ATOM     18  C   UNL     1      -1.295  14.408  23.740  0.00  0.00    +0.000 A 
ATOM     19  C   UNL     1      -0.832  13.460  22.817  0.00  0.00    +0.000 A 
ENDBRANCH  11  14
ENDBRANCH   4   6
BRANCH   1  20
ATOM     20  C   UNL     1       3.426   4.970  18.658  0.00  0.00    +0.000 C 
ATOM     21  C   UNL     1       2.751   3.714  19.256  0.00  0.00    +0.000 C 
ATOM     22  C   UNL     1       2.494   4.077  17.832  0.00  0.00    +0.000 C 
BRANCH  20  30
ATOM     23  C   UNL     1       4.593   4.196  15.913  0.00  0.00    +0.000 C 
ATOM     24  C   UNL     1       5.462   4.562  17.093  0.00  0.00    +0.000 A 
ATOM     25  C   UNL     1       6.861   4.544  16.889  0.00  0.00    +0.000 A 
ATOM     26  C   UNL     1       7.728   4.917  17.907  0.00  0.00    +0.000 A 
ATOM     27  C   UNL     1       7.211   5.325  19.121  0.00  0.00    +0.000 A 
ATOM     28  F   UNL     1       8.041   5.701  20.099  0.00  0.00    +0.000 F 
ATOM     29  C   UNL     1       5.835   5.353  19.343  0.00  0.00    +0.000 A 
ATOM     30  C   UNL     1       4.919   4.955  18.350  0.00  0.00    +0.000 A 
ENDBRANCH  20  30
ENDBRANCH   1  20
TORSDOF 4
ENDMDL
MODEL 4
REMARK VINA RESULT:      -8.0      2.141      2.797
REMARK  Name = 
REMARK  5 active torsions:
REMARK  status: ('A' for Active; 'I' for Inactive)
REMARK    1  A    between atoms: C_1  and  C_2
REMARK    2  A    between atoms: C_8  and  C_9
REMARK    3  A    between atoms: C_9  and  C_10
REMARK    4  A    between atoms: C_13  and  C_14
REMARK    5  A    between atoms: N_19  and  C_20
REMARK                            x       y       z     vdW  Elec       q    Type
REMARK                         _______ _______ _______ _____ _____    ______ ____
ROOT
ATOM      1  C   UNL     1       2.923   6.152  17.945  0.00  0.00    +0.000 A 
ATOM      2  N   UNL     1       3.482   7.239  17.384  0.00  0.00    +0.000 NA
ATOM      3  O   UNL     1       3.019   8.283  18.202  0.00  0.00    +0.000 OA
ATOM      4  C   UNL     1       2.148   7.719  19.089  0.00  0.00    +0.000 A 
ATOM      5  N   UNL     1       2.035   6.419  18.950  0.00  0.00    +0.000 NA
ENDROOT
BRANCH   4   6
ATOM      6  C   UNL     1       1.527   8.524  20.115  0.00  0.00    +0.000 C 
ATOM      7  O   UNL     1       1.464   8.140  21.286  0.00  0.00    +0.000 OA
ATOM      8  N   UNL     1       0.972   9.753  19.736  0.00  0.00    +0.000 N 
ATOM      9  C   UNL     1       1.148  10.430  18.435  0.00  0.00    +0.000 C 
ATOM     10  C   UNL     1       1.841  11.802  18.586  0.00  0.00    +0.000 C 
ATOM     11  N   UNL     1       1.224  12.590  19.660  0.00  0.00    +0.000 N 
ATOM     12  C   UNL     1       1.080  11.898  20.955  0.00  0.00    +0.000 C 
ATOM     13  C   UNL     1       0.317  10.580  20.749  0.00  0.00    +0.000 C 
BRANCH  11  14
ATOM     14  C   UNL     1       0.746  13.874  19.485  0.00  0.00    +0.000 A 
ATOM     15  C   UNL     1       1.487  14.872  18.826  0.00  0.00    +0.000 A 
ATOM     16  C   UNL     1       0.982  16.152  18.621  0.00  0.00    +0.000 A 
ATOM     17  C   UNL     1      -0.290  16.489  19.077  0.00  0.00    +0.000 A 
ATOM     18  C   UNL     1      -1.044  15.535  19.750  0.00  0.00    +0.000 A 
ATOM     19  C   UNL     1      -0.523  14.250  19.955  0.00  0.00    +0.000 A 
ENDBRANCH  11  14
ENDBRANCH   4   6
BRANCH   1  20
ATOM     20  C   UNL     1       3.497   4.737  17.801  0.00  0.00    +0.000 C 
ATOM     21  C   UNL     1       3.161   3.930  19.076  0.00  0.00    +0.000 C 
ATOM     22  C   UNL     1       2.545   3.536  17.776  0.00  0.00    +0.000 C 
BRANCH  20  30
ATOM     23  C   UNL     1       6.142   5.321  19.271  0.00  0.00    +0.000 C 
ATOM     24  C   UNL     1       6.092   4.903  17.821  0.00  0.00    +0.000 A 
ATOM     25  C   UNL     1       7.328   4.777  17.147  0.00  0.00    +0.000 A 
ATOM     26  C   UNL     1       7.374   4.347  15.828  0.00  0.00    +0.000 A 
ATOM     27  C   UNL     1       6.197   4.024  15.181  0.00  0.00    +0.000 A 
ATOM     28  F   UNL     1       6.237   3.593  13.915  0.00  0.00    +0.000 F 
ATOM     29  C   UNL     1       4.968   4.136  15.827  0.00  0.00    +0.000 A 
ATOM     30  C   UNL     1       4.870   4.598  17.154  0.00  0.00    +0.000 A 
ENDBRANCH  20  30
ENDBRANCH   1  20
TORSDOF 4
ENDMDL
MODEL 5
REMARK VINA RESULT:      -7.9      2.118      3.335
REMARK  Name = 
REMARK  5 active torsions:
REMARK  status: ('A' for Active; 'I' for Inactive)
REMARK    1  A    between atoms: C_1  and  C_2
REMARK    2  A    between atoms: C_8  and  C_9
REMARK    3  A    between atoms: C_9  and  C_10
REMARK    4  A    between atoms: C_13  and  C_14
REMARK    5  A    between atoms: N_19  and  C_20
REMARK                            x       y       z     vdW  Elec       q    Type
REMARK                         _______ _______ _______ _____ _____    ______ ____
ROOT
ATOM      1  C   UNL     1       3.066   6.872  19.162  0.00  0.00    +0.000 A 
ATOM      2  N   UNL     1       2.314   6.594  20.243  0.00  0.00    +0.000 NA
ATOM      3  O   UNL     1       1.348   7.614  20.220  0.00  0.00    +0.000 OA
ATOM      4  C   UNL     1       1.697   8.449  19.197  0.00  0.00    +0.000 A 
ATOM      5  N   UNL     1       2.759   8.050  18.540  0.00  0.00    +0.000 NA
ENDROOT
BRANCH   4   6
ATOM      6  C   UNL     1       0.868   9.587  18.869  0.00  0.00    +0.000 C 
ATOM      7  O   UNL     1       0.430   9.759  17.729  0.00  0.00    +0.000 OA
ATOM      8  N   UNL     1       0.594  10.511  19.886  0.00  0.00    +0.000 N 
ATOM      9  C   UNL     1       0.871  10.337  21.326  0.00  0.00    +0.000 C 
ATOM     10  C   UNL     1      -0.421  10.369  22.172  0.00  0.00    +0.000 C 
ATOM     11  N   UNL     1      -1.270  11.507  21.798  0.00  0.00    +0.000 N 
ATOM     12  C   UNL     1      -1.550  11.645  20.356  0.00  0.00    +0.000 C 
ATOM     13  C   UNL     1      -0.224  11.683  19.579  0.00  0.00    +0.000 C 
BRANCH  11  14
ATOM     14  C   UNL     1      -1.740  12.438  22.704  0.00  0.00    +0.000 A 
ATOM     15  C   UNL     1      -0.992  13.566  23.085  0.00  0.00    +0.000 A 
ATOM     16  C   UNL     1      -1.490  14.517  23.969  0.00  0.00    +0.000 A 
ATOM     17  C   UNL     1      -2.761  14.372  24.519  0.00  0.00    +0.000 A 
ATOM     18  C   UNL     1      -3.523  13.259  24.181  0.00  0.00    +0.000 A 
ATOM     19  C   UNL     1      -3.009  12.305  23.292  0.00  0.00    +0.000 A 
ENDBRANCH  11  14
ENDBRANCH   4   6
BRANCH   1  20
ATOM     20  C   UNL     1       3.899   5.820  18.420  0.00  0.00    +0.000 C 
ATOM     21  C   UNL     1       4.201   6.338  16.995  0.00  0.00    +0.000 C 
ATOM     22  C   UNL     1       5.321   6.169  17.966  0.00  0.00    +0.000 C 
BRANCH  20  30
ATOM     23  C   UNL     1       1.287   4.543  17.398  0.00  0.00    +0.000 C 
ATOM     24  C   UNL     1       2.313   3.772  18.195  0.00  0.00    +0.000 A 
ATOM     25  C   UNL     1       2.032   2.412  18.456  0.00  0.00    +0.000 A 
ATOM     26  C   UNL     1       2.946   1.619  19.137  0.00  0.00    +0.000 A 
ATOM     27  C   UNL     1       4.146   2.168  19.544  0.00  0.00    +0.000 A 
ATOM     28  F   UNL     1       5.037   1.404  20.185  0.00  0.00    +0.000 F 
ATOM     29  C   UNL     1       4.446   3.506  19.294  0.00  0.00    +0.000 A 
ATOM     30  C   UNL     1       3.537   4.356  18.634  0.00  0.00    +0.000 A 
ENDBRANCH  20  30
ENDBRANCH   1  20
TORSDOF 4
ENDMDL
MODEL 6
REMARK VINA RESULT:      -7.9      2.122      3.053
REMARK  Name = 
REMARK  5 active torsions:
REMARK  status: ('A' for Active; 'I' for Inactive)
REMARK    1  A    between atoms: C_1  and  C_2
REMARK    2  A    between atoms: C_8  and  C_9
REMARK    3  A    between atoms: C_9  and  C_10
REMARK    4  A    between atoms: C_13  and  C_14
REMARK    5  A    between atoms: N_19  and  C_20
REMARK                            x       y       z     vdW  Elec       q    Type
REMARK                         _______ _______ _______ _____ _____    ______ ____
ROOT
ATOM      1  C   UNL     1       2.568   6.724  18.562  0.00  0.00    +0.000 A 
ATOM      2  N   UNL     1       2.573   7.873  17.861  0.00  0.00    +0.000 NA
ATOM      3  O   UNL     1       2.101   8.809  18.797  0.00  0.00    +0.000 OA
ATOM      4  C   UNL     1       1.762   8.099  19.912  0.00  0.00    +0.000 A 
ATOM      5  N   UNL     1       2.004   6.814  19.804  0.00  0.00    +0.000 NA
ENDROOT
BRANCH   4   6
ATOM      6  C   UNL     1       1.284   8.781  21.094  0.00  0.00    +0.000 C 
ATOM      7  O   UNL     1       1.898   8.726  22.162  0.00  0.00    +0.000 OA
ATOM      8  N   UNL     1       0.081   9.491  20.997  0.00  0.00    +0.000 N 
ATOM      9  C   UNL     1      -0.649   9.815  19.754  0.00  0.00    +0.000 C 
ATOM     10  C   UNL     1      -0.765  11.338  19.531  0.00  0.00    +0.000 C 
ATOM     11  N   UNL     1      -1.211  12.019  20.752  0.00  0.00    +0.000 N 
ATOM     12  C   UNL     1      -0.452  11.696  21.974  0.00  0.00    +0.000 C 
ATOM     13  C   UNL     1      -0.439  10.173  22.181  0.00  0.00    +0.000 C 
BRANCH  11  14
ATOM     14  C   UNL     1      -2.303  12.865  20.797  0.00  0.00    +0.000 A 
ATOM     15  C   UNL     1      -3.529  12.548  20.183  0.00  0.00    +0.000 A 
ATOM     16  C   UNL     1      -4.633  13.389  20.266  0.00  0.00    +0.000 A 
ATOM     17  C   UNL     1      -4.554  14.591  20.964  0.00  0.00    +0.000 A 
ATOM     18  C   UNL     1      -3.353  14.947  21.568  0.00  0.00    +0.000 A 
ATOM     19  C   UNL     1      -2.245  14.094  21.474  0.00  0.00    +0.000 A 
ENDBRANCH  11  14
ENDBRANCH   4   6
BRANCH   1  20
ATOM     20  C   UNL     1       3.462   5.525  18.224  0.00  0.00    +0.000 C 
ATOM     21  C   UNL     1       2.889   4.266  18.915  0.00  0.00    +0.000 C 
ATOM     22  C   UNL     1       2.880   4.353  17.426  0.00  0.00    +0.000 C 
BRANCH  20  30
ATOM     23  C   UNL     1       4.977   6.592  15.761  0.00  0.00    +0.000 C 
ATOM     24  C   UNL     1       5.675   6.214  17.046  0.00  0.00    +0.000 A 
ATOM     25  C   UNL     1       7.079   6.377  17.085  0.00  0.00    +0.000 A 
ATOM     26  C   UNL     1       7.791   6.102  18.244  0.00  0.00    +0.000 A 
ATOM     27  C   UNL     1       7.112   5.683  19.371  0.00  0.00    +0.000 A 
ATOM     28  F   UNL     1       7.791   5.432  20.496  0.00  0.00    +0.000 F 
ATOM     29  C   UNL     1       5.728   5.518  19.357  0.00  0.00    +0.000 A 
ATOM     30  C   UNL     1       4.968   5.756  18.195  0.00  0.00    +0.000 A 
ENDBRANCH  20  30
ENDBRANCH   1  20
TORSDOF 4
ENDMDL
MODEL 7
REMARK VINA RESULT:      -7.8      2.958      9.375
REMARK  Name = 
REMARK  5 active torsions:
REMARK  status: ('A' for Active; 'I' for Inactive)
REMARK    1  A    between atoms: C_1  and  C_2
REMARK    2  A    between atoms: C_8  and  C_9
REMARK    3  A    between atoms: C_9  and  C_10
REMARK    4  A    between atoms: C_13  and  C_14
REMARK    5  A    between atoms: N_19  and  C_20
REMARK                            x       y       z     vdW  Elec       q    Type
REMARK                         _______ _______ _______ _____ _____    ______ ____
ROOT
ATOM      1  C   UNL     1      -0.504  11.534  20.148  0.00  0.00    +0.000 A 
ATOM      2  N   UNL     1       0.376  11.942  21.080  0.00  0.00    +0.000 NA
ATOM      3  O   UNL     1       0.960  10.737  21.504  0.00  0.00    +0.000 OA
ATOM      4  C   UNL     1       0.286   9.737  20.864  0.00  0.00    +0.000 A 
ATOM      5  N   UNL     1      -0.639  10.177  20.044  0.00  0.00    +0.000 NA
ENDROOT
BRANCH   4   6
ATOM      6  C   UNL     1       0.680   8.359  21.045  0.00  0.00    +0.000 C 
ATOM      7  O   UNL     1       0.085   7.616  21.831  0.00  0.00    +0.000 OA
ATOM      8  N   UNL     1       1.781   7.892  20.317  0.00  0.00    +0.000 N 
ATOM      9  C   UNL     1       2.455   8.590  19.203  0.00  0.00    +0.000 C 
ATOM     10  C   UNL     1       2.373   7.791  17.885  0.00  0.00    +0.000 C 
ATOM     11  N   UNL     1       2.737   6.384  18.095  0.00  0.00    +0.000 N 
ATOM     12  C   UNL     1       2.033   5.704  19.199  0.00  0.00    +0.000 C 
ATOM     13  C   UNL     1       2.217   6.508  20.496  0.00  0.00    +0.000 C 
BRANCH  11  14
ATOM     14  C   UNL     1       3.711   5.732  17.365  0.00  0.00    +0.000 A 
ATOM     15  C   UNL     1       4.696   6.421  16.635  0.00  0.00    +0.000 A 
ATOM     16  C   UNL     1       5.695   5.755  15.933  0.00  0.00    +0.000 A 
ATOM     17  C   UNL     1       5.746   4.363  15.928  0.00  0.00    +0.000 A 
ATOM     18  C   UNL     1       4.778   3.647  16.624  0.00  0.00    +0.000 A 
ATOM     19  C   UNL     1       3.773   4.329  17.323  0.00  0.00    +0.000 A 
ENDBRANCH  11  14
ENDBRANCH   4   6
BRANCH   1  20
ATOM     20  C   UNL     1      -1.011  12.432  19.012  0.00  0.00    +0.000 C 
ATOM     21  C   UNL     1      -0.978  13.902  19.488  0.00  0.00    +0.000 C 
ATOM     22  C   UNL     1      -0.066  13.466  18.391  0.00  0.00    +0.000 C 
BRANCH  20  30
ATOM     23  C   UNL     1      -3.931  12.500  19.995  0.00  0.00    +0.000 C 
ATOM     24  C   UNL     1      -3.536  11.923  18.656  0.00  0.00    +0.000 A 
ATOM     25  C   UNL     1      -4.575  11.411  17.847  0.00  0.00    +0.000 A 
ATOM     26  C   UNL     1      -4.304  10.910  16.580  0.00  0.00    +0.000 A 
ATOM     27  C   UNL     1      -3.006  10.933  16.108  0.00  0.00    +0.000 A 
ATOM     28  F   UNL     1      -2.741  10.467  14.882  0.00  0.00    +0.000 F 
ATOM     29  C   UNL     1      -1.966  11.437  16.887  0.00  0.00    +0.000 A 
ATOM     30  C   UNL     1      -2.189  11.926  18.189  0.00  0.00    +0.000 A 
ENDBRANCH  20  30
ENDBRANCH   1  20
TORSDOF 4
ENDMDL
MODEL 8
REMARK VINA RESULT:      -7.8      3.902     10.795
REMARK  Name = 
REMARK  5 active torsions:
REMARK  status: ('A' for Active; 'I' for Inactive)
REMARK    1  A    between atoms: C_1  and  C_2
REMARK    2  A    between atoms: C_8  and  C_9
REMARK    3  A    between atoms: C_9  and  C_10
REMARK    4  A    between atoms: C_13  and  C_14
REMARK    5  A    between atoms: N_19  and  C_20
REMARK                            x       y       z     vdW  Elec       q    Type
REMARK                         _______ _______ _______ _____ _____    ______ ____
ROOT
ATOM      1  C   UNL     1      -2.286  12.342  22.587  0.00  0.00    +0.000 A 
ATOM      2  N   UNL     1      -1.092  12.380  23.206  0.00  0.00    +0.000 NA
ATOM      3  O   UNL     1      -0.196  12.070  22.169  0.00  0.00    +0.000 OA
ATOM      4  C   UNL     1      -0.960  11.770  21.078  0.00  0.00    +0.000 A 
ATOM      5  N   UNL     1      -2.248  11.895  21.295  0.00  0.00    +0.000 NA
ENDROOT
BRANCH   4   6
ATOM      6  C   UNL     1      -0.335  11.454  19.814  0.00  0.00    +0.000 C 
ATOM      7  O   UNL     1      -0.113  12.324  18.968  0.00  0.00    +0.000 OA
ATOM      8  N   UNL     1      -0.007  10.115  19.563  0.00  0.00    +0.000 N 
ATOM      9  C   UNL     1      -0.022   9.011  20.544  0.00  0.00    +0.000 C 
ATOM     10  C   UNL     1       1.377   8.388  20.735  0.00  0.00    +0.000 C 
ATOM     11  N   UNL     1       2.015   8.111  19.442  0.00  0.00    +0.000 N 
ATOM     12  C   UNL     1       2.036   9.237  18.489  0.00  0.00    +0.000 C 
ATOM     13  C   UNL     1       0.606   9.761  18.284  0.00  0.00    +0.000 C 
BRANCH  11  14
ATOM     14  C   UNL     1       2.515   6.873  19.088  0.00  0.00    +0.000 A 
ATOM     15  C   UNL     1       2.196   5.700  19.796  0.00  0.00    +0.000 A 
ATOM     16  C   UNL     1       2.675   4.452  19.410  0.00  0.00    +0.000 A 
ATOM     17  C   UNL     1       3.504   4.328  18.298  0.00  0.00    +0.000 A 
ATOM     18  C   UNL     1       3.857   5.469  17.585  0.00  0.00    +0.000 A 
ATOM     19  C   UNL     1       3.372   6.721  17.986  0.00  0.00    +0.000 A 
ENDBRANCH  11  14
ENDBRANCH   4   6
BRANCH   1  20
ATOM     20  C   UNL     1      -3.521  13.101  23.087  0.00  0.00    +0.000 C 
ATOM     21  C   UNL     1      -4.004  12.454  24.405  0.00  0.00    +0.000 C 
ATOM     22  C   UNL     1      -3.459  13.842  24.427  0.00  0.00    +0.000 C 
BRANCH  20  30
ATOM     23  C   UNL     1      -3.261  15.709  21.466  0.00  0.00    +0.000 C 
ATOM     24  C   UNL     1      -4.439  14.775  21.322  0.00  0.00    +0.000 A 
ATOM     25  C   UNL     1      -5.437  15.142  20.391  0.00  0.00    +0.000 A 
ATOM     26  C   UNL     1      -6.527  14.314  20.160  0.00  0.00    +0.000 A 
ATOM     27  C   UNL     1      -6.620  13.114  20.837  0.00  0.00    +0.000 A 
ATOM     28  F   UNL     1      -7.659  12.304  20.606  0.00  0.00    +0.000 F 
ATOM     29  C   UNL     1      -5.645  12.730  21.756  0.00  0.00    +0.000 A 
ATOM     30  C   UNL     1      -4.538  13.552  22.045  0.00  0.00    +0.000 A 
ENDBRANCH  20  30
ENDBRANCH   1  20
TORSDOF 4
ENDMDL
MODEL 9
REMARK VINA RESULT:      -7.7      2.222      3.755
REMARK  Name = 
REMARK  5 active torsions:
REMARK  status: ('A' for Active; 'I' for Inactive)
REMARK    1  A    between atoms: C_1  and  C_2
REMARK    2  A    between atoms: C_8  and  C_9
REMARK    3  A    between atoms: C_9  and  C_10
REMARK    4  A    between atoms: C_13  and  C_14
REMARK    5  A    between atoms: N_19  and  C_20
REMARK                            x       y       z     vdW  Elec       q    Type
REMARK                         _______ _______ _______ _____ _____    ______ ____
ROOT
ATOM      1  C   UNL     1       2.713   7.050  18.623  0.00  0.00    +0.000 A 
ATOM      2  N   UNL     1       2.553   8.204  17.949  0.00  0.00    +0.000 NA
ATOM      3  O   UNL     1       1.988   9.052  18.915  0.00  0.00    +0.000 OA
ATOM      4  C   UNL     1       1.769   8.282  20.021  0.00  0.00    +0.000 A 
ATOM      5  N   UNL     1       2.170   7.041  19.878  0.00  0.00    +0.000 NA
ENDROOT
BRANCH   4   6
ATOM      6  C   UNL     1       1.236   8.873  21.228  0.00  0.00    +0.000 C 
ATOM      7  O   UNL     1       1.839   8.802  22.301  0.00  0.00    +0.000 OA
ATOM      8  N   UNL     1      -0.008   9.512  21.149  0.00  0.00    +0.000 N 
ATOM      9  C   UNL     1      -0.742   9.852  19.912  0.00  0.00    +0.000 C 
ATOM     10  C   UNL     1      -0.950  11.374  19.763  0.00  0.00    +0.000 C 
ATOM     11  N   UNL     1      -1.452  11.965  21.010  0.00  0.00    +0.000 N 
ATOM     12  C   UNL     1      -0.689  11.628  22.226  0.00  0.00    +0.000 C 
ATOM     13  C   UNL     1      -0.583  10.100  22.357  0.00  0.00    +0.000 C 
BRANCH  11  14
ATOM     14  C   UNL     1      -2.595  12.738  21.081  0.00  0.00    +0.000 A 
ATOM     15  C   UNL     1      -3.641  12.625  20.147  0.00  0.00    +0.000 A 
ATOM     16  C   UNL     1      -4.804  13.382  20.249  0.00  0.00    +0.000 A 
ATOM     17  C   UNL     1      -4.965  14.292  21.290  0.00  0.00    +0.000 A 
ATOM     18  C   UNL     1      -3.944  14.444  22.222  0.00  0.00    +0.000 A 
ATOM     19  C   UNL     1      -2.775  13.681  22.107  0.00  0.00    +0.000 A 
ENDBRANCH  11  14
ENDBRANCH   4   6
BRANCH   1  20
ATOM     20  C   UNL     1       3.744   5.982  18.239  0.00  0.00    +0.000 C 
ATOM     21  C   UNL     1       4.321   6.324  16.846  0.00  0.00    +0.000 C 
ATOM     22  C   UNL     1       5.209   6.386  18.042  0.00  0.00    +0.000 C 
BRANCH  20  30
ATOM     23  C   UNL     1       1.192   4.526  17.310  0.00  0.00    +0.000 C 
ATOM     24  C   UNL     1       2.226   3.871  18.196  0.00  0.00    +0.000 A 
ATOM     25  C   UNL     1       1.983   2.535  18.586  0.00  0.00    +0.000 A 
ATOM     26  C   UNL     1       2.908   1.844  19.356  0.00  0.00    +0.000 A 
ATOM     27  C   UNL     1       4.083   2.469  19.724  0.00  0.00    +0.000 A 
ATOM     28  F   UNL     1       4.986   1.803  20.452  0.00  0.00    +0.000 F 
ATOM     29  C   UNL     1       4.346   3.785  19.347  0.00  0.00    +0.000 A 
ATOM     30  C   UNL     1       3.423   4.535  18.592  0.00  0.00    +0.000 A 
ENDBRANCH  20  30
ENDBRANCH   1  20
TORSDOF 4
ENDMDL
