MODEL 1
REMARK VINA RESULT:      -8.4      0.000      0.000
REMARK  Name = 
REMARK  4 active torsions:
REMARK  status: ('A' for Active; 'I' for Inactive)
REMARK    1  A    between atoms: C_4  and  C_5
REMARK    2  A    between atoms: C_11  and  C_12
REMARK    3  A    between atoms: C_15  and  C_16
REMARK    4  A    between atoms: C_16  and  C_17
REMARK                            x       y       z     vdW  Elec       q    Type
REMARK                         _______ _______ _______ _____ _____    ______ ____
ROOT
ATOM      1  C   UNL     1       5.262   4.358  17.685  0.00  0.00    +0.000 A 
ATOM      2  N   UNL     1       5.863   3.819  18.753  0.00  0.00    +0.000 NA
ATOM      3  O   UNL     1       4.867   3.762  19.709  0.00  0.00    +0.000 OA
ATOM      4  C   UNL     1       3.729   4.257  19.133  0.00  0.00    +0.000 A 
ATOM      5  N   UNL     1       3.919   4.621  17.881  0.00  0.00    +0.000 NA
ENDROOT
BRANCH   1  12
ATOM      6  O   UNL     1       7.516   6.134  17.250  0.00  0.00    +0.000 OA
ATOM      7  C   UNL     1       7.054   5.500  16.307  0.00  0.00    +0.000 A 
ATOM      8  N   UNL     1       7.641   5.618  15.069  0.00  0.00    +0.000 N 
ATOM      9  C   UNL     1       7.184   5.019  13.910  0.00  0.00    +0.000 A 
ATOM     10  C   UNL     1       6.077   4.260  13.980  0.00  0.00    +0.000 A 
ATOM     11  C   UNL     1       5.410   4.052  15.248  0.00  0.00    +0.000 A 
ATOM     12  C   UNL     1       5.854   4.599  16.399  0.00  0.00    +0.000 A 
ATOM     13  H   UNL     1       8.458   6.221  15.035  0.00  0.00    +0.000 HD
BRANCH   9  14
ATOM     14  C   UNL     1       7.955   5.255  12.630  0.00  0.00    +0.000 C 
ATOM     15  F   UNL     1       7.798   4.225  11.756  0.00  0.00    +0.000 F 
ATOM     16  F   UNL     1       7.544   6.379  11.993  0.00  0.00    +0.000 F 
ATOM     17  F   UNL     1       9.286   5.384  12.854  0.00  0.00    +0.000 F 
ENDBRANCH   9  14
ENDBRANCH   1  12
BRANCH   4  18
ATOM     18  C   UNL     1       2.387   4.339  19.890  0.00  0.00    +0.000 C 
ATOM     19  C   UNL     1       2.488   3.669  21.303  0.00  0.00    +0.000 C 
ATOM     20  C   UNL     1       1.194   2.901  21.022  0.00  0.00    +0.000 C 
ATOM     21  C   UNL     1       1.449   3.136  19.523  0.00  0.00    +0.000 C 
BRANCH  18  22
ATOM     22  C   UNL     1       1.701   5.731  19.785  0.00  0.00    +0.000 C 
ATOM     23  C   UNL     1       2.617   6.905  19.365  0.00  0.00    +0.000 C 
ATOM     24  C   UNL     1       1.746   7.802  20.268  0.00  0.00    +0.000 C 
ATOM     25  C   UNL     1       1.399   6.529  21.071  0.00  0.00    +0.000 C 
ENDBRANCH  18  22
ENDBRANCH   4  18
TORSDOF 4
ENDMDL
MODEL 2
REMARK VINA RESULT:      -8.3      5.357      7.992
REMARK  Name = 
REMARK  4 active torsions:
REMARK  status: ('A' for Active; 'I' for Inactive)
REMARK    1  A    between atoms: C_4  and  C_5
REMARK    2  A    between atoms: C_11  and  C_12
REMARK    3  A    between atoms: C_15  and  C_16
REMARK    4  A    between atoms: C_16  and  C_17
REMARK                            x       y       z     vdW  Elec       q    Type
REMARK                         _______ _______ _______ _____ _____    ______ ____
ROOT
ATOM      1  C   UNL     1       2.860   6.380  18.404  0.00  0.00    +0.000 A 
ATOM      2  N   UNL     1       2.452   5.112  18.266  0.00  0.00    +0.000 NA
ATOM      3  O   UNL     1       3.442   4.518  17.507  0.00  0.00    +0.000 OA
ATOM      4  C   UNL     1       4.388   5.476  17.261  0.00  0.00    +0.000 A 
ATOM      5  N   UNL     1       4.081   6.635  17.807  0.00  0.00    +0.000 NA
ENDROOT
BRANCH   1  12
ATOM      6  O   UNL     1       2.133   8.957  17.285  0.00  0.00    +0.000 OA
ATOM      7  C   UNL     1       1.827   8.692  18.442  0.00  0.00    +0.000 A 
ATOM      8  N   UNL     1       1.111   9.611  19.173  0.00  0.00    +0.000 N 
ATOM      9  C   UNL     1       0.760   9.473  20.503  0.00  0.00    +0.000 A 
ATOM     10  C   UNL     1       1.146   8.360  21.150  0.00  0.00    +0.000 A 
ATOM     11  C   UNL     1       1.876   7.322  20.453  0.00  0.00    +0.000 A 
ATOM     12  C   UNL     1       2.201   7.417  19.147  0.00  0.00    +0.000 A 
ATOM     13  H   UNL     1       0.858  10.458  18.671  0.00  0.00    +0.000 HD
BRANCH   9  14
ATOM     14  C   UNL     1      -0.033  10.584  21.153  0.00  0.00    +0.000 C 
ATOM     15  F   UNL     1      -1.076  10.976  20.372  0.00  0.00    +0.000 F 
ATOM     16  F   UNL     1      -0.556  10.202  22.345  0.00  0.00    +0.000 F 
ATOM     17  F   UNL     1       0.724  11.685  21.382  0.00  0.00    +0.000 F 
ENDBRANCH   9  14
ENDBRANCH   1  12
BRANCH   4  18
ATOM     18  C   UNL     1       5.668   5.185  16.450  0.00  0.00    +0.000 C 
ATOM     19  C   UNL     1       5.559   5.750  14.992  0.00  0.00    +0.000 C 
ATOM     20  C   UNL     1       6.049   4.407  14.445  0.00  0.00    +0.000 C 
ATOM     21  C   UNL     1       5.607   3.771  15.774  0.00  0.00    +0.000 C 
BRANCH  18  22
ATOM     22  C   UNL     1       6.978   5.450  17.245  0.00  0.00    +0.000 C 
ATOM     23  C   UNL     1       6.868   5.342  18.784  0.00  0.00    +0.000 C 
ATOM     24  C   UNL     1       7.933   6.454  18.859  0.00  0.00    +0.000 C 
ATOM     25  C   UNL     1       7.457   6.902  17.460  0.00  0.00    +0.000 C 
ENDBRANCH  18  22
ENDBRANCH   4  18
TORSDOF 4
ENDMDL
MODEL 3
REMARK VINA RESULT:      -8.3      5.220      7.850
REMARK  Name = 
REMARK  4 active torsions:
REMARK  status: ('A' for Active; 'I' for Inactive)
REMARK    1  A    between atoms: C_4  and  C_5
REMARK    2  A    between atoms: C_11  and  C_12
REMARK    3  A    between atoms: C_15  and  C_16
REMARK    4  A    between atoms: C_16  and  C_17
REMARK                            x       y       z     vdW  Elec       q    Type
REMARK                         _______ _______ _______ _____ _____    ______ ____
ROOT
ATOM      1  C   UNL     1       2.932   6.569  17.992  0.00  0.00    +0.000 A 
ATOM      2  N   UNL     1       2.571   5.283  18.080  0.00  0.00    +0.000 NA
ATOM      3  O   UNL     1       3.598   4.599  17.457  0.00  0.00    +0.000 OA
ATOM      4  C   UNL     1       4.515   5.531  17.055  0.00  0.00    +0.000 A 
ATOM      5  N   UNL     1       4.157   6.758  17.377  0.00  0.00    +0.000 NA
ENDROOT
BRANCH   1  12
ATOM      6  O   UNL     1       1.939   6.716  20.714  0.00  0.00    +0.000 OA
ATOM      7  C   UNL     1       1.804   7.680  19.969  0.00  0.00    +0.000 A 
ATOM      8  N   UNL     1       1.216   8.825  20.453  0.00  0.00    +0.000 N 
ATOM      9  C   UNL     1       0.939   9.956  19.707  0.00  0.00    +0.000 A 
ATOM     10  C   UNL     1       1.260   9.951  18.402  0.00  0.00    +0.000 A 
ATOM     11  C   UNL     1       1.912   8.801  17.812  0.00  0.00    +0.000 A 
ATOM     12  C   UNL     1       2.223   7.698  18.524  0.00  0.00    +0.000 A 
ATOM     13  H   UNL     1       0.955   8.793  21.435  0.00  0.00    +0.000 HD
BRANCH   9  14
ATOM     14  C   UNL     1       0.290  11.131  20.403  0.00  0.00    +0.000 C 
ATOM     15  F   UNL     1       1.009  12.272  20.233  0.00  0.00    +0.000 F 
ATOM     16  F   UNL     1      -0.956  11.375  19.924  0.00  0.00    +0.000 F 
ATOM     17  F   UNL     1       0.174  10.932  21.739  0.00  0.00    +0.000 F 
ENDBRANCH   9  14
ENDBRANCH   1  12
BRANCH   4  18
ATOM     18  C   UNL     1       5.822   5.147  16.331  0.00  0.00    +0.000 C 
ATOM     19  C   UNL     1       5.774   5.552  14.818  0.00  0.00    +0.000 C 
ATOM     20  C   UNL     1       6.270   4.155  14.437  0.00  0.00    +0.000 C 
ATOM     21  C   UNL     1       5.772   3.668  15.809  0.00  0.00    +0.000 C 
BRANCH  18  22
ATOM     22  C   UNL     1       7.103   5.488  17.143  0.00  0.00    +0.000 C 
ATOM     23  C   UNL     1       6.994   5.325  18.677  0.00  0.00    +0.000 C 
ATOM     24  C   UNL     1       7.970   6.513  18.793  0.00  0.00    +0.000 C 
ATOM     25  C   UNL     1       7.467   6.966  17.404  0.00  0.00    +0.000 C 
ENDBRANCH  18  22
ENDBRANCH   4  18
TORSDOF 4
ENDMDL
MODEL 4
REMARK VINA RESULT:      -8.2      5.212      7.981
REMARK  Name = 
REMARK  4 active torsions:
REMARK  status: ('A' for Active; 'I' for Inactive)
REMARK    1  A    between atoms: C_4  and  C_5
REMARK    2  A    between atoms: C_11  and  C_12
REMARK    3  A    between atoms: C_15  and  C_16
REMARK    4  A    between atoms: C_16  and  C_17
REMARK                            x       y       z     vdW  Elec       q    Type
REMARK                         _______ _______ _______ _____ _____    ______ ____
ROOT
ATOM      1  C   UNL     1       3.031   5.871  18.222  0.00  0.00    +0.000 A 
ATOM      2  N   UNL     1       2.645   4.641  17.861  0.00  0.00    +0.000 NA
ATOM      3  O   UNL     1       3.666   4.192  17.045  0.00  0.00    +0.000 OA
ATOM      4  C   UNL     1       4.606   5.185  16.993  0.00  0.00    +0.000 A 
ATOM      5  N   UNL     1       4.266   6.233  17.716  0.00  0.00    +0.000 NA
ENDROOT
BRANCH   1  12
ATOM      6  O   UNL     1       2.119   5.129  20.875  0.00  0.00    +0.000 OA
ATOM      7  C   UNL     1       1.961   6.279  20.481  0.00  0.00    +0.000 A 
ATOM      8  N   UNL     1       1.387   7.202  21.323  0.00  0.00    +0.000 N 
ATOM      9  C   UNL     1       1.087   8.509  20.986  0.00  0.00    +0.000 A 
ATOM     10  C   UNL     1       1.368   8.926  19.740  0.00  0.00    +0.000 A 
ATOM     11  C   UNL     1       2.003   8.032  18.794  0.00  0.00    +0.000 A 
ATOM     12  C   UNL     1       2.337   6.762  19.107  0.00  0.00    +0.000 A 
ATOM     13  H   UNL     1       1.155   6.855  22.249  0.00  0.00    +0.000 HD
BRANCH   9  14
ATOM     14  C   UNL     1       0.456   9.393  22.039  0.00  0.00    +0.000 C 
ATOM     15  F   UNL     1       1.183   9.396  23.189  0.00  0.00    +0.000 F 
ATOM     16  F   UNL     1       0.364  10.682  21.628  0.00  0.00    +0.000 F 
ATOM     17  F   UNL     1      -0.795   8.986  22.364  0.00  0.00    +0.000 F 
ENDBRANCH   9  14
ENDBRANCH   1  12
BRANCH   4  18
ATOM     18  C   UNL     1       5.913   5.046  16.187  0.00  0.00    +0.000 C 
ATOM     19  C   UNL     1       5.733   5.559  14.717  0.00  0.00    +0.000 C 
ATOM     20  C   UNL     1       6.393   4.280  14.198  0.00  0.00    +0.000 C 
ATOM     21  C   UNL     1       6.038   3.621  15.541  0.00  0.00    +0.000 C 
BRANCH  18  22
ATOM     22  C   UNL     1       7.177   5.497  16.972  0.00  0.00    +0.000 C 
ATOM     23  C   UNL     1       7.183   5.173  18.485  0.00  0.00    +0.000 C 
ATOM     24  C   UNL     1       7.980   6.477  18.681  0.00  0.00    +0.000 C 
ATOM     25  C   UNL     1       7.336   6.980  17.370  0.00  0.00    +0.000 C 
ENDBRANCH  18  22
ENDBRANCH   4  18
TORSDOF 4
ENDMDL
MODEL 5
REMARK VINA RESULT:      -8.1      2.737      4.382
REMARK  Name = 
REMARK  4 active torsions:
REMARK  status: ('A' for Active; 'I' for Inactive)
REMARK    1  A    between atoms: C_4  and  C_5
REMARK    2  A    between atoms: C_11  and  C_12
REMARK    3  A    between atoms: C_15  and  C_16
REMARK    4  A    between atoms: C_16  and  C_17
REMARK                            x       y       z     vdW  Elec       q    Type
REMARK                         _______ _______ _______ _____ _____    ______ ____
ROOT
ATOM      1  C   UNL     1       2.812   6.337  19.172  0.00  0.00    +0.000 A 
ATOM      2  N   UNL     1       2.385   5.581  20.191  0.00  0.00    +0.000 NA
ATOM      3  O   UNL     1       1.613   6.441  20.949  0.00  0.00    +0.000 OA
ATOM      4  C   UNL     1       1.619   7.653  20.314  0.00  0.00    +0.000 A 
ATOM      5  N   UNL     1       2.331   7.634  19.206  0.00  0.00    +0.000 NA
ENDROOT
BRANCH   1  12
ATOM      6  O   UNL     1       3.107   3.566  18.362  0.00  0.00    +0.000 OA
ATOM      7  C   UNL     1       3.655   4.449  17.710  0.00  0.00    +0.000 A 
ATOM      8  N   UNL     1       4.368   4.106  16.585  0.00  0.00    +0.000 N 
ATOM      9  C   UNL     1       5.090   4.986  15.800  0.00  0.00    +0.000 A 
ATOM     10  C   UNL     1       5.111   6.282  16.153  0.00  0.00    +0.000 A 
ATOM     11  C   UNL     1       4.363   6.741  17.304  0.00  0.00    +0.000 A 
ATOM     12  C   UNL     1       3.624   5.909  18.068  0.00  0.00    +0.000 A 
ATOM     13  H   UNL     1       4.363   3.116  16.357  0.00  0.00    +0.000 HD
BRANCH   9  14
ATOM     14  C   UNL     1       5.817   4.437  14.593  0.00  0.00    +0.000 C 
ATOM     15  F   UNL     1       6.757   5.308  14.137  0.00  0.00    +0.000 F 
ATOM     16  F   UNL     1       6.460   3.276  14.875  0.00  0.00    +0.000 F 
ATOM     17  F   UNL     1       4.975   4.188  13.560  0.00  0.00    +0.000 F 
ENDBRANCH   9  14
ENDBRANCH   1  12
BRANCH   4  18
ATOM     18  C   UNL     1       0.846   8.874  20.855  0.00  0.00    +0.000 C 
ATOM     19  C   UNL     1       1.374   9.302  22.267  0.00  0.00    +0.000 C 
ATOM     20  C   UNL     1      -0.068   9.359  22.778  0.00  0.00    +0.000 C 
ATOM     21  C   UNL     1      -0.457   8.436  21.611  0.00  0.00    +0.000 C 
BRANCH  18  22
ATOM     22  C   UNL     1       0.616   9.982  19.789  0.00  0.00    +0.000 C 
ATOM     23  C   UNL     1       0.916  11.430  20.245  0.00  0.00    +0.000 C 
ATOM     24  C   UNL     1      -0.229  11.876  19.314  0.00  0.00    +0.000 C 
ATOM     25  C   UNL     1      -0.820  10.459  19.485  0.00  0.00    +0.000 C 
ENDBRANCH  18  22
ENDBRANCH   4  18
TORSDOF 4
ENDMDL
MODEL 6
REMARK VINA RESULT:      -8.0      5.334      7.997
REMARK  Name = 
REMARK  4 active torsions:
REMARK  status: ('A' for Active; 'I' for Inactive)
REMARK    1  A    between atoms: C_4  and  C_5
REMARK    2  A    between atoms: C_11  and  C_12
REMARK    3  A    between atoms: C_15  and  C_16
REMARK    4  A    between atoms: C_16  and  C_17
REMARK                            x       y       z     vdW  Elec       q    Type
REMARK                         _______ _______ _______ _____ _____    ______ ____
ROOT
ATOM      1  C   UNL     1       3.012   6.947  18.519  0.00  0.00    +0.000 A 
ATOM      2  N   UNL     1       3.154   5.817  19.222  0.00  0.00    +0.000 NA
ATOM      3  O   UNL     1       4.204   5.164  18.605  0.00  0.00    +0.000 OA
ATOM      4  C   UNL     1       4.630   5.966  17.581  0.00  0.00    +0.000 A 
ATOM      5  N   UNL     1       3.937   7.083  17.499  0.00  0.00    +0.000 NA
ENDROOT
BRANCH   1  12
ATOM      6  O   UNL     1       1.681   7.345  21.067  0.00  0.00    +0.000 OA
ATOM      7  C   UNL     1       1.491   8.142  20.154  0.00  0.00    +0.000 A 
ATOM      8  N   UNL     1       0.678   9.229  20.373  0.00  0.00    +0.000 N 
ATOM      9  C   UNL     1       0.322  10.163  19.417  0.00  0.00    +0.000 A 
ATOM     10  C   UNL     1       0.798  10.009  18.170  0.00  0.00    +0.000 A 
ATOM     11  C   UNL     1       1.688   8.911  17.854  0.00  0.00    +0.000 A 
ATOM     12  C   UNL     1       2.076   8.005  18.775  0.00  0.00    +0.000 A 
ATOM     13  H   UNL     1       0.306   9.307  21.315  0.00  0.00    +0.000 HD
BRANCH   9  14
ATOM     14  C   UNL     1      -0.583  11.302  19.832  0.00  0.00    +0.000 C 
ATOM     15  F   UNL     1      -1.820  11.182  19.280  0.00  0.00    +0.000 F 
ATOM     16  F   UNL     1      -0.754  11.347  21.176  0.00  0.00    +0.000 F 
ATOM     17  F   UNL     1      -0.094  12.507  19.448  0.00  0.00    +0.000 F 
ENDBRANCH   9  14
ENDBRANCH   1  12
BRANCH   4  18
ATOM     18  C   UNL     1       5.809   5.581  16.664  0.00  0.00    +0.000 C 
ATOM     19  C   UNL     1       5.435   5.758  15.152  0.00  0.00    +0.000 C 
ATOM     20  C   UNL     1       5.990   4.362  14.860  0.00  0.00    +0.000 C 
ATOM     21  C   UNL     1       5.813   4.042  16.354  0.00  0.00    +0.000 C 
BRANCH  18  22
ATOM     22  C   UNL     1       7.179   6.131  17.151  0.00  0.00    +0.000 C 
ATOM     23  C   UNL     1       7.479   5.957  18.659  0.00  0.00    +0.000 C 
ATOM     24  C   UNL     1       8.249   7.290  18.578  0.00  0.00    +0.000 C 
ATOM     25  C   UNL     1       7.353   7.649  17.372  0.00  0.00    +0.000 C 
ENDBRANCH  18  22
ENDBRANCH   4  18
TORSDOF 4
ENDMDL
MODEL 7
REMARK VINA RESULT:      -8.0      6.797      9.266
REMARK  Name = 
REMARK  4 active torsions:
REMARK  status: ('A' for Active; 'I' for Inactive)
REMARK    1  A    between atoms: C_4  and  C_5
REMARK    2  A    between atoms: C_11  and  C_12
REMARK    3  A    between atoms: C_15  and  C_16
REMARK    4  A    between atoms: C_16  and  C_17
REMARK                            x       y       z     vdW  Elec       q    Type
REMARK                         _______ _______ _______ _____ _____    ______ ____
ROOT
ATOM      1  C   UNL     1       1.434   7.771  20.559  0.00  0.00    +0.000 A 
ATOM      2  N   UNL     1       2.338   7.883  19.579  0.00  0.00    +0.000 NA
ATOM      3  O   UNL     1       2.714   6.580  19.315  0.00  0.00    +0.000 OA
ATOM      4  C   UNL     1       1.988   5.775  20.149  0.00  0.00    +0.000 A 
ATOM      5  N   UNL     1       1.173   6.462  20.923  0.00  0.00    +0.000 NA
ENDROOT
BRANCH   1  12
ATOM      6  O   UNL     1       0.274   9.989  19.091  0.00  0.00    +0.000 OA
ATOM      7  C   UNL     1       0.098   9.907  20.301  0.00  0.00    +0.000 A 
ATOM      8  N   UNL     1      -0.679  10.852  20.931  0.00  0.00    +0.000 N 
ATOM      9  C   UNL     1      -0.902  10.921  22.293  0.00  0.00    +0.000 A 
ATOM     10  C   UNL     1      -0.318  10.001  23.081  0.00  0.00    +0.000 A 
ATOM     11  C   UNL     1       0.492   8.949  22.503  0.00  0.00    +0.000 A 
ATOM     12  C   UNL     1       0.699   8.840  21.174  0.00  0.00    +0.000 A 
ATOM     13  H   UNL     1      -1.085  11.553  20.318  0.00  0.00    +0.000 HD
BRANCH   9  14
ATOM     14  C   UNL     1      -1.788  12.028  22.818  0.00  0.00    +0.000 C 
ATOM     15  F   UNL     1      -1.064  12.992  23.446  0.00  0.00    +0.000 F 
ATOM     16  F   UNL     1      -2.477  12.639  21.822  0.00  0.00    +0.000 F 
ATOM     17  F   UNL     1      -2.698  11.572  23.714  0.00  0.00    +0.000 F 
ENDBRANCH   9  14
ENDBRANCH   1  12
BRANCH   4  18
ATOM     18  C   UNL     1       2.119   4.238  20.137  0.00  0.00    +0.000 C 
ATOM     19  C   UNL     1       0.726   3.546  20.334  0.00  0.00    +0.000 C 
ATOM     20  C   UNL     1       1.337   2.640  21.406  0.00  0.00    +0.000 C 
ATOM     21  C   UNL     1       2.457   3.682  21.566  0.00  0.00    +0.000 C 
BRANCH  18  22
ATOM     22  C   UNL     1       3.051   3.704  19.014  0.00  0.00    +0.000 C 
ATOM     23  C   UNL     1       2.367   2.865  17.909  0.00  0.00    +0.000 C 
ATOM     24  C   UNL     1       3.676   2.055  17.823  0.00  0.00    +0.000 C 
ATOM     25  C   UNL     1       3.943   2.473  19.286  0.00  0.00    +0.000 C 
ENDBRANCH  18  22
ENDBRANCH   4  18
TORSDOF 4
ENDMDL
MODEL 8
REMARK VINA RESULT:      -7.8      7.060      9.719
REMARK  Name = 
REMARK  4 active torsions:
REMARK  status: ('A' for Active; 'I' for Inactive)
REMARK    1  A    between atoms: C_4  and  C_5
REMARK    2  A    between atoms: C_11  and  C_12
REMARK    3  A    between atoms: C_15  and  C_16
REMARK    4  A    between atoms: C_16  and  C_17
REMARK                            x       y       z     vdW  Elec       q    Type
REMARK                         _______ _______ _______ _____ _____    ______ ____
ROOT
ATOM      1  C   UNL     1       1.199   8.731  20.282  0.00  0.00    +0.000 A 
ATOM      2  N   UNL     1       1.818   8.990  19.124  0.00  0.00    +0.000 NA
ATOM      3  O   UNL     1       2.418   7.792  18.785  0.00  0.00    +0.000 OA
ATOM      4  C   UNL     1       2.095   6.891  19.763  0.00  0.00    +0.000 A 
ATOM      5  N   UNL     1       1.332   7.419  20.698  0.00  0.00    +0.000 NA
ENDROOT
BRANCH   1  12
ATOM      6  O   UNL     1      -0.135  11.046  19.148  0.00  0.00    +0.000 OA
ATOM      7  C   UNL     1      -0.297  10.775  20.333  0.00  0.00    +0.000 A 
ATOM      8  N   UNL     1      -1.139  11.556  21.090  0.00  0.00    +0.000 N 
ATOM      9  C   UNL     1      -1.358  11.408  22.447  0.00  0.00    +0.000 A 
ATOM     10  C   UNL     1      -0.700  10.430  23.094  0.00  0.00    +0.000 A 
ATOM     11  C   UNL     1       0.183   9.538  22.373  0.00  0.00    +0.000 A 
ATOM     12  C   UNL     1       0.389   9.640  21.043  0.00  0.00    +0.000 A 
ATOM     13  H   UNL     1      -1.600  12.307  20.585  0.00  0.00    +0.000 HD
BRANCH   9  14
ATOM     14  C   UNL     1      -2.322  12.356  23.124  0.00  0.00    +0.000 C 
ATOM     15  F   UNL     1      -3.174  11.694  23.952  0.00  0.00    +0.000 F 
ATOM     16  F   UNL     1      -1.676  13.279  23.880  0.00  0.00    +0.000 F 
ATOM     17  F   UNL     1      -3.084  13.032  22.230  0.00  0.00    +0.000 F 
ENDBRANCH   9  14
ENDBRANCH   1  12
BRANCH   4  18
ATOM     18  C   UNL     1       2.571   5.424  19.726  0.00  0.00    +0.000 C 
ATOM     19  C   UNL     1       4.125   5.335  19.548  0.00  0.00    +0.000 C 
ATOM     20  C   UNL     1       3.929   4.303  18.434  0.00  0.00    +0.000 C 
ATOM     21  C   UNL     1       2.495   4.835  18.274  0.00  0.00    +0.000 C 
BRANCH  18  22
ATOM     22  C   UNL     1       1.903   4.529  20.807  0.00  0.00    +0.000 C 
ATOM     23  C   UNL     1       2.756   3.349  21.329  0.00  0.00    +0.000 C 
ATOM     24  C   UNL     1       1.437   2.566  21.484  0.00  0.00    +0.000 C 
ATOM     25  C   UNL     1       0.852   3.479  20.383  0.00  0.00    +0.000 C 
ENDBRANCH  18  22
ENDBRANCH   4  18
TORSDOF 4
ENDMDL
MODEL 9
REMARK VINA RESULT:      -7.7      5.580      8.403
REMARK  Name = 
REMARK  4 active torsions:
REMARK  status: ('A' for Active; 'I' for Inactive)
REMARK    1  A    between atoms: C_4  and  C_5
REMARK    2  A    between atoms: C_11  and  C_12
REMARK    3  A    between atoms: C_15  and  C_16
REMARK    4  A    between atoms: C_16  and  C_17
REMARK                            x       y       z     vdW  Elec       q    Type
REMARK                         _______ _______ _______ _____ _____    ______ ____
ROOT
ATOM      1  C   UNL     1       2.600   6.874  18.571  0.00  0.00    +0.000 A 
ATOM      2  N   UNL     1       2.054   5.723  18.162  0.00  0.00    +0.000 NA
ATOM      3  O   UNL     1       3.090   5.065  17.525  0.00  0.00    +0.000 OA
ATOM      4  C   UNL     1       4.193   5.868  17.618  0.00  0.00    +0.000 A 
ATOM      5  N   UNL     1       3.945   6.987  18.268  0.00  0.00    +0.000 NA
ENDROOT
BRANCH   1  12
ATOM      6  O   UNL     1       1.883   9.464  17.476  0.00  0.00    +0.000 OA
ATOM      7  C   UNL     1       1.581   9.192  18.633  0.00  0.00    +0.000 A 
ATOM      8  N   UNL     1       0.875  10.110  19.374  0.00  0.00    +0.000 N 
ATOM      9  C   UNL     1       0.532   9.965  20.706  0.00  0.00    +0.000 A 
ATOM     10  C   UNL     1       0.915   8.845  21.342  0.00  0.00    +0.000 A 
ATOM     11  C   UNL     1       1.634   7.807  20.633  0.00  0.00    +0.000 A 
ATOM     12  C   UNL     1       1.953   7.910  19.326  0.00  0.00    +0.000 A 
ATOM     13  H   UNL     1       0.624  10.962  18.880  0.00  0.00    +0.000 HD
BRANCH   9  14
ATOM     14  C   UNL     1      -0.251  11.076  21.369  0.00  0.00    +0.000 C 
ATOM     15  F   UNL     1      -1.402  11.346  20.696  0.00  0.00    +0.000 F 
ATOM     16  F   UNL     1      -0.602  10.758  22.640  0.00  0.00    +0.000 F 
ATOM     17  F   UNL     1       0.454  12.233  21.426  0.00  0.00    +0.000 F 
ENDBRANCH   9  14
ENDBRANCH   1  12
BRANCH   4  18
ATOM     18  C   UNL     1       5.563   5.463  17.034  0.00  0.00    +0.000 C 
ATOM     19  C   UNL     1       6.375   4.584  18.046  0.00  0.00    +0.000 C 
ATOM     20  C   UNL     1       7.603   5.467  17.814  0.00  0.00    +0.000 C 
ATOM     21  C   UNL     1       6.648   6.562  17.310  0.00  0.00    +0.000 C 
BRANCH  18  22
ATOM     22  C   UNL     1       5.492   5.001  15.552  0.00  0.00    +0.000 C 
ATOM     23  C   UNL     1       5.710   3.490  15.304  0.00  0.00    +0.000 C 
ATOM     24  C   UNL     1       6.373   3.885  13.969  0.00  0.00    +0.000 C 
ATOM     25  C   UNL     1       6.699   5.248  14.620  0.00  0.00    +0.000 C 
ENDBRANCH  18  22
ENDBRANCH   4  18
TORSDOF 4
ENDMDL
