MODEL 1
REMARK VINA RESULT:     -10.2      0.000      0.000
REMARK  Name = 
REMARK  5 active torsions:
REMARK  status: ('A' for Active; 'I' for Inactive)
REMARK    1  A    between atoms: C_2  and  C_3
REMARK    2  A    between atoms: C_3  and  C_4
REMARK    3  A    between atoms: C_4  and  C_5
REMARK    4  A    between atoms: N_14  and  C_15
REMARK    5  A    between atoms: C_19  and  C_20
REMARK                            x       y       z     vdW  Elec       q    Type
REMARK                         _______ _______ _______ _____ _____    ______ ____
ROOT
ATOM      1  O   UNL     1       8.141   6.870  18.670  0.00  0.00    +0.000 OA
ATOM      2  C   UNL     1       7.710   7.655  17.829  0.00  0.00    +0.000 C 
ATOM      3  N   UNL     1       6.949   7.330  16.716  0.00  0.00    +0.000 N 
ATOM      4  H   UNL     1       6.836   8.038  16.005  0.00  0.00    +0.000 HD
ENDROOT
BRANCH   3   5
ATOM      5  C   UNL     1       6.459   6.039  16.400  0.00  0.00    +0.000 A 
ATOM      6  C   UNL     1       7.188   5.124  15.638  0.00  0.00    +0.000 A 
ATOM      7  C   UNL     1       6.628   3.909  15.259  0.00  0.00    +0.000 A 
ATOM      8  C   UNL     1       5.351   3.579  15.685  0.00  0.00    +0.000 A 
ATOM      9  C   UNL     1       4.667   4.402  16.591  0.00  0.00    +0.000 A 
ATOM     10  C   UNL     1       5.203   5.661  16.900  0.00  0.00    +0.000 A 
BRANCH   9  11
ATOM     11  C   UNL     1       3.456   3.918  17.264  0.00  0.00    +0.000 A 
ATOM     12  N   UNL     1       2.648   2.969  16.843  0.00  0.00    +0.000 NA
ATOM     13  N   UNL     1       1.625   2.830  17.751  0.00  0.00    +0.000 NA
ATOM     14  C   UNL     1       1.796   3.714  18.710  0.00  0.00    +0.000 A 
ATOM     15  N   UNL     1       2.921   4.455  18.423  0.00  0.00    +0.000 N 
ATOM     16  C   UNL     1       3.429   5.593  19.156  0.00  0.00    +0.000 C 
ATOM     17  C   UNL     1       2.372   6.517  19.735  0.00  0.00    +0.000 C 
ATOM     18  C   UNL     1       1.774   6.008  21.041  0.00  0.00    +0.000 C 
ATOM     19  C   UNL     1       1.565   4.494  21.119  0.00  0.00    +0.000 C 
ATOM     20  C   UNL     1       0.891   3.906  19.882  0.00  0.00    +0.000 C 
ENDBRANCH   9  11
ENDBRANCH   3   5
BRANCH   2  21
ATOM     21  C   UNL     1       8.041   9.124  17.940  0.00  0.00    +0.000 C 
BRANCH  21  22
ATOM     22  C   UNL     1       9.060   9.395  19.039  0.00  0.00    +0.000 C 
BRANCH  22  23
ATOM     23  C   UNL     1       9.589  10.791  18.964  0.00  0.00    +0.000 A 
ATOM     24  C   UNL     1      10.145  11.397  17.854  0.00  0.00    +0.000 A 
ATOM     25  N   UNL     1      10.474  12.684  18.187  0.00  0.00    +0.000 N 
ATOM     26  C   UNL     1      10.147  12.935  19.499  0.00  0.00    +0.000 A 
ATOM     27  C   UNL     1      10.294  14.102  20.258  0.00  0.00    +0.000 A 
ATOM     28  C   UNL     1       9.870  14.068  21.589  0.00  0.00    +0.000 A 
ATOM     29  C   UNL     1       9.319  12.912  22.136  0.00  0.00    +0.000 A 
ATOM     30  C   UNL     1       9.174  11.755  21.362  0.00  0.00    +0.000 A 
ATOM     31  C   UNL     1       9.595  11.763  20.017  0.00  0.00    +0.000 A 
ATOM     32  H   UNL     1      10.894  13.358  17.563  0.00  0.00    +0.000 HD
ENDBRANCH  22  23
ENDBRANCH  21  22
ENDBRANCH   2  21
TORSDOF 5
ENDMDL
MODEL 2
REMARK VINA RESULT:      -9.7      5.333      8.896
REMARK  Name = 
REMARK  5 active torsions:
REMARK  status: ('A' for Active; 'I' for Inactive)
REMARK    1  A    between atoms: C_2  and  C_3
REMARK    2  A    between atoms: C_3  and  C_4
REMARK    3  A    between atoms: C_4  and  C_5
REMARK    4  A    between atoms: N_14  and  C_15
REMARK    5  A    between atoms: C_19  and  C_20
REMARK                            x       y       z     vdW  Elec       q    Type
REMARK                         _______ _______ _______ _____ _____    ______ ____
ROOT
ATOM      1  O   UNL     1       1.740   8.762  22.165  0.00  0.00    +0.000 OA
ATOM      2  C   UNL     1       1.256   8.888  21.043  0.00  0.00    +0.000 C 
ATOM      3  N   UNL     1       1.336   7.970  20.006  0.00  0.00    +0.000 N 
ATOM      4  H   UNL     1       1.073   8.284  19.083  0.00  0.00    +0.000 HD
ENDROOT
BRANCH   3   5
ATOM      5  C   UNL     1       1.918   6.681  20.088  0.00  0.00    +0.000 A 
ATOM      6  C   UNL     1       1.209   5.563  20.530  0.00  0.00    +0.000 A 
ATOM      7  C   UNL     1       1.846   4.338  20.699  0.00  0.00    +0.000 A 
ATOM      8  C   UNL     1       3.188   4.212  20.375  0.00  0.00    +0.000 A 
ATOM      9  C   UNL     1       3.878   5.272  19.768  0.00  0.00    +0.000 A 
ATOM     10  C   UNL     1       3.252   6.524  19.680  0.00  0.00    +0.000 A 
BRANCH   9  11
ATOM     11  C   UNL     1       5.196   5.048  19.164  0.00  0.00    +0.000 A 
ATOM     12  N   UNL     1       6.344   4.939  19.797  0.00  0.00    +0.000 NA
ATOM     13  N   UNL     1       7.340   4.753  18.869  0.00  0.00    +0.000 NA
ATOM     14  C   UNL     1       6.802   4.777  17.669  0.00  0.00    +0.000 A 
ATOM     15  N   UNL     1       5.450   5.003  17.803  0.00  0.00    +0.000 N 
ATOM     16  C   UNL     1       4.486   5.197  16.743  0.00  0.00    +0.000 C 
ATOM     17  C   UNL     1       4.992   5.971  15.539  0.00  0.00    +0.000 C 
ATOM     18  C   UNL     1       5.808   5.121  14.572  0.00  0.00    +0.000 C 
ATOM     19  C   UNL     1       6.719   4.079  15.225  0.00  0.00    +0.000 C 
ATOM     20  C   UNL     1       7.546   4.631  16.383  0.00  0.00    +0.000 C 
ENDBRANCH   9  11
ENDBRANCH   3   5
BRANCH   2  21
ATOM     21  C   UNL     1       0.526  10.160  20.682  0.00  0.00    +0.000 C 
BRANCH  21  22
ATOM     22  C   UNL     1       0.227  10.239  19.190  0.00  0.00    +0.000 C 
BRANCH  22  23
ATOM     23  C   UNL     1      -1.086  10.905  18.930  0.00  0.00    +0.000 A 
ATOM     24  C   UNL     1      -1.677  11.882  19.708  0.00  0.00    +0.000 A 
ATOM     25  N   UNL     1      -2.853  12.251  19.113  0.00  0.00    +0.000 N 
ATOM     26  C   UNL     1      -3.049  11.532  17.957  0.00  0.00    +0.000 A 
ATOM     27  C   UNL     1      -4.098  11.580  17.032  0.00  0.00    +0.000 A 
ATOM     28  C   UNL     1      -4.034  10.718  15.934  0.00  0.00    +0.000 A 
ATOM     29  C   UNL     1      -2.962   9.845  15.769  0.00  0.00    +0.000 A 
ATOM     30  C   UNL     1      -1.918   9.813  16.702  0.00  0.00    +0.000 A 
ATOM     31  C   UNL     1      -1.959  10.672  17.819  0.00  0.00    +0.000 A 
ATOM     32  H   UNL     1      -3.489  12.954  19.465  0.00  0.00    +0.000 HD
ENDBRANCH  22  23
ENDBRANCH  21  22
ENDBRANCH   2  21
TORSDOF 5
ENDMDL
MODEL 3
REMARK VINA RESULT:      -9.6      6.499     10.083
REMARK  Name = 
REMARK  5 active torsions:
REMARK  status: ('A' for Active; 'I' for Inactive)
REMARK    1  A    between atoms: C_2  and  C_3
REMARK    2  A    between atoms: C_3  and  C_4
REMARK    3  A    between atoms: C_4  and  C_5
REMARK    4  A    between atoms: N_14  and  C_15
REMARK    5  A    between atoms: C_19  and  C_20
REMARK                            x       y       z     vdW  Elec       q    Type
REMARK                         _______ _______ _______ _____ _____    ______ ____
ROOT
ATOM      1  O   UNL     1       2.232   8.941  17.163  0.00  0.00    +0.000 OA
ATOM      2  C   UNL     1       2.049   8.645  18.341  0.00  0.00    +0.000 C 
ATOM      3  N   UNL     1       1.328   9.380  19.270  0.00  0.00    +0.000 N 
ATOM      4  H   UNL     1       1.427   9.128  20.243  0.00  0.00    +0.000 HD
ENDROOT
BRANCH   3   5
ATOM      5  C   UNL     1       0.599  10.565  18.999  0.00  0.00    +0.000 A 
ATOM      6  C   UNL     1       1.179  11.834  19.058  0.00  0.00    +0.000 A 
ATOM      7  C   UNL     1       0.406  12.977  18.891  0.00  0.00    +0.000 A 
ATOM      8  C   UNL     1      -0.947  12.856  18.611  0.00  0.00    +0.000 A 
ATOM      9  C   UNL     1      -1.516  11.596  18.376  0.00  0.00    +0.000 A 
ATOM     10  C   UNL     1      -0.749  10.449  18.628  0.00  0.00    +0.000 A 
BRANCH   9  11
ATOM     11  C   UNL     1      -2.860  11.486  17.798  0.00  0.00    +0.000 A 
ATOM     12  N   UNL     1      -3.158  11.216  16.545  0.00  0.00    +0.000 NA
ATOM     13  N   UNL     1      -4.526  11.222  16.409  0.00  0.00    +0.000 NA
ATOM     14  C   UNL     1      -5.060  11.523  17.573  0.00  0.00    +0.000 A 
ATOM     15  N   UNL     1      -4.041  11.740  18.475  0.00  0.00    +0.000 N 
ATOM     16  C   UNL     1      -4.167  12.183  19.845  0.00  0.00    +0.000 C 
ATOM     17  C   UNL     1      -5.269  13.195  20.102  0.00  0.00    +0.000 C 
ATOM     18  C   UNL     1      -6.651  12.565  20.234  0.00  0.00    +0.000 C 
ATOM     19  C   UNL     1      -6.924  11.387  19.297  0.00  0.00    +0.000 C 
ATOM     20  C   UNL     1      -6.521  11.651  17.849  0.00  0.00    +0.000 C 
ENDBRANCH   9  11
ENDBRANCH   3   5
BRANCH   2  21
ATOM     21  C   UNL     1       2.677   7.391  18.903  0.00  0.00    +0.000 C 
BRANCH  21  22
ATOM     22  C   UNL     1       3.651   6.755  17.919  0.00  0.00    +0.000 C 
BRANCH  22  23
ATOM     23  C   UNL     1       3.999   5.358  18.320  0.00  0.00    +0.000 A 
ATOM     24  C   UNL     1       5.256   4.890  18.651  0.00  0.00    +0.000 A 
ATOM     25  N   UNL     1       5.148   3.568  18.989  0.00  0.00    +0.000 N 
ATOM     26  C   UNL     1       3.840   3.155  18.884  0.00  0.00    +0.000 A 
ATOM     27  C   UNL     1       3.266   1.903  19.133  0.00  0.00    +0.000 A 
ATOM     28  C   UNL     1       1.889   1.770  18.936  0.00  0.00    +0.000 A 
ATOM     29  C   UNL     1       1.118   2.847  18.508  0.00  0.00    +0.000 A 
ATOM     30  C   UNL     1       1.707   4.095  18.268  0.00  0.00    +0.000 A 
ATOM     31  C   UNL     1       3.095   4.255  18.458  0.00  0.00    +0.000 A 
ATOM     32  H   UNL     1       5.913   2.975  19.279  0.00  0.00    +0.000 HD
ENDBRANCH  22  23
ENDBRANCH  21  22
ENDBRANCH   2  21
TORSDOF 5
ENDMDL
MODEL 4
REMARK VINA RESULT:      -9.6      6.490      9.444
REMARK  Name = 
REMARK  5 active torsions:
REMARK  status: ('A' for Active; 'I' for Inactive)
REMARK    1  A    between atoms: C_2  and  C_3
REMARK    2  A    between atoms: C_3  and  C_4
REMARK    3  A    between atoms: C_4  and  C_5
REMARK    4  A    between atoms: N_14  and  C_15
REMARK    5  A    between atoms: C_19  and  C_20
REMARK                            x       y       z     vdW  Elec       q    Type
REMARK                         _______ _______ _______ _____ _____    ______ ____
ROOT
ATOM      1  O   UNL     1       2.247   8.715  17.342  0.00  0.00    +0.000 OA
ATOM      2  C   UNL     1       1.963   8.496  18.516  0.00  0.00    +0.000 C 
ATOM      3  N   UNL     1       1.202   9.310  19.342  0.00  0.00    +0.000 N 
ATOM      4  H   UNL     1       1.216   9.114  20.333  0.00  0.00    +0.000 HD
ENDROOT
BRANCH   3   5
ATOM      5  C   UNL     1       0.542  10.500  18.948  0.00  0.00    +0.000 A 
ATOM      6  C   UNL     1       1.201  11.728  18.850  0.00  0.00    +0.000 A 
ATOM      7  C   UNL     1       0.496  12.892  18.565  0.00  0.00    +0.000 A 
ATOM      8  C   UNL     1      -0.867  12.827  18.322  0.00  0.00    +0.000 A 
ATOM      9  C   UNL     1      -1.519  11.588  18.244  0.00  0.00    +0.000 A 
ATOM     10  C   UNL     1      -0.819  10.430  18.615  0.00  0.00    +0.000 A 
BRANCH   9  11
ATOM     11  C   UNL     1      -2.881  11.500  17.704  0.00  0.00    +0.000 A 
ATOM     12  N   UNL     1      -3.219  11.219  16.464  0.00  0.00    +0.000 NA
ATOM     13  N   UNL     1      -4.589  11.252  16.366  0.00  0.00    +0.000 NA
ATOM     14  C   UNL     1      -5.084  11.581  17.539  0.00  0.00    +0.000 A 
ATOM     15  N   UNL     1      -4.037  11.788  18.410  0.00  0.00    +0.000 N 
ATOM     16  C   UNL     1      -4.115  12.253  19.777  0.00  0.00    +0.000 C 
ATOM     17  C   UNL     1      -5.188  13.292  20.049  0.00  0.00    +0.000 C 
ATOM     18  C   UNL     1      -6.579  12.694  20.227  0.00  0.00    +0.000 C 
ATOM     19  C   UNL     1      -6.903  11.509  19.315  0.00  0.00    +0.000 C 
ATOM     20  C   UNL     1      -6.535  11.745  17.853  0.00  0.00    +0.000 C 
ENDBRANCH   9  11
ENDBRANCH   3   5
BRANCH   2  21
ATOM     21  C   UNL     1       2.497   7.258  19.196  0.00  0.00    +0.000 C 
BRANCH  21  22
ATOM     22  C   UNL     1       2.719   6.120  18.208  0.00  0.00    +0.000 C 
BRANCH  22  23
ATOM     23  C   UNL     1       4.108   5.575  18.304  0.00  0.00    +0.000 A 
ATOM     24  C   UNL     1       4.741   5.143  19.453  0.00  0.00    +0.000 A 
ATOM     25  N   UNL     1       5.987   4.691  19.113  0.00  0.00    +0.000 N 
ATOM     26  C   UNL     1       6.187   4.819  17.759  0.00  0.00    +0.000 A 
ATOM     27  C   UNL     1       7.297   4.483  16.975  0.00  0.00    +0.000 A 
ATOM     28  C   UNL     1       7.221   4.732  15.602  0.00  0.00    +0.000 A 
ATOM     29  C   UNL     1       6.079   5.294  15.038  0.00  0.00    +0.000 A 
ATOM     30  C   UNL     1       4.976   5.620  15.835  0.00  0.00    +0.000 A 
ATOM     31  C   UNL     1       5.027   5.380  17.223  0.00  0.00    +0.000 A 
ATOM     32  H   UNL     1       6.666   4.311  19.759  0.00  0.00    +0.000 HD
ENDBRANCH  22  23
ENDBRANCH  21  22
ENDBRANCH   2  21
TORSDOF 5
ENDMDL
MODEL 5
REMARK VINA RESULT:      -9.6      1.547      2.223
REMARK  Name = 
REMARK  5 active torsions:
REMARK  status: ('A' for Active; 'I' for Inactive)
REMARK    1  A    between atoms: C_2  and  C_3
REMARK    2  A    between atoms: C_3  and  C_4
REMARK    3  A    between atoms: C_4  and  C_5
REMARK    4  A    between atoms: N_14  and  C_15
REMARK    5  A    between atoms: C_19  and  C_20
REMARK                            x       y       z     vdW  Elec       q    Type
REMARK                         _______ _______ _______ _____ _____    ______ ____
ROOT
ATOM      1  O   UNL     1       8.557   7.545  18.678  0.00  0.00    +0.000 OA
ATOM      2  C   UNL     1       7.874   8.254  17.943  0.00  0.00    +0.000 C 
ATOM      3  N   UNL     1       6.946   7.815  17.011  0.00  0.00    +0.000 N 
ATOM      4  H   UNL     1       6.607   8.488  16.338  0.00  0.00    +0.000 HD
ENDROOT
BRANCH   3   5
ATOM      5  C   UNL     1       6.557   6.469  16.803  0.00  0.00    +0.000 A 
ATOM      6  C   UNL     1       6.870   5.768  15.637  0.00  0.00    +0.000 A 
ATOM      7  C   UNL     1       6.379   4.484  15.426  0.00  0.00    +0.000 A 
ATOM      8  C   UNL     1       5.612   3.873  16.406  0.00  0.00    +0.000 A 
ATOM      9  C   UNL     1       5.429   4.487  17.654  0.00  0.00    +0.000 A 
ATOM     10  C   UNL     1       5.856   5.812  17.826  0.00  0.00    +0.000 A 
BRANCH   9  11
ATOM     11  C   UNL     1       4.875   3.725  18.779  0.00  0.00    +0.000 A 
ATOM     12  N   UNL     1       5.546   2.979  19.629  0.00  0.00    +0.000 NA
ATOM     13  N   UNL     1       4.658   2.425  20.521  0.00  0.00    +0.000 NA
ATOM     14  C   UNL     1       3.444   2.812  20.196  0.00  0.00    +0.000 A 
ATOM     15  N   UNL     1       3.528   3.605  19.073  0.00  0.00    +0.000 N 
ATOM     16  C   UNL     1       2.431   4.171  18.319  0.00  0.00    +0.000 C 
ATOM     17  C   UNL     1       1.200   3.290  18.203  0.00  0.00    +0.000 C 
ATOM     18  C   UNL     1       0.306   3.334  19.438  0.00  0.00    +0.000 C 
ATOM     19  C   UNL     1       1.043   3.414  20.776  0.00  0.00    +0.000 C 
ATOM     20  C   UNL     1       2.190   2.415  20.902  0.00  0.00    +0.000 C 
ENDBRANCH   9  11
ENDBRANCH   3   5
BRANCH   2  21
ATOM     21  C   UNL     1       8.044   9.754  17.983  0.00  0.00    +0.000 C 
BRANCH  21  22
ATOM     22  C   UNL     1       9.485  10.154  18.274  0.00  0.00    +0.000 C 
BRANCH  22  23
ATOM     23  C   UNL     1       9.573  11.060  19.459  0.00  0.00    +0.000 A 
ATOM     24  C   UNL     1       9.236  10.741  20.760  0.00  0.00    +0.000 A 
ATOM     25  N   UNL     1       9.489  11.830  21.550  0.00  0.00    +0.000 N 
ATOM     26  C   UNL     1       9.986  12.863  20.790  0.00  0.00    +0.000 A 
ATOM     27  C   UNL     1      10.387  14.150  21.169  0.00  0.00    +0.000 A 
ATOM     28  C   UNL     1      10.855  15.005  20.167  0.00  0.00    +0.000 A 
ATOM     29  C   UNL     1      10.920  14.586  18.841  0.00  0.00    +0.000 A 
ATOM     30  C   UNL     1      10.520  13.294  18.480  0.00  0.00    +0.000 A 
ATOM     31  C   UNL     1      10.043  12.413  19.471  0.00  0.00    +0.000 A 
ATOM     32  H   UNL     1       9.340  11.874  22.548  0.00  0.00    +0.000 HD
ENDBRANCH  22  23
ENDBRANCH  21  22
ENDBRANCH   2  21
TORSDOF 5
ENDMDL
MODEL 6
REMARK VINA RESULT:      -9.5      5.961      9.316
REMARK  Name = 
REMARK  5 active torsions:
REMARK  status: ('A' for Active; 'I' for Inactive)
REMARK    1  A    between atoms: C_2  and  C_3
REMARK    2  A    between atoms: C_3  and  C_4
REMARK    3  A    between atoms: C_4  and  C_5
REMARK    4  A    between atoms: N_14  and  C_15
REMARK    5  A    between atoms: C_19  and  C_20
REMARK                            x       y       z     vdW  Elec       q    Type
REMARK                         _______ _______ _______ _____ _____    ______ ____
ROOT
ATOM      1  O   UNL     1       1.544   9.677  22.633  0.00  0.00    +0.000 OA
ATOM      2  C   UNL     1       0.429   9.795  22.131  0.00  0.00    +0.000 C 
ATOM      3  N   UNL     1       0.109   9.626  20.792  0.00  0.00    +0.000 N 
ATOM      4  H   UNL     1      -0.797   9.950  20.485  0.00  0.00    +0.000 HD
ENDROOT
BRANCH   3   5
ATOM      5  C   UNL     1       1.001   9.201  19.778  0.00  0.00    +0.000 A 
ATOM      6  C   UNL     1       1.366  10.019  18.706  0.00  0.00    +0.000 A 
ATOM      7  C   UNL     1       2.159   9.528  17.675  0.00  0.00    +0.000 A 
ATOM      8  C   UNL     1       2.635   8.227  17.735  0.00  0.00    +0.000 A 
ATOM      9  C   UNL     1       2.427   7.444  18.879  0.00  0.00    +0.000 A 
ATOM     10  C   UNL     1       1.559   7.917  19.875  0.00  0.00    +0.000 A 
BRANCH   9  11
ATOM     11  C   UNL     1       3.169   6.192  19.066  0.00  0.00    +0.000 A 
ATOM     12  N   UNL     1       4.340   5.887  18.549  0.00  0.00    +0.000 NA
ATOM     13  N   UNL     1       4.680   4.617  18.951  0.00  0.00    +0.000 NA
ATOM     14  C   UNL     1       3.702   4.139  19.690  0.00  0.00    +0.000 A 
ATOM     15  N   UNL     1       2.704   5.086  19.757  0.00  0.00    +0.000 N 
ATOM     16  C   UNL     1       1.410   4.949  20.386  0.00  0.00    +0.000 C 
ATOM     17  C   UNL     1       0.772   3.576  20.265  0.00  0.00    +0.000 C 
ATOM     18  C   UNL     1       1.311   2.568  21.274  0.00  0.00    +0.000 C 
ATOM     19  C   UNL     1       2.810   2.671  21.564  0.00  0.00    +0.000 C 
ATOM     20  C   UNL     1       3.669   2.780  20.308  0.00  0.00    +0.000 C 
ENDBRANCH   9  11
ENDBRANCH   3   5
BRANCH   2  21
ATOM     21  C   UNL     1      -0.740  10.200  22.997  0.00  0.00    +0.000 C 
BRANCH  21  22
ATOM     22  C   UNL     1      -0.904  11.714  23.057  0.00  0.00    +0.000 C 
BRANCH  22  23
ATOM     23  C   UNL     1      -2.125  12.162  22.321  0.00  0.00    +0.000 A 
ATOM     24  C   UNL     1      -2.225  12.388  20.961  0.00  0.00    +0.000 A 
ATOM     25  N   UNL     1      -3.513  12.755  20.680  0.00  0.00    +0.000 N 
ATOM     26  C   UNL     1      -4.264  12.776  21.831  0.00  0.00    +0.000 A 
ATOM     27  C   UNL     1      -5.617  13.083  22.020  0.00  0.00    +0.000 A 
ATOM     28  C   UNL     1      -6.120  13.024  23.323  0.00  0.00    +0.000 A 
ATOM     29  C   UNL     1      -5.300  12.672  24.392  0.00  0.00    +0.000 A 
ATOM     30  C   UNL     1      -3.951  12.363  24.185  0.00  0.00    +0.000 A 
ATOM     31  C   UNL     1      -3.419  12.416  22.881  0.00  0.00    +0.000 A 
ATOM     32  H   UNL     1      -3.869  12.975  19.760  0.00  0.00    +0.000 HD
ENDBRANCH  22  23
ENDBRANCH  21  22
ENDBRANCH   2  21
TORSDOF 5
ENDMDL
MODEL 7
REMARK VINA RESULT:      -9.4      4.568      7.688
REMARK  Name = 
REMARK  5 active torsions:
REMARK  status: ('A' for Active; 'I' for Inactive)
REMARK    1  A    between atoms: C_2  and  C_3
REMARK    2  A    between atoms: C_3  and  C_4
REMARK    3  A    between atoms: C_4  and  C_5
REMARK    4  A    between atoms: N_14  and  C_15
REMARK    5  A    between atoms: C_19  and  C_20
REMARK                            x       y       z     vdW  Elec       q    Type
REMARK                         _______ _______ _______ _____ _____    ______ ____
ROOT
ATOM      1  O   UNL     1       1.611   4.924  17.650  0.00  0.00    +0.000 OA
ATOM      2  C   UNL     1       2.527   4.996  18.465  0.00  0.00    +0.000 C 
ATOM      3  N   UNL     1       2.942   6.137  19.134  0.00  0.00    +0.000 N 
ATOM      4  H   UNL     1       3.829   6.098  19.618  0.00  0.00    +0.000 HD
ENDROOT
BRANCH   3   5
ATOM      5  C   UNL     1       2.324   7.409  19.059  0.00  0.00    +0.000 A 
ATOM      6  C   UNL     1       2.169   8.100  17.856  0.00  0.00    +0.000 A 
ATOM      7  C   UNL     1       1.655   9.392  17.838  0.00  0.00    +0.000 A 
ATOM      8  C   UNL     1       1.242   9.982  19.023  0.00  0.00    +0.000 A 
ATOM      9  C   UNL     1       1.226   9.248  20.218  0.00  0.00    +0.000 A 
ATOM     10  C   UNL     1       1.823   7.979  20.240  0.00  0.00    +0.000 A 
BRANCH   9  11
ATOM     11  C   UNL     1       0.524   9.766  21.397  0.00  0.00    +0.000 A 
ATOM     12  N   UNL     1       0.517   9.241  22.603  0.00  0.00    +0.000 NA
ATOM     13  N   UNL     1      -0.272  10.020  23.416  0.00  0.00    +0.000 NA
ATOM     14  C   UNL     1      -0.769  11.003  22.697  0.00  0.00    +0.000 A 
ATOM     15  N   UNL     1      -0.325  10.860  21.400  0.00  0.00    +0.000 N 
ATOM     16  C   UNL     1      -0.697  11.662  20.256  0.00  0.00    +0.000 C 
ATOM     17  C   UNL     1      -2.143  12.123  20.228  0.00  0.00    +0.000 C 
ATOM     18  C   UNL     1      -2.407  13.343  21.104  0.00  0.00    +0.000 C 
ATOM     19  C   UNL     1      -1.639  13.376  22.427  0.00  0.00    +0.000 C 
ATOM     20  C   UNL     1      -1.694  12.061  23.199  0.00  0.00    +0.000 C 
ENDBRANCH   9  11
ENDBRANCH   3   5
BRANCH   2  21
ATOM     21  C   UNL     1       3.343   3.765  18.783  0.00  0.00    +0.000 C 
BRANCH  21  22
ATOM     22  C   UNL     1       4.248   3.370  17.623  0.00  0.00    +0.000 C 
BRANCH  22  23
ATOM     23  C   UNL     1       5.029   4.538  17.115  0.00  0.00    +0.000 A 
ATOM     24  C   UNL     1       4.851   5.178  15.903  0.00  0.00    +0.000 A 
ATOM     25  N   UNL     1       5.740   6.216  15.830  0.00  0.00    +0.000 N 
ATOM     26  C   UNL     1       6.504   6.270  16.972  0.00  0.00    +0.000 A 
ATOM     27  C   UNL     1       7.522   7.159  17.336  0.00  0.00    +0.000 A 
ATOM     28  C   UNL     1       8.136   6.970  18.577  0.00  0.00    +0.000 A 
ATOM     29  C   UNL     1       7.745   5.933  19.420  0.00  0.00    +0.000 A 
ATOM     30  C   UNL     1       6.721   5.056  19.043  0.00  0.00    +0.000 A 
ATOM     31  C   UNL     1       6.086   5.224  17.796  0.00  0.00    +0.000 A 
ATOM     32  H   UNL     1       5.826   6.857  15.054  0.00  0.00    +0.000 HD
ENDBRANCH  22  23
ENDBRANCH  21  22
ENDBRANCH   2  21
TORSDOF 5
ENDMDL
MODEL 8
REMARK VINA RESULT:      -9.4      1.267      1.867
REMARK  Name = 
REMARK  5 active torsions:
REMARK  status: ('A' for Active; 'I' for Inactive)
REMARK    1  A    between atoms: C_2  and  C_3
REMARK    2  A    between atoms: C_3  and  C_4
REMARK    3  A    between atoms: C_4  and  C_5
REMARK    4  A    between atoms: N_14  and  C_15
REMARK    5  A    between atoms: C_19  and  C_20
REMARK                            x       y       z     vdW  Elec       q    Type
REMARK                         _______ _______ _______ _____ _____    ______ ____
ROOT
ATOM      1  O   UNL     1       7.036   8.419  16.712  0.00  0.00    +0.000 OA
ATOM      2  C   UNL     1       7.717   7.809  17.532  0.00  0.00    +0.000 C 
ATOM      3  N   UNL     1       7.704   6.440  17.754  0.00  0.00    +0.000 N 
ATOM      4  H   UNL     1       8.160   6.098  18.588  0.00  0.00    +0.000 HD
ENDROOT
BRANCH   3   5
ATOM      5  C   UNL     1       6.961   5.490  17.010  0.00  0.00    +0.000 A 
ATOM      6  C   UNL     1       7.454   4.893  15.848  0.00  0.00    +0.000 A 
ATOM      7  C   UNL     1       6.654   4.048  15.088  0.00  0.00    +0.000 A 
ATOM      8  C   UNL     1       5.368   3.752  15.515  0.00  0.00    +0.000 A 
ATOM      9  C   UNL     1       4.912   4.200  16.763  0.00  0.00    +0.000 A 
ATOM     10  C   UNL     1       5.693   5.117  17.481  0.00  0.00    +0.000 A 
BRANCH   9  11
ATOM     11  C   UNL     1       3.679   3.652  17.341  0.00  0.00    +0.000 A 
ATOM     12  N   UNL     1       2.950   2.671  16.854  0.00  0.00    +0.000 NA
ATOM     13  N   UNL     1       1.871   2.474  17.683  0.00  0.00    +0.000 NA
ATOM     14  C   UNL     1       1.929   3.354  18.659  0.00  0.00    +0.000 A 
ATOM     15  N   UNL     1       3.036   4.149  18.462  0.00  0.00    +0.000 N 
ATOM     16  C   UNL     1       3.434   5.301  19.240  0.00  0.00    +0.000 C 
ATOM     17  C   UNL     1       2.295   6.168  19.747  0.00  0.00    +0.000 C 
ATOM     18  C   UNL     1       1.627   5.616  21.001  0.00  0.00    +0.000 C 
ATOM     19  C   UNL     1       1.485   4.093  21.050  0.00  0.00    +0.000 C 
ATOM     20  C   UNL     1       0.933   3.489  19.763  0.00  0.00    +0.000 C 
ENDBRANCH   9  11
ENDBRANCH   3   5
BRANCH   2  21
ATOM     21  C   UNL     1       8.650   8.570  18.443  0.00  0.00    +0.000 C 
BRANCH  21  22
ATOM     22  C   UNL     1       8.171   9.996  18.683  0.00  0.00    +0.000 C 
BRANCH  22  23
ATOM     23  C   UNL     1       9.191  10.801  19.421  0.00  0.00    +0.000 A 
ATOM     24  C   UNL     1       9.365  10.843  20.791  0.00  0.00    +0.000 A 
ATOM     25  N   UNL     1      10.421  11.670  21.065  0.00  0.00    +0.000 N 
ATOM     26  C   UNL     1      10.945  12.175  19.898  0.00  0.00    +0.000 A 
ATOM     27  C   UNL     1      12.023  13.045  19.696  0.00  0.00    +0.000 A 
ATOM     28  C   UNL     1      12.333  13.398  18.379  0.00  0.00    +0.000 A 
ATOM     29  C   UNL     1      11.595  12.897  17.310  0.00  0.00    +0.000 A 
ATOM     30  C   UNL     1      10.523  12.023  17.530  0.00  0.00    +0.000 A 
ATOM     31  C   UNL     1      10.188  11.654  18.848  0.00  0.00    +0.000 A 
ATOM     32  H   UNL     1      10.773  11.880  21.988  0.00  0.00    +0.000 HD
ENDBRANCH  22  23
ENDBRANCH  21  22
ENDBRANCH   2  21
TORSDOF 5
ENDMDL
MODEL 9
REMARK VINA RESULT:      -9.2      1.272      1.696
REMARK  Name = 
REMARK  5 active torsions:
REMARK  status: ('A' for Active; 'I' for Inactive)
REMARK    1  A    between atoms: C_2  and  C_3
REMARK    2  A    between atoms: C_3  and  C_4
REMARK    3  A    between atoms: C_4  and  C_5
REMARK    4  A    between atoms: N_14  and  C_15
REMARK    5  A    between atoms: C_19  and  C_20
REMARK                            x       y       z     vdW  Elec       q    Type
REMARK                         _______ _______ _______ _____ _____    ______ ____
ROOT
ATOM      1  O   UNL     1       7.704   6.154  19.191  0.00  0.00    +0.000 OA
ATOM      2  C   UNL     1       7.928   7.002  18.331  0.00  0.00    +0.000 C 
ATOM      3  N   UNL     1       7.567   6.931  16.994  0.00  0.00    +0.000 N 
ATOM      4  H   UNL     1       7.988   7.597  16.361  0.00  0.00    +0.000 HD
ENDROOT
BRANCH   3   5
ATOM      5  C   UNL     1       6.797   5.901  16.401  0.00  0.00    +0.000 A 
ATOM      6  C   UNL     1       7.226   5.195  15.275  0.00  0.00    +0.000 A 
ATOM      7  C   UNL     1       6.396   4.266  14.659  0.00  0.00    +0.000 A 
ATOM      8  C   UNL     1       5.146   3.999  15.197  0.00  0.00    +0.000 A 
ATOM      9  C   UNL     1       4.761   4.566  16.421  0.00  0.00    +0.000 A 
ATOM     10  C   UNL     1       5.569   5.562  16.989  0.00  0.00    +0.000 A 
BRANCH   9  11
ATOM     11  C   UNL     1       3.579   4.064  17.131  0.00  0.00    +0.000 A 
ATOM     12  N   UNL     1       2.815   3.056  16.771  0.00  0.00    +0.000 NA
ATOM     13  N   UNL     1       1.805   2.921  17.695  0.00  0.00    +0.000 NA
ATOM     14  C   UNL     1       1.940   3.865  18.600  0.00  0.00    +0.000 A 
ATOM     15  N   UNL     1       3.027   4.640  18.262  0.00  0.00    +0.000 N 
ATOM     16  C   UNL     1       3.484   5.841  18.925  0.00  0.00    +0.000 C 
ATOM     17  C   UNL     1       2.388   6.745  19.460  0.00  0.00    +0.000 C 
ATOM     18  C   UNL     1       1.822   6.284  20.799  0.00  0.00    +0.000 C 
ATOM     19  C   UNL     1       1.686   4.769  20.963  0.00  0.00    +0.000 C 
ATOM     20  C   UNL     1       1.034   4.080  19.768  0.00  0.00    +0.000 C 
ENDBRANCH   9  11
ENDBRANCH   3   5
BRANCH   2  21
ATOM     21  C   UNL     1       8.701   8.248  18.694  0.00  0.00    +0.000 C 
BRANCH  21  22
ATOM     22  C   UNL     1       8.275   9.445  17.853  0.00  0.00    +0.000 C 
BRANCH  22  23
ATOM     23  C   UNL     1       8.981  10.692  18.279  0.00  0.00    +0.000 A 
ATOM     24  C   UNL     1      10.183  10.761  18.956  0.00  0.00    +0.000 A 
ATOM     25  N   UNL     1      10.503  12.081  19.130  0.00  0.00    +0.000 N 
ATOM     26  C   UNL     1       9.531  12.883  18.579  0.00  0.00    +0.000 A 
ATOM     27  C   UNL     1       9.443  14.278  18.514  0.00  0.00    +0.000 A 
ATOM     28  C   UNL     1       8.321  14.829  17.888  0.00  0.00    +0.000 A 
ATOM     29  C   UNL     1       7.330  14.014  17.347  0.00  0.00    +0.000 A 
ATOM     30  C   UNL     1       7.436  12.620  17.416  0.00  0.00    +0.000 A 
ATOM     31  C   UNL     1       8.557  12.039  18.044  0.00  0.00    +0.000 A 
ATOM     32  H   UNL     1      11.335  12.424  19.590  0.00  0.00    +0.000 HD
ENDBRANCH  22  23
ENDBRANCH  21  22
ENDBRANCH   2  21
TORSDOF 5
ENDMDL
