MODEL 1
REMARK VINA RESULT:      -8.2      0.000      0.000
REMARK  Name = 
REMARK  9 active torsions:
REMARK  status: ('A' for Active; 'I' for Inactive)
REMARK    1  A    between atoms: C_2  and  C_3
REMARK    2  A    between atoms: C_3  and  N_4
REMARK    3  A    between atoms: N_7  and  C_8
REMARK    4  A    between atoms: C_8  and  C_9
REMARK    5  A    between atoms: N_15  and  C_16
REMARK    6  A    between atoms: C_20  and  S_21
REMARK    7  A    between atoms: S_21  and  N_24
REMARK    8  A    between atoms: N_24  and  C_25
REMARK    9  A    between atoms: C_25  and  C_26
REMARK                            x       y       z     vdW  Elec       q    Type
REMARK                         _______ _______ _______ _____ _____    ______ ____
ROOT
ATOM      1  O   UNL     1       5.914   4.567  18.694  0.00  0.00    +0.000 OA
ATOM      2  C   UNL     1       5.592   5.518  17.982  0.00  0.00    +0.000 C 
ATOM      3  N   UNL     1       4.444   6.292  18.114  0.00  0.00    +0.000 N 
ATOM      4  H   UNL     1       4.402   7.128  17.532  0.00  0.00    +0.000 HD
ENDROOT
BRANCH   3   5
ATOM      5  C   UNL     1       3.379   6.090  19.031  0.00  0.00    +0.000 A 
ATOM      6  C   UNL     1       3.008   4.829  19.513  0.00  0.00    +0.000 A 
ATOM      7  C   UNL     1       1.953   4.676  20.422  0.00  0.00    +0.000 A 
ATOM      8  C   UNL     1       1.253   5.789  20.878  0.00  0.00    +0.000 A 
ATOM      9  C   UNL     1       1.610   7.054  20.411  0.00  0.00    +0.000 A 
ATOM     10  C   UNL     1       2.666   7.210  19.490  0.00  0.00    +0.000 A 
BRANCH   9  11
ATOM     11  S   UNL     1       0.846   8.488  21.145  0.00  0.00    +0.000 S 
ATOM     12  O   UNL     1      -0.492   8.116  21.548  0.00  0.00    +0.000 OA
ATOM     13  O   UNL     1       1.798   9.026  22.096  0.00  0.00    +0.000 OA
BRANCH  11  14
ATOM     14  N   UNL     1       0.751   9.592  19.870  0.00  0.00    +0.000 NA
ATOM     15  H   UNL     1       0.727   9.137  18.959  0.00  0.00    +0.000 HD
BRANCH  14  16
ATOM     16  C   UNL     1      -0.274  10.633  20.017  0.00  0.00    +0.000 C 
BRANCH  16  17
ATOM     17  C   UNL     1      -1.175  10.600  18.833  0.00  0.00    +0.000 A 
ATOM     18  C   UNL     1      -1.139   9.912  17.636  0.00  0.00    +0.000 A 
ATOM     19  C   UNL     1      -2.233  10.383  16.870  0.00  0.00    +0.000 A 
ATOM     20  C   UNL     1      -2.876  11.313  17.654  0.00  0.00    +0.000 A 
ATOM     21  O   UNL     1      -2.247  11.446  18.851  0.00  0.00    +0.000 OA
ENDBRANCH  16  17
ENDBRANCH  14  16
ENDBRANCH  11  14
ENDBRANCH   9  11
ENDBRANCH   3   5
BRANCH   2  22
ATOM     22  C   UNL     1       6.533   5.969  16.853  0.00  0.00    +0.000 C 
BRANCH  22  23
ATOM     23  N   UNL     1       6.861   7.378  16.929  0.00  0.00    +0.000 N 
ATOM     24  C   UNL     1       7.775   7.824  17.836  0.00  0.00    +0.000 C 
ATOM     25  O   UNL     1       8.317   7.073  18.637  0.00  0.00    +0.000 OA
ATOM     26  N   UNL     1       8.028   9.165  17.740  0.00  0.00    +0.000 N 
ATOM     27  H   UNL     1       6.525   7.998  16.202  0.00  0.00    +0.000 HD
ATOM     28  H   UNL     1       7.390   9.744  17.215  0.00  0.00    +0.000 HD
BRANCH  26  29
ATOM     29  C   UNL     1       8.850   9.819  18.736  0.00  0.00    +0.000 C 
BRANCH  29  30
ATOM     30  C   UNL     1       9.455  11.105  18.238  0.00  0.00    +0.000 A 
ATOM     31  C   UNL     1       8.669  12.256  18.073  0.00  0.00    +0.000 A 
ATOM     32  C   UNL     1       9.251  13.461  17.675  0.00  0.00    +0.000 A 
ATOM     33  C   UNL     1      10.622  13.532  17.439  0.00  0.00    +0.000 A 
ATOM     34  C   UNL     1      11.415  12.398  17.605  0.00  0.00    +0.000 A 
ATOM     35  C   UNL     1      10.834  11.192  18.004  0.00  0.00    +0.000 A 
ENDBRANCH  29  30
ENDBRANCH  26  29
ENDBRANCH  22  23
ENDBRANCH   2  22
TORSDOF 9
ENDMDL
MODEL 2
REMARK VINA RESULT:      -8.2      4.533      9.892
REMARK  Name = 
REMARK  9 active torsions:
REMARK  status: ('A' for Active; 'I' for Inactive)
REMARK    1  A    between atoms: C_2  and  C_3
REMARK    2  A    between atoms: C_3  and  N_4
REMARK    3  A    between atoms: N_7  and  C_8
REMARK    4  A    between atoms: C_8  and  C_9
REMARK    5  A    between atoms: N_15  and  C_16
REMARK    6  A    between atoms: C_20  and  S_21
REMARK    7  A    between atoms: S_21  and  N_24
REMARK    8  A    between atoms: N_24  and  C_25
REMARK    9  A    between atoms: C_25  and  C_26
REMARK                            x       y       z     vdW  Elec       q    Type
REMARK                         _______ _______ _______ _____ _____    ______ ____
ROOT
ATOM      1  O   UNL     1       1.665   8.151  20.095  0.00  0.00    +0.000 OA
ATOM      2  C   UNL     1       1.852   8.431  18.912  0.00  0.00    +0.000 C 
ATOM      3  N   UNL     1       2.581   7.680  17.995  0.00  0.00    +0.000 N 
ATOM      4  H   UNL     1       2.518   7.981  17.023  0.00  0.00    +0.000 HD
ENDROOT
BRANCH   3   5
ATOM      5  C   UNL     1       3.323   6.498  18.257  0.00  0.00    +0.000 A 
ATOM      6  C   UNL     1       2.769   5.360  18.856  0.00  0.00    +0.000 A 
ATOM      7  C   UNL     1       3.538   4.212  19.091  0.00  0.00    +0.000 A 
ATOM      8  C   UNL     1       4.879   4.178  18.721  0.00  0.00    +0.000 A 
ATOM      9  C   UNL     1       5.447   5.302  18.122  0.00  0.00    +0.000 A 
ATOM     10  C   UNL     1       4.678   6.460  17.891  0.00  0.00    +0.000 A 
BRANCH   9  11
ATOM     11  S   UNL     1       7.104   5.184  17.473  0.00  0.00    +0.000 S 
ATOM     12  O   UNL     1       7.409   6.435  16.815  0.00  0.00    +0.000 OA
ATOM     13  O   UNL     1       7.936   4.672  18.544  0.00  0.00    +0.000 OA
BRANCH  11  14
ATOM     14  N   UNL     1       6.996   3.962  16.312  0.00  0.00    +0.000 NA
ATOM     15  H   UNL     1       7.075   3.030  16.716  0.00  0.00    +0.000 HD
BRANCH  14  16
ATOM     16  C   UNL     1       5.871   4.084  15.375  0.00  0.00    +0.000 C 
BRANCH  16  17
ATOM     17  C   UNL     1       6.401   4.240  13.994  0.00  0.00    +0.000 A 
ATOM     18  C   UNL     1       6.201   3.541  12.820  0.00  0.00    +0.000 A 
ATOM     19  C   UNL     1       7.069   4.114  11.860  0.00  0.00    +0.000 A 
ATOM     20  C   UNL     1       7.730   5.136  12.502  0.00  0.00    +0.000 A 
ATOM     21  O   UNL     1       7.325   5.227  13.796  0.00  0.00    +0.000 OA
ENDBRANCH  16  17
ENDBRANCH  14  16
ENDBRANCH  11  14
ENDBRANCH   9  11
ENDBRANCH   3   5
BRANCH   2  22
ATOM     22  C   UNL     1       1.202   9.692  18.321  0.00  0.00    +0.000 C 
BRANCH  22  23
ATOM     23  N   UNL     1       0.030  10.115  19.060  0.00  0.00    +0.000 N 
ATOM     24  C   UNL     1       0.097  11.182  19.905  0.00  0.00    +0.000 C 
ATOM     25  O   UNL     1       1.141  11.791  20.103  0.00  0.00    +0.000 OA
ATOM     26  N   UNL     1      -1.104  11.501  20.476  0.00  0.00    +0.000 N 
ATOM     27  H   UNL     1      -0.869   9.712  18.824  0.00  0.00    +0.000 HD
ATOM     28  H   UNL     1      -1.854  10.828  20.438  0.00  0.00    +0.000 HD
BRANCH  26  29
ATOM     29  C   UNL     1      -1.165  12.504  21.519  0.00  0.00    +0.000 C 
BRANCH  29  30
ATOM     30  C   UNL     1      -2.555  12.687  22.068  0.00  0.00    +0.000 A 
ATOM     31  C   UNL     1      -3.652  12.866  21.212  0.00  0.00    +0.000 A 
ATOM     32  C   UNL     1      -4.946  12.968  21.727  0.00  0.00    +0.000 A 
ATOM     33  C   UNL     1      -5.160  12.892  23.102  0.00  0.00    +0.000 A 
ATOM     34  C   UNL     1      -4.080  12.708  23.963  0.00  0.00    +0.000 A 
ATOM     35  C   UNL     1      -2.786  12.605  23.449  0.00  0.00    +0.000 A 
ENDBRANCH  29  30
ENDBRANCH  26  29
ENDBRANCH  22  23
ENDBRANCH   2  22
TORSDOF 9
ENDMDL
MODEL 3
REMARK VINA RESULT:      -8.1      3.265      9.395
REMARK  Name = 
REMARK  9 active torsions:
REMARK  status: ('A' for Active; 'I' for Inactive)
REMARK    1  A    between atoms: C_2  and  C_3
REMARK    2  A    between atoms: C_3  and  N_4
REMARK    3  A    between atoms: N_7  and  C_8
REMARK    4  A    between atoms: C_8  and  C_9
REMARK    5  A    between atoms: N_15  and  C_16
REMARK    6  A    between atoms: C_20  and  S_21
REMARK    7  A    between atoms: S_21  and  N_24
REMARK    8  A    between atoms: N_24  and  C_25
REMARK    9  A    between atoms: C_25  and  C_26
REMARK                            x       y       z     vdW  Elec       q    Type
REMARK                         _______ _______ _______ _____ _____    ______ ____
ROOT
ATOM      1  O   UNL     1       1.816   7.747  17.366  0.00  0.00    +0.000 OA
ATOM      2  C   UNL     1       2.049   8.295  18.443  0.00  0.00    +0.000 C 
ATOM      3  N   UNL     1       2.309   7.657  19.651  0.00  0.00    +0.000 N 
ATOM      4  H   UNL     1       2.622   8.257  20.413  0.00  0.00    +0.000 HD
ENDROOT
BRANCH   3   5
ATOM      5  C   UNL     1       2.271   6.260  19.904  0.00  0.00    +0.000 A 
ATOM      6  C   UNL     1       1.192   5.620  20.527  0.00  0.00    +0.000 A 
ATOM      7  C   UNL     1       1.196   4.237  20.752  0.00  0.00    +0.000 A 
ATOM      8  C   UNL     1       2.278   3.462  20.346  0.00  0.00    +0.000 A 
ATOM      9  C   UNL     1       3.361   4.082  19.722  0.00  0.00    +0.000 A 
ATOM     10  C   UNL     1       3.364   5.474  19.502  0.00  0.00    +0.000 A 
BRANCH   9  11
ATOM     11  S   UNL     1       4.651   3.064  19.029  0.00  0.00    +0.000 S 
ATOM     12  O   UNL     1       4.894   1.975  19.949  0.00  0.00    +0.000 OA
ATOM     13  O   UNL     1       4.290   2.818  17.648  0.00  0.00    +0.000 OA
BRANCH  11  14
ATOM     14  N   UNL     1       5.999   4.081  19.008  0.00  0.00    +0.000 NA
ATOM     15  H   UNL     1       6.786   3.700  19.532  0.00  0.00    +0.000 HD
BRANCH  14  16
ATOM     16  C   UNL     1       6.385   4.584  17.684  0.00  0.00    +0.000 C 
BRANCH  16  17
ATOM     17  C   UNL     1       7.097   5.880  17.842  0.00  0.00    +0.000 A 
ATOM     18  C   UNL     1       7.960   6.375  18.800  0.00  0.00    +0.000 A 
ATOM     19  C   UNL     1       8.223   7.720  18.446  0.00  0.00    +0.000 A 
ATOM     20  C   UNL     1       7.519   7.956  17.287  0.00  0.00    +0.000 A 
ATOM     21  O   UNL     1       6.840   6.842  16.907  0.00  0.00    +0.000 OA
ENDBRANCH  16  17
ENDBRANCH  14  16
ENDBRANCH  11  14
ENDBRANCH   9  11
ENDBRANCH   3   5
BRANCH   2  22
ATOM     22  C   UNL     1       2.121   9.829  18.511  0.00  0.00    +0.000 C 
BRANCH  22  23
ATOM     23  N   UNL     1       0.871  10.464  18.147  0.00  0.00    +0.000 N 
ATOM     24  C   UNL     1       0.035  10.942  19.112  0.00  0.00    +0.000 C 
ATOM     25  O   UNL     1       0.282  10.819  20.306  0.00  0.00    +0.000 OA
ATOM     26  N   UNL     1      -1.070  11.574  18.612  0.00  0.00    +0.000 N 
ATOM     27  H   UNL     1       0.701  10.689  17.174  0.00  0.00    +0.000 HD
ATOM     28  H   UNL     1      -1.310  11.439  17.641  0.00  0.00    +0.000 HD
BRANCH  26  29
ATOM     29  C   UNL     1      -2.131  11.990  19.505  0.00  0.00    +0.000 C 
BRANCH  29  30
ATOM     30  C   UNL     1      -3.491  11.922  18.863  0.00  0.00    +0.000 A 
ATOM     31  C   UNL     1      -4.627  12.409  19.526  0.00  0.00    +0.000 A 
ATOM     32  C   UNL     1      -5.874  12.404  18.896  0.00  0.00    +0.000 A 
ATOM     33  C   UNL     1      -6.000  11.914  17.597  0.00  0.00    +0.000 A 
ATOM     34  C   UNL     1      -4.878  11.432  16.925  0.00  0.00    +0.000 A 
ATOM     35  C   UNL     1      -3.631  11.439  17.554  0.00  0.00    +0.000 A 
ENDBRANCH  29  30
ENDBRANCH  26  29
ENDBRANCH  22  23
ENDBRANCH   2  22
TORSDOF 9
ENDMDL
MODEL 4
REMARK VINA RESULT:      -8.1      3.186      5.007
REMARK  Name = 
REMARK  9 active torsions:
REMARK  status: ('A' for Active; 'I' for Inactive)
REMARK    1  A    between atoms: C_2  and  C_3
REMARK    2  A    between atoms: C_3  and  N_4
REMARK    3  A    between atoms: N_7  and  C_8
REMARK    4  A    between atoms: C_8  and  C_9
REMARK    5  A    between atoms: N_15  and  C_16
REMARK    6  A    between atoms: C_20  and  S_21
REMARK    7  A    between atoms: S_21  and  N_24
REMARK    8  A    between atoms: N_24  and  C_25
REMARK    9  A    between atoms: C_25  and  C_26
REMARK                            x       y       z     vdW  Elec       q    Type
REMARK                         _______ _______ _______ _____ _____    ______ ____
ROOT
ATOM      1  O   UNL     1       8.089   6.824  18.719  0.00  0.00    +0.000 OA
ATOM      2  C   UNL     1       7.739   7.607  17.836  0.00  0.00    +0.000 C 
ATOM      3  N   UNL     1       6.842   7.338  16.808  0.00  0.00    +0.000 N 
ATOM      4  H   UNL     1       6.554   8.140  16.248  0.00  0.00    +0.000 HD
ENDROOT
BRANCH   3   5
ATOM      5  C   UNL     1       6.223   6.093  16.518  0.00  0.00    +0.000 A 
ATOM      6  C   UNL     1       6.585   5.289  15.431  0.00  0.00    +0.000 A 
ATOM      7  C   UNL     1       5.950   4.064  15.186  0.00  0.00    +0.000 A 
ATOM      8  C   UNL     1       4.945   3.613  16.034  0.00  0.00    +0.000 A 
ATOM      9  C   UNL     1       4.572   4.400  17.124  0.00  0.00    +0.000 A 
ATOM     10  C   UNL     1       5.203   5.636  17.369  0.00  0.00    +0.000 A 
BRANCH   9  11
ATOM     11  S   UNL     1       3.426   3.729  18.316  0.00  0.00    +0.000 S 
ATOM     12  O   UNL     1       2.694   2.662  17.670  0.00  0.00    +0.000 OA
ATOM     13  O   UNL     1       4.179   3.499  19.533  0.00  0.00    +0.000 OA
BRANCH  11  14
ATOM     14  N   UNL     1       2.372   5.012  18.628  0.00  0.00    +0.000 NA
ATOM     15  H   UNL     1       1.414   4.702  18.783  0.00  0.00    +0.000 HD
BRANCH  14  16
ATOM     16  C   UNL     1       2.834   5.971  19.639  0.00  0.00    +0.000 C 
BRANCH  16  17
ATOM     17  C   UNL     1       2.323   7.325  19.297  0.00  0.00    +0.000 A 
ATOM     18  C   UNL     1       1.559   8.249  19.982  0.00  0.00    +0.000 A 
ATOM     19  C   UNL     1       1.317   9.315  19.083  0.00  0.00    +0.000 A 
ATOM     20  C   UNL     1       1.963   8.984  17.915  0.00  0.00    +0.000 A 
ATOM     21  O   UNL     1       2.586   7.783  18.037  0.00  0.00    +0.000 OA
ENDBRANCH  16  17
ENDBRANCH  14  16
ENDBRANCH  11  14
ENDBRANCH   9  11
ENDBRANCH   3   5
BRANCH   2  22
ATOM     22  C   UNL     1       8.273   9.048  17.849  0.00  0.00    +0.000 C 
BRANCH  22  23
ATOM     23  N   UNL     1       8.884   9.407  19.112  0.00  0.00    +0.000 N 
ATOM     24  C   UNL     1       9.377  10.663  19.307  0.00  0.00    +0.000 C 
ATOM     25  O   UNL     1       9.362  11.512  18.424  0.00  0.00    +0.000 OA
ATOM     26  N   UNL     1       9.859  10.869  20.570  0.00  0.00    +0.000 N 
ATOM     27  H   UNL     1       8.798   8.770  19.896  0.00  0.00    +0.000 HD
ATOM     28  H   UNL     1      10.038  10.069  21.159  0.00  0.00    +0.000 HD
BRANCH  26  29
ATOM     29  C   UNL     1      10.563  12.094  20.884  0.00  0.00    +0.000 C 
BRANCH  29  30
ATOM     30  C   UNL     1       9.757  13.023  21.752  0.00  0.00    +0.000 A 
ATOM     31  C   UNL     1       8.803  12.524  22.651  0.00  0.00    +0.000 A 
ATOM     32  C   UNL     1       8.107  13.388  23.500  0.00  0.00    +0.000 A 
ATOM     33  C   UNL     1       8.356  14.759  23.461  0.00  0.00    +0.000 A 
ATOM     34  C   UNL     1       9.305  15.267  22.576  0.00  0.00    +0.000 A 
ATOM     35  C   UNL     1      10.003  14.403  21.728  0.00  0.00    +0.000 A 
ENDBRANCH  29  30
ENDBRANCH  26  29
ENDBRANCH  22  23
ENDBRANCH   2  22
TORSDOF 9
ENDMDL
MODEL 5
REMARK VINA RESULT:      -8.0      4.656      9.411
REMARK  Name = 
REMARK  9 active torsions:
REMARK  status: ('A' for Active; 'I' for Inactive)
REMARK    1  A    between atoms: C_2  and  C_3
REMARK    2  A    between atoms: C_3  and  N_4
REMARK    3  A    between atoms: N_7  and  C_8
REMARK    4  A    between atoms: C_8  and  C_9
REMARK    5  A    between atoms: N_15  and  C_16
REMARK    6  A    between atoms: C_20  and  S_21
REMARK    7  A    between atoms: S_21  and  N_24
REMARK    8  A    between atoms: N_24  and  C_25
REMARK    9  A    between atoms: C_25  and  C_26
REMARK                            x       y       z     vdW  Elec       q    Type
REMARK                         _______ _______ _______ _____ _____    ______ ____
ROOT
ATOM      1  O   UNL     1       7.526   8.935  17.193  0.00  0.00    +0.000 OA
ATOM      2  C   UNL     1       8.083   8.327  18.107  0.00  0.00    +0.000 C 
ATOM      3  N   UNL     1       8.916   8.880  19.073  0.00  0.00    +0.000 N 
ATOM      4  H   UNL     1       9.179   8.263  19.841  0.00  0.00    +0.000 HD
ENDROOT
BRANCH   3   5
ATOM      5  C   UNL     1       9.361  10.227  19.148  0.00  0.00    +0.000 A 
ATOM      6  C   UNL     1      10.056  10.866  18.114  0.00  0.00    +0.000 A 
ATOM      7  C   UNL     1      10.472  12.199  18.229  0.00  0.00    +0.000 A 
ATOM      8  C   UNL     1      10.187  12.926  19.380  0.00  0.00    +0.000 A 
ATOM      9  C   UNL     1       9.494  12.307  20.420  0.00  0.00    +0.000 A 
ATOM     10  C   UNL     1       9.081  10.963  20.311  0.00  0.00    +0.000 A 
BRANCH   9  11
ATOM     11  S   UNL     1       8.961  13.295  21.806  0.00  0.00    +0.000 S 
ATOM     12  O   UNL     1       9.993  14.272  22.072  0.00  0.00    +0.000 OA
ATOM     13  O   UNL     1       7.596  13.697  21.530  0.00  0.00    +0.000 OA
BRANCH  11  14
ATOM     14  N   UNL     1       8.897  12.195  23.086  0.00  0.00    +0.000 NA
ATOM     15  H   UNL     1       9.357  12.545  23.926  0.00  0.00    +0.000 HD
BRANCH  14  16
ATOM     16  C   UNL     1       7.573  11.622  23.355  0.00  0.00    +0.000 C 
BRANCH  16  17
ATOM     17  C   UNL     1       7.057  12.169  24.638  0.00  0.00    +0.000 A 
ATOM     18  C   UNL     1       7.551  12.182  25.928  0.00  0.00    +0.000 A 
ATOM     19  C   UNL     1       6.546  12.766  26.737  0.00  0.00    +0.000 A 
ATOM     20  C   UNL     1       5.512  13.089  25.888  0.00  0.00    +0.000 A 
ATOM     21  O   UNL     1       5.815  12.739  24.611  0.00  0.00    +0.000 OA
ENDBRANCH  16  17
ENDBRANCH  14  16
ENDBRANCH  11  14
ENDBRANCH   9  11
ENDBRANCH   3   5
BRANCH   2  22
ATOM     22  C   UNL     1       7.831   6.820  18.276  0.00  0.00    +0.000 C 
BRANCH  22  23
ATOM     23  N   UNL     1       6.510   6.421  17.836  0.00  0.00    +0.000 N 
ATOM     24  C   UNL     1       6.016   5.195  18.166  0.00  0.00    +0.000 C 
ATOM     25  O   UNL     1       6.671   4.378  18.801  0.00  0.00    +0.000 OA
ATOM     26  N   UNL     1       4.733   4.991  17.737  0.00  0.00    +0.000 N 
ATOM     27  H   UNL     1       5.902   7.117  17.420  0.00  0.00    +0.000 HD
ATOM     28  H   UNL     1       4.349   5.612  17.040  0.00  0.00    +0.000 HD
BRANCH  26  29
ATOM     29  C   UNL     1       4.126   3.683  17.865  0.00  0.00    +0.000 C 
BRANCH  29  30
ATOM     30  C   UNL     1       3.189   3.588  19.039  0.00  0.00    +0.000 A 
ATOM     31  C   UNL     1       1.916   4.178  18.996  0.00  0.00    +0.000 A 
ATOM     32  C   UNL     1       1.028   4.029  20.063  0.00  0.00    +0.000 A 
ATOM     33  C   UNL     1       1.399   3.288  21.184  0.00  0.00    +0.000 A 
ATOM     34  C   UNL     1       2.657   2.692  21.237  0.00  0.00    +0.000 A 
ATOM     35  C   UNL     1       3.546   2.840  20.170  0.00  0.00    +0.000 A 
ENDBRANCH  29  30
ENDBRANCH  26  29
ENDBRANCH  22  23
ENDBRANCH   2  22
TORSDOF 9
ENDMDL
MODEL 6
REMARK VINA RESULT:      -7.9      5.858      8.688
REMARK  Name = 
REMARK  9 active torsions:
REMARK  status: ('A' for Active; 'I' for Inactive)
REMARK    1  A    between atoms: C_2  and  C_3
REMARK    2  A    between atoms: C_3  and  N_4
REMARK    3  A    between atoms: N_7  and  C_8
REMARK    4  A    between atoms: C_8  and  C_9
REMARK    5  A    between atoms: N_15  and  C_16
REMARK    6  A    between atoms: C_20  and  S_21
REMARK    7  A    between atoms: S_21  and  N_24
REMARK    8  A    between atoms: N_24  and  C_25
REMARK    9  A    between atoms: C_25  and  C_26
REMARK                            x       y       z     vdW  Elec       q    Type
REMARK                         _______ _______ _______ _____ _____    ______ ____
ROOT
ATOM      1  O   UNL     1       0.592  11.625  18.509  0.00  0.00    +0.000 OA
ATOM      2  C   UNL     1       0.018  10.954  19.366  0.00  0.00    +0.000 C 
ATOM      3  N   UNL     1      -1.263  10.420  19.270  0.00  0.00    +0.000 N 
ATOM      4  H   UNL     1      -1.531   9.771  20.009  0.00  0.00    +0.000 HD
ENDROOT
BRANCH   3   5
ATOM      5  C   UNL     1      -2.191  10.613  18.213  0.00  0.00    +0.000 A 
ATOM      6  C   UNL     1      -2.006  10.097  16.924  0.00  0.00    +0.000 A 
ATOM      7  C   UNL     1      -2.952  10.307  15.911  0.00  0.00    +0.000 A 
ATOM      8  C   UNL     1      -4.111  11.031  16.173  0.00  0.00    +0.000 A 
ATOM      9  C   UNL     1      -4.313  11.551  17.451  0.00  0.00    +0.000 A 
ATOM     10  C   UNL     1      -3.360  11.348  18.470  0.00  0.00    +0.000 A 
BRANCH   9  11
ATOM     11  S   UNL     1      -5.883  12.305  17.834  0.00  0.00    +0.000 S 
ATOM     12  O   UNL     1      -6.347  12.983  16.644  0.00  0.00    +0.000 OA
ATOM     13  O   UNL     1      -6.685  11.288  18.483  0.00  0.00    +0.000 OA
BRANCH  11  14
ATOM     14  N   UNL     1      -5.503  13.454  19.012  0.00  0.00    +0.000 NA
ATOM     15  H   UNL     1      -5.581  14.409  18.667  0.00  0.00    +0.000 HD
BRANCH  14  16
ATOM     16  C   UNL     1      -6.159  13.261  20.311  0.00  0.00    +0.000 C 
BRANCH  16  17
ATOM     17  C   UNL     1      -5.156  13.434  21.395  0.00  0.00    +0.000 A 
ATOM     18  C   UNL     1      -4.384  14.503  21.808  0.00  0.00    +0.000 A 
ATOM     19  C   UNL     1      -3.542  14.017  22.837  0.00  0.00    +0.000 A 
ATOM     20  C   UNL     1      -3.865  12.689  23.000  0.00  0.00    +0.000 A 
ATOM     21  O   UNL     1      -4.850  12.328  22.136  0.00  0.00    +0.000 OA
ENDBRANCH  16  17
ENDBRANCH  14  16
ENDBRANCH  11  14
ENDBRANCH   9  11
ENDBRANCH   3   5
BRANCH   2  22
ATOM     22  C   UNL     1       0.755  10.599  20.667  0.00  0.00    +0.000 C 
BRANCH  22  23
ATOM     23  N   UNL     1       1.568   9.407  20.541  0.00  0.00    +0.000 N 
ATOM     24  C   UNL     1       1.053   8.186  20.861  0.00  0.00    +0.000 C 
ATOM     25  O   UNL     1      -0.083   8.053  21.299  0.00  0.00    +0.000 OA
ATOM     26  N   UNL     1       1.916   7.152  20.625  0.00  0.00    +0.000 N 
ATOM     27  H   UNL     1       2.461   9.471  20.067  0.00  0.00    +0.000 HD
ATOM     28  H   UNL     1       2.893   7.358  20.479  0.00  0.00    +0.000 HD
BRANCH  26  29
ATOM     29  C   UNL     1       1.580   5.814  21.065  0.00  0.00    +0.000 C 
BRANCH  29  30
ATOM     30  C   UNL     1       1.700   4.793  19.965  0.00  0.00    +0.000 A 
ATOM     31  C   UNL     1       1.094   3.533  20.081  0.00  0.00    +0.000 A 
ATOM     32  C   UNL     1       1.154   2.617  19.029  0.00  0.00    +0.000 A 
ATOM     33  C   UNL     1       1.817   2.949  17.849  0.00  0.00    +0.000 A 
ATOM     34  C   UNL     1       2.418   4.199  17.718  0.00  0.00    +0.000 A 
ATOM     35  C   UNL     1       2.357   5.116  18.770  0.00  0.00    +0.000 A 
ENDBRANCH  29  30
ENDBRANCH  26  29
ENDBRANCH  22  23
ENDBRANCH   2  22
TORSDOF 9
ENDMDL
MODEL 7
REMARK VINA RESULT:      -7.9      4.769      9.659
REMARK  Name = 
REMARK  9 active torsions:
REMARK  status: ('A' for Active; 'I' for Inactive)
REMARK    1  A    between atoms: C_2  and  C_3
REMARK    2  A    between atoms: C_3  and  N_4
REMARK    3  A    between atoms: N_7  and  C_8
REMARK    4  A    between atoms: C_8  and  C_9
REMARK    5  A    between atoms: N_15  and  C_16
REMARK    6  A    between atoms: C_20  and  S_21
REMARK    7  A    between atoms: S_21  and  N_24
REMARK    8  A    between atoms: N_24  and  C_25
REMARK    9  A    between atoms: C_25  and  C_26
REMARK                            x       y       z     vdW  Elec       q    Type
REMARK                         _______ _______ _______ _____ _____    ______ ____
ROOT
ATOM      1  O   UNL     1       7.546   9.302  17.388  0.00  0.00    +0.000 OA
ATOM      2  C   UNL     1       8.202   8.633  18.185  0.00  0.00    +0.000 C 
ATOM      3  N   UNL     1       9.111   9.124  19.117  0.00  0.00    +0.000 N 
ATOM      4  H   UNL     1       9.460   8.449  19.796  0.00  0.00    +0.000 HD
ENDROOT
BRANCH   3   5
ATOM      5  C   UNL     1       9.527  10.472  19.276  0.00  0.00    +0.000 A 
ATOM      6  C   UNL     1      10.283  11.161  18.320  0.00  0.00    +0.000 A 
ATOM      7  C   UNL     1      10.668  12.494  18.515  0.00  0.00    +0.000 A 
ATOM      8  C   UNL     1      10.291  13.170  19.671  0.00  0.00    +0.000 A 
ATOM      9  C   UNL     1       9.536  12.501  20.635  0.00  0.00    +0.000 A 
ATOM     10  C   UNL     1       9.154  11.158  20.444  0.00  0.00    +0.000 A 
BRANCH   9  11
ATOM     11  S   UNL     1       8.891  13.426  22.016  0.00  0.00    +0.000 S 
ATOM     12  O   UNL     1       9.804  14.516  22.280  0.00  0.00    +0.000 OA
ATOM     13  O   UNL     1       7.489  13.666  21.738  0.00  0.00    +0.000 OA
BRANCH  11  14
ATOM     14  N   UNL     1       8.954  12.330  23.300  0.00  0.00    +0.000 NA
ATOM     15  H   UNL     1       9.454  12.701  24.107  0.00  0.00    +0.000 HD
BRANCH  14  16
ATOM     16  C   UNL     1       7.673  11.709  23.657  0.00  0.00    +0.000 C 
BRANCH  16  17
ATOM     17  C   UNL     1       7.389  11.969  25.094  0.00  0.00    +0.000 A 
ATOM     18  C   UNL     1       7.953  12.811  26.033  0.00  0.00    +0.000 A 
ATOM     19  C   UNL     1       7.309  12.530  27.262  0.00  0.00    +0.000 A 
ATOM     20  C   UNL     1       6.382  11.550  26.993  0.00  0.00    +0.000 A 
ATOM     21  O   UNL     1       6.416  11.209  25.678  0.00  0.00    +0.000 OA
ENDBRANCH  16  17
ENDBRANCH  14  16
ENDBRANCH  11  14
ENDBRANCH   9  11
ENDBRANCH   3   5
BRANCH   2  22
ATOM     22  C   UNL     1       8.005   7.109  18.236  0.00  0.00    +0.000 C 
BRANCH  22  23
ATOM     23  N   UNL     1       6.799   6.679  17.559  0.00  0.00    +0.000 N 
ATOM     24  C   UNL     1       6.463   5.359  17.525  0.00  0.00    +0.000 C 
ATOM     25  O   UNL     1       7.174   4.493  18.020  0.00  0.00    +0.000 OA
ATOM     26  N   UNL     1       5.265   5.117  16.910  0.00  0.00    +0.000 N 
ATOM     27  H   UNL     1       6.134   7.379  17.252  0.00  0.00    +0.000 HD
ATOM     28  H   UNL     1       4.856   5.843  16.341  0.00  0.00    +0.000 HD
BRANCH  26  29
ATOM     29  C   UNL     1       4.848   3.756  16.648  0.00  0.00    +0.000 C 
BRANCH  29  30
ATOM     30  C   UNL     1       3.572   3.392  17.360  0.00  0.00    +0.000 A 
ATOM     31  C   UNL     1       3.375   2.101  17.874  0.00  0.00    +0.000 A 
ATOM     32  C   UNL     1       2.218   1.791  18.591  0.00  0.00    +0.000 A 
ATOM     33  C   UNL     1       1.244   2.766  18.804  0.00  0.00    +0.000 A 
ATOM     34  C   UNL     1       1.430   4.053  18.304  0.00  0.00    +0.000 A 
ATOM     35  C   UNL     1       2.588   4.365  17.588  0.00  0.00    +0.000 A 
ENDBRANCH  29  30
ENDBRANCH  26  29
ENDBRANCH  22  23
ENDBRANCH   2  22
TORSDOF 9
ENDMDL
MODEL 8
REMARK VINA RESULT:      -7.8      3.546      9.729
REMARK  Name = 
REMARK  9 active torsions:
REMARK  status: ('A' for Active; 'I' for Inactive)
REMARK    1  A    between atoms: C_2  and  C_3
REMARK    2  A    between atoms: C_3  and  N_4
REMARK    3  A    between atoms: N_7  and  C_8
REMARK    4  A    between atoms: C_8  and  C_9
REMARK    5  A    between atoms: N_15  and  C_16
REMARK    6  A    between atoms: C_20  and  S_21
REMARK    7  A    between atoms: S_21  and  N_24
REMARK    8  A    between atoms: N_24  and  C_25
REMARK    9  A    between atoms: C_25  and  C_26
REMARK                            x       y       z     vdW  Elec       q    Type
REMARK                         _______ _______ _______ _____ _____    ______ ____
ROOT
ATOM      1  O   UNL     1       2.612   8.417  17.173  0.00  0.00    +0.000 OA
ATOM      2  C   UNL     1       2.098   8.870  18.195  0.00  0.00    +0.000 C 
ATOM      3  N   UNL     1       1.873   8.177  19.380  0.00  0.00    +0.000 N 
ATOM      4  H   UNL     1       1.570   8.739  20.174  0.00  0.00    +0.000 HD
ENDROOT
BRANCH   3   5
ATOM      5  C   UNL     1       2.108   6.797  19.618  0.00  0.00    +0.000 A 
ATOM      6  C   UNL     1       1.769   6.155  20.816  0.00  0.00    +0.000 A 
ATOM      7  C   UNL     1       2.014   4.789  21.007  0.00  0.00    +0.000 A 
ATOM      8  C   UNL     1       2.595   4.033  19.994  0.00  0.00    +0.000 A 
ATOM      9  C   UNL     1       2.938   4.654  18.793  0.00  0.00    +0.000 A 
ATOM     10  C   UNL     1       2.699   6.030  18.602  0.00  0.00    +0.000 A 
BRANCH   9  11
ATOM     11  S   UNL     1       3.497   3.645  17.433  0.00  0.00    +0.000 S 
ATOM     12  O   UNL     1       4.332   2.597  17.977  0.00  0.00    +0.000 OA
ATOM     13  O   UNL     1       2.328   3.340  16.633  0.00  0.00    +0.000 OA
BRANCH  11  14
ATOM     14  N   UNL     1       4.454   4.695  16.519  0.00  0.00    +0.000 NA
ATOM     15  H   UNL     1       4.321   5.672  16.778  0.00  0.00    +0.000 HD
BRANCH  14  16
ATOM     16  C   UNL     1       5.869   4.320  16.411  0.00  0.00    +0.000 C 
BRANCH  16  17
ATOM     17  C   UNL     1       6.694   5.310  17.154  0.00  0.00    +0.000 A 
ATOM     18  C   UNL     1       7.312   5.289  18.389  0.00  0.00    +0.000 A 
ATOM     19  C   UNL     1       7.867   6.577  18.581  0.00  0.00    +0.000 A 
ATOM     20  C   UNL     1       7.569   7.296  17.446  0.00  0.00    +0.000 A 
ATOM     21  O   UNL     1       6.865   6.533  16.569  0.00  0.00    +0.000 OA
ENDBRANCH  16  17
ENDBRANCH  14  16
ENDBRANCH  11  14
ENDBRANCH   9  11
ENDBRANCH   3   5
BRANCH   2  22
ATOM     22  C   UNL     1       1.689  10.352  18.242  0.00  0.00    +0.000 C 
BRANCH  22  23
ATOM     23  N   UNL     1       0.261  10.543  18.099  0.00  0.00    +0.000 N 
ATOM     24  C   UNL     1      -0.408  11.385  18.935  0.00  0.00    +0.000 C 
ATOM     25  O   UNL     1       0.152  11.973  19.852  0.00  0.00    +0.000 OA
ATOM     26  N   UNL     1      -1.736  11.513  18.631  0.00  0.00    +0.000 N 
ATOM     27  H   UNL     1      -0.202  10.170  17.278  0.00  0.00    +0.000 HD
ATOM     28  H   UNL     1      -2.161  10.837  18.014  0.00  0.00    +0.000 HD
BRANCH  26  29
ATOM     29  C   UNL     1      -2.615  12.241  19.522  0.00  0.00    +0.000 C 
BRANCH  29  30
ATOM     30  C   UNL     1      -4.068  12.085  19.161  0.00  0.00    +0.000 A 
ATOM     31  C   UNL     1      -4.450  11.559  17.917  0.00  0.00    +0.000 A 
ATOM     32  C   UNL     1      -5.799  11.356  17.616  0.00  0.00    +0.000 A 
ATOM     33  C   UNL     1      -6.780  11.673  18.554  0.00  0.00    +0.000 A 
ATOM     34  C   UNL     1      -6.414  12.190  19.795  0.00  0.00    +0.000 A 
ATOM     35  C   UNL     1      -5.066  12.393  20.097  0.00  0.00    +0.000 A 
ENDBRANCH  29  30
ENDBRANCH  26  29
ENDBRANCH  22  23
ENDBRANCH   2  22
TORSDOF 9
ENDMDL
MODEL 9
REMARK VINA RESULT:      -7.8      3.651      9.025
REMARK  Name = 
REMARK  9 active torsions:
REMARK  status: ('A' for Active; 'I' for Inactive)
REMARK    1  A    between atoms: C_2  and  C_3
REMARK    2  A    between atoms: C_3  and  N_4
REMARK    3  A    between atoms: N_7  and  C_8
REMARK    4  A    between atoms: C_8  and  C_9
REMARK    5  A    between atoms: N_15  and  C_16
REMARK    6  A    between atoms: C_20  and  S_21
REMARK    7  A    between atoms: S_21  and  N_24
REMARK    8  A    between atoms: N_24  and  C_25
REMARK    9  A    between atoms: C_25  and  C_26
REMARK                            x       y       z     vdW  Elec       q    Type
REMARK                         _______ _______ _______ _____ _____    ______ ____
ROOT
ATOM      1  O   UNL     1       2.849   7.331  19.204  0.00  0.00    +0.000 OA
ATOM      2  C   UNL     1       2.026   7.333  20.119  0.00  0.00    +0.000 C 
ATOM      3  N   UNL     1       1.675   6.245  20.912  0.00  0.00    +0.000 N 
ATOM      4  H   UNL     1       1.084   6.453  21.716  0.00  0.00    +0.000 HD
ENDROOT
BRANCH   3   5
ATOM      5  C   UNL     1       2.123   4.905  20.769  0.00  0.00    +0.000 A 
ATOM      6  C   UNL     1       2.106   3.973  21.815  0.00  0.00    +0.000 A 
ATOM      7  C   UNL     1       2.554   2.659  21.628  0.00  0.00    +0.000 A 
ATOM      8  C   UNL     1       3.019   2.246  20.383  0.00  0.00    +0.000 A 
ATOM      9  C   UNL     1       3.042   3.160  19.330  0.00  0.00    +0.000 A 
ATOM     10  C   UNL     1       2.599   4.485  19.517  0.00  0.00    +0.000 A 
BRANCH   9  11
ATOM     11  S   UNL     1       3.449   2.576  17.695  0.00  0.00    +0.000 S 
ATOM     12  O   UNL     1       3.629   1.143  17.772  0.00  0.00    +0.000 OA
ATOM     13  O   UNL     1       2.486   3.168  16.789  0.00  0.00    +0.000 OA
BRANCH  11  14
ATOM     14  N   UNL     1       4.939   3.302  17.367  0.00  0.00    +0.000 NA
ATOM     15  H   UNL     1       5.668   2.622  17.155  0.00  0.00    +0.000 HD
BRANCH  14  16
ATOM     16  C   UNL     1       4.897   4.413  16.408  0.00  0.00    +0.000 C 
BRANCH  16  17
ATOM     17  C   UNL     1       5.758   5.519  16.905  0.00  0.00    +0.000 A 
ATOM     18  C   UNL     1       5.660   6.895  16.843  0.00  0.00    +0.000 A 
ATOM     19  C   UNL     1       6.849   7.409  17.413  0.00  0.00    +0.000 A 
ATOM     20  C   UNL     1       7.589   6.316  17.804  0.00  0.00    +0.000 A 
ATOM     21  O   UNL     1       6.931   5.164  17.508  0.00  0.00    +0.000 OA
ENDBRANCH  16  17
ENDBRANCH  14  16
ENDBRANCH  11  14
ENDBRANCH   9  11
ENDBRANCH   3   5
BRANCH   2  22
ATOM     22  C   UNL     1       1.325   8.646  20.502  0.00  0.00    +0.000 C 
BRANCH  22  23
ATOM     23  N   UNL     1       0.975   9.449  19.348  0.00  0.00    +0.000 N 
ATOM     24  C   UNL     1       0.183  10.549  19.490  0.00  0.00    +0.000 C 
ATOM     25  O   UNL     1      -0.292  10.875  20.571  0.00  0.00    +0.000 OA
ATOM     26  N   UNL     1      -0.002  11.241  18.325  0.00  0.00    +0.000 N 
ATOM     27  H   UNL     1       1.451   9.278  18.470  0.00  0.00    +0.000 HD
ATOM     28  H   UNL     1       0.232  10.794  17.451  0.00  0.00    +0.000 HD
BRANCH  26  29
ATOM     29  C   UNL     1      -0.948  12.336  18.275  0.00  0.00    +0.000 C 
BRANCH  29  30
ATOM     30  C   UNL     1      -2.342  11.885  17.929  0.00  0.00    +0.000 A 
ATOM     31  C   UNL     1      -2.610  11.238  16.713  0.00  0.00    +0.000 A 
ATOM     32  C   UNL     1      -3.892  10.763  16.428  0.00  0.00    +0.000 A 
ATOM     33  C   UNL     1      -4.921  10.929  17.354  0.00  0.00    +0.000 A 
ATOM     34  C   UNL     1      -4.667  11.565  18.568  0.00  0.00    +0.000 A 
ATOM     35  C   UNL     1      -3.384  12.038  18.854  0.00  0.00    +0.000 A 
ENDBRANCH  29  30
ENDBRANCH  26  29
ENDBRANCH  22  23
ENDBRANCH   2  22
TORSDOF 9
ENDMDL
