MODEL 1
REMARK VINA RESULT:      -9.0      0.000      0.000
REMARK  Name = 
REMARK  4 active torsions:
REMARK  status: ('A' for Active; 'I' for Inactive)
REMARK    1  A    between atoms: C_2  and  C_17
REMARK    2  A    between atoms: N_3  and  C_4
REMARK    3  A    between atoms: C_21  and  S_22
REMARK    4  A    between atoms: S_22  and  N_25
REMARK                            x       y       z     vdW  Elec       q    Type
REMARK                         _______ _______ _______ _____ _____    ______ ____
ROOT
ATOM      1  O   UNL     1       0.653   4.888  20.198  0.00  0.00    +0.000 OA
ATOM      2  C   UNL     1       1.849   5.132  20.264  0.00  0.00    +0.000 C 
ATOM      3  N   UNL     1       2.376   6.440  20.316  0.00  0.00    +0.000 N 
ATOM      4  H   UNL     1       3.381   6.512  20.216  0.00  0.00    +0.000 HD
ENDROOT
BRANCH   3   5
ATOM      5  C   UNL     1       1.671   7.673  20.378  0.00  0.00    +0.000 A 
ATOM      6  C   UNL     1       1.632   8.568  19.297  0.00  0.00    +0.000 A 
ATOM      7  C   UNL     1       1.012   9.821  19.401  0.00  0.00    +0.000 A 
ATOM      8  C   UNL     1       0.428  10.183  20.600  0.00  0.00    +0.000 A 
ATOM      9  C   UNL     1       0.399   9.274  21.676  0.00  0.00    +0.000 A 
ATOM     10  C   UNL     1       0.990   8.012  21.569  0.00  0.00    +0.000 A 
ATOM     11  C   UNL     1      -0.294   9.922  22.870  0.00  0.00    +0.000 C 
ATOM     12  C   UNL     1      -0.642  11.302  22.336  0.00  0.00    +0.000 A 
ATOM     13  C   UNL     1      -1.277  12.352  22.983  0.00  0.00    +0.000 A 
ATOM     14  C   UNL     1      -1.458  13.548  22.281  0.00  0.00    +0.000 A 
ATOM     15  C   UNL     1      -1.006  13.679  20.957  0.00  0.00    +0.000 A 
ATOM     16  C   UNL     1      -0.370  12.614  20.311  0.00  0.00    +0.000 A 
ATOM     17  C   UNL     1      -0.198  11.425  21.002  0.00  0.00    +0.000 A 
ENDBRANCH   3   5
BRANCH   2  18
ATOM     18  C   UNL     1       2.846   4.050  20.301  0.00  0.00    +0.000 A 
ATOM     19  S   UNL     1       2.600   2.779  21.477  0.00  0.00    +0.000 S 
ATOM     20  C   UNL     1       3.912   1.861  20.932  0.00  0.00    +0.000 A 
ATOM     21  C   UNL     1       4.573   2.502  19.921  0.00  0.00    +0.000 A 
ATOM     22  C   UNL     1       3.997   3.783  19.558  0.00  0.00    +0.000 A 
BRANCH  22  23
ATOM     23  S   UNL     1       4.897   4.637  18.332  0.00  0.00    +0.000 S 
ATOM     24  O   UNL     1       4.275   4.109  17.131  0.00  0.00    +0.000 OA
ATOM     25  O   UNL     1       4.635   6.015  18.704  0.00  0.00    +0.000 OA
BRANCH  23  26
ATOM     26  N   UNL     1       6.564   4.494  18.089  0.00  0.00    +0.000 NA
ATOM     27  C   UNL     1       7.450   5.566  18.642  0.00  0.00    +0.000 C 
ATOM     28  C   UNL     1       7.390   6.868  17.826  0.00  0.00    +0.000 C 
ATOM     29  O   UNL     1       7.671   6.656  16.435  0.00  0.00    +0.000 OA
ATOM     30  C   UNL     1       6.805   5.667  15.863  0.00  0.00    +0.000 C 
ATOM     31  C   UNL     1       6.926   4.334  16.620  0.00  0.00    +0.000 C 
ENDBRANCH  23  26
ENDBRANCH  22  23
ENDBRANCH   2  18
TORSDOF 4
ENDMDL
MODEL 2
REMARK VINA RESULT:      -8.9      1.133      1.609
REMARK  Name = 
REMARK  4 active torsions:
REMARK  status: ('A' for Active; 'I' for Inactive)
REMARK    1  A    between atoms: C_2  and  C_17
REMARK    2  A    between atoms: N_3  and  C_4
REMARK    3  A    between atoms: C_21  and  S_22
REMARK    4  A    between atoms: S_22  and  N_25
REMARK                            x       y       z     vdW  Elec       q    Type
REMARK                         _______ _______ _______ _____ _____    ______ ____
ROOT
ATOM      1  O   UNL     1       2.095   6.454  18.472  0.00  0.00    +0.000 OA
ATOM      2  C   UNL     1       2.235   6.079  19.627  0.00  0.00    +0.000 C 
ATOM      3  N   UNL     1       1.880   6.860  20.748  0.00  0.00    +0.000 N 
ATOM      4  H   UNL     1       2.182   6.502  21.646  0.00  0.00    +0.000 HD
ENDROOT
BRANCH   3   5
ATOM      5  C   UNL     1       1.253   8.136  20.771  0.00  0.00    +0.000 A 
ATOM      6  C   UNL     1       1.400   9.062  19.726  0.00  0.00    +0.000 A 
ATOM      7  C   UNL     1       0.854  10.351  19.802  0.00  0.00    +0.000 A 
ATOM      8  C   UNL     1       0.156  10.717  20.937  0.00  0.00    +0.000 A 
ATOM      9  C   UNL     1      -0.061   9.782  21.968  0.00  0.00    +0.000 A 
ATOM     10  C   UNL     1       0.457   8.486  21.885  0.00  0.00    +0.000 A 
ATOM     11  C   UNL     1      -0.848  10.441  23.095  0.00  0.00    +0.000 C 
ATOM     12  C   UNL     1      -1.041  11.856  22.574  0.00  0.00    +0.000 A 
ATOM     13  C   UNL     1      -1.681  12.928  23.180  0.00  0.00    +0.000 A 
ATOM     14  C   UNL     1      -1.699  14.153  22.505  0.00  0.00    +0.000 A 
ATOM     15  C   UNL     1      -1.084  14.291  21.249  0.00  0.00    +0.000 A 
ATOM     16  C   UNL     1      -0.446  13.204  20.644  0.00  0.00    +0.000 A 
ATOM     17  C   UNL     1      -0.434  11.987  21.307  0.00  0.00    +0.000 A 
ENDBRANCH   3   5
BRANCH   2  18
ATOM     18  C   UNL     1       2.789   4.752  19.936  0.00  0.00    +0.000 A 
ATOM     19  S   UNL     1       2.130   3.915  21.323  0.00  0.00    +0.000 S 
ATOM     20  C   UNL     1       3.029   2.509  21.049  0.00  0.00    +0.000 A 
ATOM     21  C   UNL     1       3.859   2.659  19.972  0.00  0.00    +0.000 A 
ATOM     22  C   UNL     1       3.763   3.957  19.330  0.00  0.00    +0.000 A 
BRANCH  22  23
ATOM     23  S   UNL     1       4.888   4.175  18.015  0.00  0.00    +0.000 S 
ATOM     24  O   UNL     1       6.142   4.221  18.745  0.00  0.00    +0.000 OA
ATOM     25  O   UNL     1       4.597   3.009  17.203  0.00  0.00    +0.000 OA
BRANCH  23  26
ATOM     26  N   UNL     1       4.908   5.511  16.979  0.00  0.00    +0.000 NA
ATOM     27  C   UNL     1       5.295   5.288  15.550  0.00  0.00    +0.000 C 
ATOM     28  C   UNL     1       6.806   5.062  15.372  0.00  0.00    +0.000 C 
ATOM     29  O   UNL     1       7.591   6.118  15.944  0.00  0.00    +0.000 OA
ATOM     30  C   UNL     1       7.276   6.325  17.327  0.00  0.00    +0.000 C 
ATOM     31  C   UNL     1       5.782   6.641  17.504  0.00  0.00    +0.000 C 
ENDBRANCH  23  26
ENDBRANCH  22  23
ENDBRANCH   2  18
TORSDOF 4
ENDMDL
MODEL 3
REMARK VINA RESULT:      -8.8      2.127      3.848
REMARK  Name = 
REMARK  4 active torsions:
REMARK  status: ('A' for Active; 'I' for Inactive)
REMARK    1  A    between atoms: C_2  and  C_17
REMARK    2  A    between atoms: N_3  and  C_4
REMARK    3  A    between atoms: C_21  and  S_22
REMARK    4  A    between atoms: S_22  and  N_25
REMARK                            x       y       z     vdW  Elec       q    Type
REMARK                         _______ _______ _______ _____ _____    ______ ____
ROOT
ATOM      1  O   UNL     1       2.839   7.847  17.149  0.00  0.00    +0.000 OA
ATOM      2  C   UNL     1       2.987   7.123  18.122  0.00  0.00    +0.000 C 
ATOM      3  N   UNL     1       2.407   7.383  19.382  0.00  0.00    +0.000 N 
ATOM      4  H   UNL     1       2.726   6.793  20.142  0.00  0.00    +0.000 HD
ENDROOT
BRANCH   3   5
ATOM      5  C   UNL     1       1.520   8.433  19.745  0.00  0.00    +0.000 A 
ATOM      6  C   UNL     1       1.225   9.497  18.878  0.00  0.00    +0.000 A 
ATOM      7  C   UNL     1       0.423  10.574  19.281  0.00  0.00    +0.000 A 
ATOM      8  C   UNL     1      -0.086  10.587  20.566  0.00  0.00    +0.000 A 
ATOM      9  C   UNL     1       0.143   9.497  21.429  0.00  0.00    +0.000 A 
ATOM     10  C   UNL     1       0.918   8.407  21.023  0.00  0.00    +0.000 A 
ATOM     11  C   UNL     1      -0.521   9.767  22.775  0.00  0.00    +0.000 C 
ATOM     12  C   UNL     1      -1.142  11.138  22.563  0.00  0.00    +0.000 A 
ATOM     13  C   UNL     1      -1.872  11.912  23.455  0.00  0.00    +0.000 A 
ATOM     14  C   UNL     1      -2.316  13.169  23.030  0.00  0.00    +0.000 A 
ATOM     15  C   UNL     1      -2.028  13.631  21.734  0.00  0.00    +0.000 A 
ATOM     16  C   UNL     1      -1.297  12.843  20.840  0.00  0.00    +0.000 A 
ATOM     17  C   UNL     1      -0.863  11.594  21.257  0.00  0.00    +0.000 A 
ENDBRANCH   3   5
BRANCH   2  18
ATOM     18  C   UNL     1       3.795   5.896  18.043  0.00  0.00    +0.000 A 
ATOM     19  S   UNL     1       5.530   6.090  17.924  0.00  0.00    +0.000 S 
ATOM     20  C   UNL     1       5.838   4.428  18.009  0.00  0.00    +0.000 A 
ATOM     21  C   UNL     1       4.673   3.715  18.070  0.00  0.00    +0.000 A 
ATOM     22  C   UNL     1       3.477   4.537  18.059  0.00  0.00    +0.000 A 
BRANCH  22  23
ATOM     23  S   UNL     1       1.993   3.620  18.045  0.00  0.00    +0.000 S 
ATOM     24  O   UNL     1       1.176   4.452  17.180  0.00  0.00    +0.000 OA
ATOM     25  O   UNL     1       2.462   2.342  17.543  0.00  0.00    +0.000 OA
BRANCH  23  26
ATOM     26  N   UNL     1       1.046   3.304  19.409  0.00  0.00    +0.000 NA
ATOM     27  C   UNL     1       0.858   4.405  20.405  0.00  0.00    +0.000 C 
ATOM     28  C   UNL     1       2.110   4.650  21.266  0.00  0.00    +0.000 C 
ATOM     29  O   UNL     1       2.567   3.458  21.920  0.00  0.00    +0.000 OA
ATOM     30  C   UNL     1       2.803   2.396  20.985  0.00  0.00    +0.000 C 
ATOM     31  C   UNL     1       1.529   2.085  20.183  0.00  0.00    +0.000 C 
ENDBRANCH  23  26
ENDBRANCH  22  23
ENDBRANCH   2  18
TORSDOF 4
ENDMDL
MODEL 4
REMARK VINA RESULT:      -8.7      2.211      4.097
REMARK  Name = 
REMARK  4 active torsions:
REMARK  status: ('A' for Active; 'I' for Inactive)
REMARK    1  A    between atoms: C_2  and  C_17
REMARK    2  A    between atoms: N_3  and  C_4
REMARK    3  A    between atoms: C_21  and  S_22
REMARK    4  A    between atoms: S_22  and  N_25
REMARK                            x       y       z     vdW  Elec       q    Type
REMARK                         _______ _______ _______ _____ _____    ______ ____
ROOT
ATOM      1  O   UNL     1       2.711   8.117  17.525  0.00  0.00    +0.000 OA
ATOM      2  C   UNL     1       2.934   7.237  18.343  0.00  0.00    +0.000 C 
ATOM      3  N   UNL     1       2.495   7.291  19.684  0.00  0.00    +0.000 N 
ATOM      4  H   UNL     1       2.871   6.578  20.297  0.00  0.00    +0.000 HD
ENDROOT
BRANCH   3   5
ATOM      5  C   UNL     1       1.686   8.280  20.308  0.00  0.00    +0.000 A 
ATOM      6  C   UNL     1       1.487   8.316  21.698  0.00  0.00    +0.000 A 
ATOM      7  C   UNL     1       0.614   9.237  22.292  0.00  0.00    +0.000 A 
ATOM      8  C   UNL     1      -0.068  10.130  21.488  0.00  0.00    +0.000 A 
ATOM      9  C   UNL     1       0.168  10.154  20.099  0.00  0.00    +0.000 A 
ATOM     10  C   UNL     1       1.059   9.257  19.504  0.00  0.00    +0.000 A 
ATOM     11  C   UNL     1      -0.710  11.221  19.453  0.00  0.00    +0.000 C 
ATOM     12  C   UNL     1      -1.468  11.784  20.644  0.00  0.00    +0.000 A 
ATOM     13  C   UNL     1      -2.430  12.784  20.671  0.00  0.00    +0.000 A 
ATOM     14  C   UNL     1      -3.012  13.108  21.901  0.00  0.00    +0.000 A 
ATOM     15  C   UNL     1      -2.630  12.437  23.075  0.00  0.00    +0.000 A 
ATOM     16  C   UNL     1      -1.655  11.435  23.040  0.00  0.00    +0.000 A 
ATOM     17  C   UNL     1      -1.072  11.118  21.823  0.00  0.00    +0.000 A 
ENDBRANCH   3   5
BRANCH   2  18
ATOM     18  C   UNL     1       3.687   6.028  17.976  0.00  0.00    +0.000 A 
ATOM     19  S   UNL     1       5.399   6.217  17.671  0.00  0.00    +0.000 S 
ATOM     20  C   UNL     1       5.664   4.559  17.462  0.00  0.00    +0.000 A 
ATOM     21  C   UNL     1       4.494   3.859  17.560  0.00  0.00    +0.000 A 
ATOM     22  C   UNL     1       3.331   4.687  17.825  0.00  0.00    +0.000 A 
BRANCH  22  23
ATOM     23  S   UNL     1       1.830   3.800  17.858  0.00  0.00    +0.000 S 
ATOM     24  O   UNL     1       0.947   4.751  17.205  0.00  0.00    +0.000 OA
ATOM     25  O   UNL     1       2.204   2.593  17.146  0.00  0.00    +0.000 OA
BRANCH  23  26
ATOM     26  N   UNL     1       1.028   3.320  19.268  0.00  0.00    +0.000 NA
ATOM     27  C   UNL     1       0.933   4.304  20.392  0.00  0.00    +0.000 C 
ATOM     28  C   UNL     1       2.263   4.479  21.145  0.00  0.00    +0.000 C 
ATOM     29  O   UNL     1       2.794   3.232  21.615  0.00  0.00    +0.000 OA
ATOM     30  C   UNL     1       2.943   2.282  20.552  0.00  0.00    +0.000 C 
ATOM     31  C   UNL     1       1.596   2.035  19.851  0.00  0.00    +0.000 C 
ENDBRANCH  23  26
ENDBRANCH  22  23
ENDBRANCH   2  18
TORSDOF 4
ENDMDL
MODEL 5
REMARK VINA RESULT:      -8.6      2.274      4.238
REMARK  Name = 
REMARK  4 active torsions:
REMARK  status: ('A' for Active; 'I' for Inactive)
REMARK    1  A    between atoms: C_2  and  C_17
REMARK    2  A    between atoms: N_3  and  C_4
REMARK    3  A    between atoms: C_21  and  S_22
REMARK    4  A    between atoms: S_22  and  N_25
REMARK                            x       y       z     vdW  Elec       q    Type
REMARK                         _______ _______ _______ _____ _____    ______ ____
ROOT
ATOM      1  O   UNL     1       2.482   8.630  17.399  0.00  0.00    +0.000 OA
ATOM      2  C   UNL     1       2.684   7.680  18.142  0.00  0.00    +0.000 C 
ATOM      3  N   UNL     1       2.243   7.632  19.481  0.00  0.00    +0.000 N 
ATOM      4  H   UNL     1       2.601   6.862  20.034  0.00  0.00    +0.000 HD
ENDROOT
BRANCH   3   5
ATOM      5  C   UNL     1       1.454   8.582  20.185  0.00  0.00    +0.000 A 
ATOM      6  C   UNL     1       1.282   8.529  21.578  0.00  0.00    +0.000 A 
ATOM      7  C   UNL     1       0.428   9.415  22.249  0.00  0.00    +0.000 A 
ATOM      8  C   UNL     1      -0.264  10.362  21.518  0.00  0.00    +0.000 A 
ATOM      9  C   UNL     1      -0.055  10.476  20.129  0.00  0.00    +0.000 A 
ATOM     10  C   UNL     1       0.817   9.614  19.459  0.00  0.00    +0.000 A 
ATOM     11  C   UNL     1      -0.938  11.587  19.573  0.00  0.00    +0.000 C 
ATOM     12  C   UNL     1      -1.668  12.076  20.813  0.00  0.00    +0.000 A 
ATOM     13  C   UNL     1      -2.623  13.077  20.924  0.00  0.00    +0.000 A 
ATOM     14  C   UNL     1      -3.178  13.324  22.184  0.00  0.00    +0.000 A 
ATOM     15  C   UNL     1      -2.777  12.575  23.304  0.00  0.00    +0.000 A 
ATOM     16  C   UNL     1      -1.811  11.572  23.184  0.00  0.00    +0.000 A 
ATOM     17  C   UNL     1      -1.254  11.332  21.937  0.00  0.00    +0.000 A 
ENDBRANCH   3   5
BRANCH   2  18
ATOM     18  C   UNL     1       3.412   6.490  17.676  0.00  0.00    +0.000 A 
ATOM     19  S   UNL     1       4.910   6.758  16.813  0.00  0.00    +0.000 S 
ATOM     20  C   UNL     1       5.276   5.110  16.701  0.00  0.00    +0.000 A 
ATOM     21  C   UNL     1       4.281   4.348  17.245  0.00  0.00    +0.000 A 
ATOM     22  C   UNL     1       3.177   5.119  17.787  0.00  0.00    +0.000 A 
BRANCH  22  23
ATOM     23  S   UNL     1       1.869   4.140  18.398  0.00  0.00    +0.000 S 
ATOM     24  O   UNL     1       1.455   4.934  19.541  0.00  0.00    +0.000 OA
ATOM     25  O   UNL     1       0.999   4.083  17.238  0.00  0.00    +0.000 OA
BRANCH  23  26
ATOM     26  N   UNL     1       2.039   2.559  18.972  0.00  0.00    +0.000 NA
ATOM     27  C   UNL     1       1.150   2.117  20.092  0.00  0.00    +0.000 C 
ATOM     28  C   UNL     1       1.563   2.711  21.450  0.00  0.00    +0.000 C 
ATOM     29  O   UNL     1       2.936   2.447  21.769  0.00  0.00    +0.000 OA
ATOM     30  C   UNL     1       3.819   2.902  20.734  0.00  0.00    +0.000 C 
ATOM     31  C   UNL     1       3.468   2.243  19.390  0.00  0.00    +0.000 C 
ENDBRANCH  23  26
ENDBRANCH  22  23
ENDBRANCH   2  18
TORSDOF 4
ENDMDL
MODEL 6
REMARK VINA RESULT:      -8.5      1.979      4.139
REMARK  Name = 
REMARK  4 active torsions:
REMARK  status: ('A' for Active; 'I' for Inactive)
REMARK    1  A    between atoms: C_2  and  C_17
REMARK    2  A    between atoms: N_3  and  C_4
REMARK    3  A    between atoms: C_21  and  S_22
REMARK    4  A    between atoms: S_22  and  N_25
REMARK                            x       y       z     vdW  Elec       q    Type
REMARK                         _______ _______ _______ _____ _____    ______ ____
ROOT
ATOM      1  O   UNL     1       4.601   8.007  16.928  0.00  0.00    +0.000 OA
ATOM      2  C   UNL     1       4.152   6.918  17.255  0.00  0.00    +0.000 C 
ATOM      3  N   UNL     1       3.025   6.759  18.091  0.00  0.00    +0.000 N 
ATOM      4  H   UNL     1       2.845   5.815  18.409  0.00  0.00    +0.000 HD
ENDROOT
BRANCH   3   5
ATOM      5  C   UNL     1       2.180   7.766  18.633  0.00  0.00    +0.000 A 
ATOM      6  C   UNL     1       1.752   8.870  17.879  0.00  0.00    +0.000 A 
ATOM      7  C   UNL     1       0.996   9.903  18.450  0.00  0.00    +0.000 A 
ATOM      8  C   UNL     1       0.668   9.832  19.790  0.00  0.00    +0.000 A 
ATOM      9  C   UNL     1       1.031   8.701  20.549  0.00  0.00    +0.000 A 
ATOM     10  C   UNL     1       1.760   7.654  19.977  0.00  0.00    +0.000 A 
ATOM     11  C   UNL     1       0.554   8.878  21.986  0.00  0.00    +0.000 C 
ATOM     12  C   UNL     1      -0.112  10.244  21.942  0.00  0.00    +0.000 A 
ATOM     13  C   UNL     1      -0.724  10.948  22.969  0.00  0.00    +0.000 A 
ATOM     14  C   UNL     1      -1.242  12.216  22.684  0.00  0.00    +0.000 A 
ATOM     15  C   UNL     1      -1.143  12.758  21.391  0.00  0.00    +0.000 A 
ATOM     16  C   UNL     1      -0.529  12.039  20.361  0.00  0.00    +0.000 A 
ATOM     17  C   UNL     1      -0.022  10.779  20.640  0.00  0.00    +0.000 A 
ENDBRANCH   3   5
BRANCH   2  18
ATOM     18  C   UNL     1       4.765   5.667  16.782  0.00  0.00    +0.000 A 
ATOM     19  S   UNL     1       5.781   5.764  15.361  0.00  0.00    +0.000 S 
ATOM     20  C   UNL     1       6.245   4.139  15.439  0.00  0.00    +0.000 A 
ATOM     21  C   UNL     1       5.619   3.499  16.472  0.00  0.00    +0.000 A 
ATOM     22  C   UNL     1       4.734   4.351  17.245  0.00  0.00    +0.000 A 
BRANCH  22  23
ATOM     23  S   UNL     1       3.869   3.508  18.504  0.00  0.00    +0.000 S 
ATOM     24  O   UNL     1       3.300   2.410  17.744  0.00  0.00    +0.000 OA
ATOM     25  O   UNL     1       4.943   3.227  19.438  0.00  0.00    +0.000 OA
BRANCH  23  26
ATOM     26  N   UNL     1       2.591   4.164  19.396  0.00  0.00    +0.000 NA
ATOM     27  C   UNL     1       2.734   4.232  20.884  0.00  0.00    +0.000 C 
ATOM     28  C   UNL     1       2.572   2.861  21.561  0.00  0.00    +0.000 C 
ATOM     29  O   UNL     1       1.341   2.215  21.207  0.00  0.00    +0.000 OA
ATOM     30  C   UNL     1       1.195   2.092  19.785  0.00  0.00    +0.000 C 
ATOM     31  C   UNL     1       1.267   3.471  19.109  0.00  0.00    +0.000 C 
ENDBRANCH  23  26
ENDBRANCH  22  23
ENDBRANCH   2  18
TORSDOF 4
ENDMDL
MODEL 7
REMARK VINA RESULT:      -8.4      2.102      3.757
REMARK  Name = 
REMARK  4 active torsions:
REMARK  status: ('A' for Active; 'I' for Inactive)
REMARK    1  A    between atoms: C_2  and  C_17
REMARK    2  A    between atoms: N_3  and  C_4
REMARK    3  A    between atoms: C_21  and  S_22
REMARK    4  A    between atoms: S_22  and  N_25
REMARK                            x       y       z     vdW  Elec       q    Type
REMARK                         _______ _______ _______ _____ _____    ______ ____
ROOT
ATOM      1  O   UNL     1       1.591   6.001  17.460  0.00  0.00    +0.000 OA
ATOM      2  C   UNL     1       2.648   6.271  18.012  0.00  0.00    +0.000 C 
ATOM      3  N   UNL     1       2.817   7.378  18.871  0.00  0.00    +0.000 N 
ATOM      4  H   UNL     1       3.772   7.579  19.144  0.00  0.00    +0.000 HD
ENDROOT
BRANCH   3   5
ATOM      5  C   UNL     1       1.839   8.311  19.312  0.00  0.00    +0.000 A 
ATOM      6  C   UNL     1       1.324   9.309  18.470  0.00  0.00    +0.000 A 
ATOM      7  C   UNL     1       0.430  10.281  18.941  0.00  0.00    +0.000 A 
ATOM      8  C   UNL     1       0.049  10.254  20.269  0.00  0.00    +0.000 A 
ATOM      9  C   UNL     1       0.502   9.221  21.115  0.00  0.00    +0.000 A 
ATOM     10  C   UNL     1       1.371   8.233  20.643  0.00  0.00    +0.000 A 
ATOM     11  C   UNL     1      -0.059   9.430  22.517  0.00  0.00    +0.000 C 
ATOM     12  C   UNL     1      -0.873  10.703  22.356  0.00  0.00    +0.000 A 
ATOM     13  C   UNL     1      -1.608  11.393  23.310  0.00  0.00    +0.000 A 
ATOM     14  C   UNL     1      -2.253  12.572  22.921  0.00  0.00    +0.000 A 
ATOM     15  C   UNL     1      -2.155  13.042  21.600  0.00  0.00    +0.000 A 
ATOM     16  C   UNL     1      -1.416  12.338  20.645  0.00  0.00    +0.000 A 
ATOM     17  C   UNL     1      -0.783  11.165  21.027  0.00  0.00    +0.000 A 
ENDBRANCH   3   5
BRANCH   2  18
ATOM     18  C   UNL     1       3.843   5.436  17.819  0.00  0.00    +0.000 A 
ATOM     19  S   UNL     1       5.342   6.261  17.455  0.00  0.00    +0.000 S 
ATOM     20  C   UNL     1       6.267   4.844  17.496  0.00  0.00    +0.000 A 
ATOM     21  C   UNL     1       5.479   3.750  17.722  0.00  0.00    +0.000 A 
ATOM     22  C   UNL     1       4.070   4.060  17.881  0.00  0.00    +0.000 A 
BRANCH  22  23
ATOM     23  S   UNL     1       3.059   2.653  18.079  0.00  0.00    +0.000 S 
ATOM     24  O   UNL     1       1.988   2.965  17.148  0.00  0.00    +0.000 OA
ATOM     25  O   UNL     1       3.989   1.592  17.741  0.00  0.00    +0.000 OA
BRANCH  23  26
ATOM     26  N   UNL     1       2.300   2.210  19.523  0.00  0.00    +0.000 NA
ATOM     27  C   UNL     1       0.905   2.697  19.763  0.00  0.00    +0.000 C 
ATOM     28  C   UNL     1       0.850   4.189  20.130  0.00  0.00    +0.000 C 
ATOM     29  O   UNL     1       1.690   4.511  21.248  0.00  0.00    +0.000 OA
ATOM     30  C   UNL     1       3.046   4.099  21.029  0.00  0.00    +0.000 C 
ATOM     31  C   UNL     1       3.118   2.589  20.750  0.00  0.00    +0.000 C 
ENDBRANCH  23  26
ENDBRANCH  22  23
ENDBRANCH   2  18
TORSDOF 4
ENDMDL
MODEL 8
REMARK VINA RESULT:      -8.4      0.879      1.368
REMARK  Name = 
REMARK  4 active torsions:
REMARK  status: ('A' for Active; 'I' for Inactive)
REMARK    1  A    between atoms: C_2  and  C_17
REMARK    2  A    between atoms: N_3  and  C_4
REMARK    3  A    between atoms: C_21  and  S_22
REMARK    4  A    between atoms: S_22  and  N_25
REMARK                            x       y       z     vdW  Elec       q    Type
REMARK                         _______ _______ _______ _____ _____    ______ ____
ROOT
ATOM      1  O   UNL     1       0.769   4.873  19.849  0.00  0.00    +0.000 OA
ATOM      2  C   UNL     1       1.931   5.110  20.145  0.00  0.00    +0.000 C 
ATOM      3  N   UNL     1       2.420   6.409  20.404  0.00  0.00    +0.000 N 
ATOM      4  H   UNL     1       3.426   6.490  20.489  0.00  0.00    +0.000 HD
ENDROOT
BRANCH   3   5
ATOM      5  C   UNL     1       1.696   7.632  20.448  0.00  0.00    +0.000 A 
ATOM      6  C   UNL     1       1.646   8.512  19.355  0.00  0.00    +0.000 A 
ATOM      7  C   UNL     1       1.007   9.756  19.441  0.00  0.00    +0.000 A 
ATOM      8  C   UNL     1       0.413  10.125  20.634  0.00  0.00    +0.000 A 
ATOM      9  C   UNL     1       0.395   9.228  21.721  0.00  0.00    +0.000 A 
ATOM     10  C   UNL     1       1.006   7.974  21.632  0.00  0.00    +0.000 A 
ATOM     11  C   UNL     1      -0.312   9.880  22.904  0.00  0.00    +0.000 C 
ATOM     12  C   UNL     1      -0.680  11.248  22.352  0.00  0.00    +0.000 A 
ATOM     13  C   UNL     1      -1.334  12.296  22.984  0.00  0.00    +0.000 A 
ATOM     14  C   UNL     1      -1.530  13.481  22.266  0.00  0.00    +0.000 A 
ATOM     15  C   UNL     1      -1.076  13.602  20.941  0.00  0.00    +0.000 A 
ATOM     16  C   UNL     1      -0.422  12.538  20.311  0.00  0.00    +0.000 A 
ATOM     17  C   UNL     1      -0.234  11.361  21.018  0.00  0.00    +0.000 A 
ENDBRANCH   3   5
BRANCH   2  18
ATOM     18  C   UNL     1       2.923   4.030  20.263  0.00  0.00    +0.000 A 
ATOM     19  S   UNL     1       2.489   2.653  21.251  0.00  0.00    +0.000 S 
ATOM     20  C   UNL     1       3.894   1.790  20.872  0.00  0.00    +0.000 A 
ATOM     21  C   UNL     1       4.717   2.524  20.064  0.00  0.00    +0.000 A 
ATOM     22  C   UNL     1       4.194   3.834  19.722  0.00  0.00    +0.000 A 
BRANCH  22  23
ATOM     23  S   UNL     1       5.288   4.801  18.767  0.00  0.00    +0.000 S 
ATOM     24  O   UNL     1       5.368   5.997  19.587  0.00  0.00    +0.000 OA
ATOM     25  O   UNL     1       6.443   3.926  18.697  0.00  0.00    +0.000 OA
BRANCH  23  26
ATOM     26  N   UNL     1       4.973   5.339  17.196  0.00  0.00    +0.000 NA
ATOM     27  C   UNL     1       5.410   4.473  16.055  0.00  0.00    +0.000 C 
ATOM     28  C   UNL     1       6.930   4.519  15.822  0.00  0.00    +0.000 C 
ATOM     29  O   UNL     1       7.419   5.856  15.650  0.00  0.00    +0.000 OA
ATOM     30  C   UNL     1       7.056   6.701  16.751  0.00  0.00    +0.000 C 
ATOM     31  C   UNL     1       5.530   6.730  16.934  0.00  0.00    +0.000 C 
ENDBRANCH  23  26
ENDBRANCH  22  23
ENDBRANCH   2  18
TORSDOF 4
ENDMDL
MODEL 9
REMARK VINA RESULT:      -8.3      0.704      1.708
REMARK  Name = 
REMARK  4 active torsions:
REMARK  status: ('A' for Active; 'I' for Inactive)
REMARK    1  A    between atoms: C_2  and  C_17
REMARK    2  A    between atoms: N_3  and  C_4
REMARK    3  A    between atoms: C_21  and  S_22
REMARK    4  A    between atoms: S_22  and  N_25
REMARK                            x       y       z     vdW  Elec       q    Type
REMARK                         _______ _______ _______ _____ _____    ______ ____
ROOT
ATOM      1  O   UNL     1       0.649   4.879  20.361  0.00  0.00    +0.000 OA
ATOM      2  C   UNL     1       1.851   5.101  20.356  0.00  0.00    +0.000 C 
ATOM      3  N   UNL     1       2.404   6.399  20.397  0.00  0.00    +0.000 N 
ATOM      4  H   UNL     1       3.402   6.457  20.236  0.00  0.00    +0.000 HD
ENDROOT
BRANCH   3   5
ATOM      5  C   UNL     1       1.726   7.643  20.523  0.00  0.00    +0.000 A 
ATOM      6  C   UNL     1       1.038   8.005  21.692  0.00  0.00    +0.000 A 
ATOM      7  C   UNL     1       0.296   9.192  21.771  0.00  0.00    +0.000 A 
ATOM      8  C   UNL     1       0.241  10.024  20.669  0.00  0.00    +0.000 A 
ATOM      9  C   UNL     1       0.978   9.711  19.509  0.00  0.00    +0.000 A 
ATOM     10  C   UNL     1       1.743   8.543  19.434  0.00  0.00    +0.000 A 
ATOM     11  C   UNL     1       0.738  10.782  18.451  0.00  0.00    +0.000 C 
ATOM     12  C   UNL     1      -0.225  11.725  19.154  0.00  0.00    +0.000 A 
ATOM     13  C   UNL     1      -0.811  12.888  18.674  0.00  0.00    +0.000 A 
ATOM     14  C   UNL     1      -1.698  13.574  19.511  0.00  0.00    +0.000 A 
ATOM     15  C   UNL     1      -1.986  13.094  20.800  0.00  0.00    +0.000 A 
ATOM     16  C   UNL     1      -1.387  11.924  21.277  0.00  0.00    +0.000 A 
ATOM     17  C   UNL     1      -0.501  11.248  20.452  0.00  0.00    +0.000 A 
ENDBRANCH   3   5
BRANCH   2  18
ATOM     18  C   UNL     1       2.829   4.003  20.313  0.00  0.00    +0.000 A 
ATOM     19  S   UNL     1       2.636   2.717  21.484  0.00  0.00    +0.000 S 
ATOM     20  C   UNL     1       3.895   1.786  20.842  0.00  0.00    +0.000 A 
ATOM     21  C   UNL     1       4.502   2.432  19.801  0.00  0.00    +0.000 A 
ATOM     22  C   UNL     1       3.926   3.729  19.495  0.00  0.00    +0.000 A 
BRANCH  22  23
ATOM     23  S   UNL     1       4.761   4.587  18.226  0.00  0.00    +0.000 S 
ATOM     24  O   UNL     1       3.981   4.177  17.072  0.00  0.00    +0.000 OA
ATOM     25  O   UNL     1       4.647   5.955  18.695  0.00  0.00    +0.000 OA
BRANCH  23  26
ATOM     26  N   UNL     1       6.379   4.338  17.802  0.00  0.00    +0.000 NA
ATOM     27  C   UNL     1       7.402   5.288  18.343  0.00  0.00    +0.000 C 
ATOM     28  C   UNL     1       7.373   6.656  17.641  0.00  0.00    +0.000 C 
ATOM     29  O   UNL     1       7.499   6.545  16.216  0.00  0.00    +0.000 OA
ATOM     30  C   UNL     1       6.501   5.677  15.661  0.00  0.00    +0.000 C 
ATOM     31  C   UNL     1       6.582   4.279  16.295  0.00  0.00    +0.000 C 
ENDBRANCH  23  26
ENDBRANCH  22  23
ENDBRANCH   2  18
TORSDOF 4
ENDMDL
