MODEL 1
REMARK VINA RESULT:      -9.6      0.000      0.000
REMARK  Name = 
REMARK  9 active torsions:
REMARK  status: ('A' for Active; 'I' for Inactive)
REMARK    1  A    between atoms: C_1  and  C_2
REMARK    2  A    between atoms: C_2  and  C_3
REMARK    3  A    between atoms: C_2  and  C_10
REMARK    4  A    between atoms: C_3  and  C_4
REMARK    5  A    between atoms: N_8  and  C_9
REMARK    6  A    between atoms: C_14  and  N_15
REMARK    7  A    between atoms: C_16  and  C_18
REMARK    8  A    between atoms: C_20  and  C_21
REMARK    9  A    between atoms: C_28  and  N_29
REMARK                            x       y       z     vdW  Elec       q    Type
REMARK                         _______ _______ _______ _____ _____    ______ ____
ROOT
ATOM      1  N   UNL     1       2.144   7.110  18.954  0.00  0.00    +0.000 N 
ATOM      2  C   UNL     1       1.941   8.369  18.425  0.00  0.00    +0.000 C 
ATOM      3  O   UNL     1       2.297   8.776  17.323  0.00  0.00    +0.000 OA
ATOM      4  H   UNL     1       1.835   6.998  19.917  0.00  0.00    +0.000 HD
ENDROOT
BRANCH   1   9
ATOM      5  C   UNL     1       4.570   4.915  17.195  0.00  0.00    +0.000 A 
ATOM      6  C   UNL     1       3.799   3.756  17.019  0.00  0.00    +0.000 A 
ATOM      7  C   UNL     1       2.473   3.715  17.442  0.00  0.00    +0.000 A 
ATOM      8  C   UNL     1       1.898   4.825  18.057  0.00  0.00    +0.000 A 
ATOM      9  C   UNL     1       2.648   5.981  18.281  0.00  0.00    +0.000 A 
ATOM     10  C   UNL     1       3.982   6.016  17.847  0.00  0.00    +0.000 A 
BRANCH   5  12
ATOM     11  C   UNL     1       7.041   4.627  17.765  0.00  0.00    +0.000 C 
ATOM     12  C   UNL     1       6.004   4.921  16.669  0.00  0.00    +0.000 C 
BRANCH  12  13
ATOM     13  C   UNL     1       6.143   3.967  15.462  0.00  0.00    +0.000 C 
BRANCH  13  14
ATOM     14  C   UNL     1       6.905   4.574  14.327  0.00  0.00    +0.000 A 
ATOM     15  N   UNL     1       7.821   5.520  14.407  0.00  0.00    +0.000 NA
ATOM     16  N   UNL     1       8.307   5.762  13.145  0.00  0.00    +0.000 NA
ATOM     17  C   UNL     1       7.661   4.978  12.316  0.00  0.00    +0.000 A 
ATOM     18  N   UNL     1       6.756   4.234  13.007  0.00  0.00    +0.000 N 
ATOM     19  C   UNL     1       5.821   3.299  12.440  0.00  0.00    +0.000 C 
ENDBRANCH  13  14
ENDBRANCH  12  13
ENDBRANCH   5  12
ENDBRANCH   1   9
BRANCH   2  20
ATOM     20  C   UNL     1       1.174   9.293  19.319  0.00  0.00    +0.000 A 
ATOM     21  C   UNL     1       0.091   9.972  18.785  0.00  0.00    +0.000 A 
ATOM     22  C   UNL     1      -0.677  10.788  19.611  0.00  0.00    +0.000 A 
ATOM     23  C   UNL     1      -0.395  10.819  20.991  0.00  0.00    +0.000 A 
ATOM     24  C   UNL     1       0.722  10.087  21.420  0.00  0.00    +0.000 A 
ATOM     25  N   UNL     1       1.537   9.353  20.623  0.00  0.00    +0.000 NA
BRANCH  22  26
ATOM     26  C   UNL     1      -1.823  11.557  19.026  0.00  0.00    +0.000 C 
ATOM     27  O   UNL     1      -2.053  12.685  19.462  0.00  0.00    +0.000 OA
ATOM     28  N   UNL     1      -2.590  11.015  17.995  0.00  0.00    +0.000 N 
ATOM     29  C   UNL     1      -2.362   9.827  17.185  0.00  0.00    +0.000 C 
ATOM     30  C   UNL     1      -3.037  10.137  15.862  0.00  0.00    +0.000 C 
ATOM     31  C   UNL     1      -4.223  11.006  16.259  0.00  0.00    +0.000 C 
ATOM     32  C   UNL     1      -3.784  11.711  17.540  0.00  0.00    +0.000 C 
ENDBRANCH  22  26
BRANCH  23  33
ATOM     33  N   UNL     1      -1.289  11.325  21.944  0.00  0.00    +0.000 N 
ATOM     34  H   UNL     1      -1.281  10.823  22.837  0.00  0.00    +0.000 HD
ATOM     35  H   UNL     1      -2.203  11.625  21.631  0.00  0.00    +0.000 HD
ENDBRANCH  23  33
ENDBRANCH   2  20
TORSDOF 7
ENDMDL
MODEL 2
REMARK VINA RESULT:      -9.5      2.238      9.789
REMARK  Name = 
REMARK  9 active torsions:
REMARK  status: ('A' for Active; 'I' for Inactive)
REMARK    1  A    between atoms: C_1  and  C_2
REMARK    2  A    between atoms: C_2  and  C_3
REMARK    3  A    between atoms: C_2  and  C_10
REMARK    4  A    between atoms: C_3  and  C_4
REMARK    5  A    between atoms: N_8  and  C_9
REMARK    6  A    between atoms: C_14  and  N_15
REMARK    7  A    between atoms: C_16  and  C_18
REMARK    8  A    between atoms: C_20  and  C_21
REMARK    9  A    between atoms: C_28  and  N_29
REMARK                            x       y       z     vdW  Elec       q    Type
REMARK                         _______ _______ _______ _____ _____    ______ ____
ROOT
ATOM      1  N   UNL     1       1.388   7.464  20.705  0.00  0.00    +0.000 N 
ATOM      2  C   UNL     1       2.198   7.320  19.597  0.00  0.00    +0.000 C 
ATOM      3  O   UNL     1       2.416   8.157  18.725  0.00  0.00    +0.000 OA
ATOM      4  H   UNL     1       1.283   6.622  21.268  0.00  0.00    +0.000 HD
ENDROOT
BRANCH   1   9
ATOM      5  C   UNL     1      -0.315  10.762  20.575  0.00  0.00    +0.000 A 
ATOM      6  C   UNL     1      -0.537  11.000  21.940  0.00  0.00    +0.000 A 
ATOM      7  C   UNL     1      -0.090  10.096  22.899  0.00  0.00    +0.000 A 
ATOM      8  C   UNL     1       0.576   8.934  22.513  0.00  0.00    +0.000 A 
ATOM      9  C   UNL     1       0.780   8.650  21.161  0.00  0.00    +0.000 A 
ATOM     10  C   UNL     1       0.332   9.569  20.201  0.00  0.00    +0.000 A 
BRANCH   5  12
ATOM     11  C   UNL     1       0.276  12.891  19.297  0.00  0.00    +0.000 C 
ATOM     12  C   UNL     1      -0.784  11.812  19.568  0.00  0.00    +0.000 C 
BRANCH  12  13
ATOM     13  C   UNL     1      -1.275  11.135  18.269  0.00  0.00    +0.000 C 
BRANCH  13  14
ATOM     14  C   UNL     1      -2.724  11.381  17.998  0.00  0.00    +0.000 A 
ATOM     15  N   UNL     1      -3.630  11.795  18.863  0.00  0.00    +0.000 NA
ATOM     16  N   UNL     1      -4.827  11.936  18.204  0.00  0.00    +0.000 NA
ATOM     17  C   UNL     1      -4.636  11.581  16.956  0.00  0.00    +0.000 A 
ATOM     18  N   UNL     1      -3.341  11.202  16.786  0.00  0.00    +0.000 N 
ATOM     19  C   UNL     1      -2.761  10.695  15.571  0.00  0.00    +0.000 C 
ENDBRANCH  13  14
ENDBRANCH  12  13
ENDBRANCH   5  12
ENDBRANCH   1   9
BRANCH   2  20
ATOM     20  C   UNL     1       2.884   5.993  19.505  0.00  0.00    +0.000 A 
ATOM     21  C   UNL     1       4.091   5.924  18.831  0.00  0.00    +0.000 A 
ATOM     22  C   UNL     1       4.781   4.716  18.787  0.00  0.00    +0.000 A 
ATOM     23  C   UNL     1       4.282   3.620  19.520  0.00  0.00    +0.000 A 
ATOM     24  C   UNL     1       3.054   3.807  20.171  0.00  0.00    +0.000 A 
ATOM     25  N   UNL     1       2.321   4.947  20.159  0.00  0.00    +0.000 NA
BRANCH  22  26
ATOM     26  C   UNL     1       6.066   4.628  18.020  0.00  0.00    +0.000 C 
ATOM     27  O   UNL     1       7.106   4.426  18.645  0.00  0.00    +0.000 OA
ATOM     28  N   UNL     1       6.073   4.746  16.630  0.00  0.00    +0.000 N 
ATOM     29  C   UNL     1       4.964   4.754  15.687  0.00  0.00    +0.000 C 
ATOM     30  C   UNL     1       5.553   4.187  14.409  0.00  0.00    +0.000 C 
ATOM     31  C   UNL     1       6.999   4.664  14.436  0.00  0.00    +0.000 C 
ATOM     32  C   UNL     1       7.340   4.804  15.917  0.00  0.00    +0.000 C 
ENDBRANCH  22  26
BRANCH  23  33
ATOM     33  N   UNL     1       5.049   2.486  19.817  0.00  0.00    +0.000 N 
ATOM     34  H   UNL     1       4.601   1.598  19.570  0.00  0.00    +0.000 HD
ATOM     35  H   UNL     1       5.570   2.474  20.684  0.00  0.00    +0.000 HD
ENDBRANCH  23  33
ENDBRANCH   2  20
TORSDOF 7
ENDMDL
MODEL 3
REMARK VINA RESULT:      -9.3      2.198      3.082
REMARK  Name = 
REMARK  9 active torsions:
REMARK  status: ('A' for Active; 'I' for Inactive)
REMARK    1  A    between atoms: C_1  and  C_2
REMARK    2  A    between atoms: C_2  and  C_3
REMARK    3  A    between atoms: C_2  and  C_10
REMARK    4  A    between atoms: C_3  and  C_4
REMARK    5  A    between atoms: N_8  and  C_9
REMARK    6  A    between atoms: C_14  and  N_15
REMARK    7  A    between atoms: C_16  and  C_18
REMARK    8  A    between atoms: C_20  and  C_21
REMARK    9  A    between atoms: C_28  and  N_29
REMARK                            x       y       z     vdW  Elec       q    Type
REMARK                         _______ _______ _______ _____ _____    ______ ____
ROOT
ATOM      1  N   UNL     1       2.348   7.337  18.984  0.00  0.00    +0.000 N 
ATOM      2  C   UNL     1       1.972   8.521  18.381  0.00  0.00    +0.000 C 
ATOM      3  O   UNL     1       2.090   8.820  17.196  0.00  0.00    +0.000 OA
ATOM      4  H   UNL     1       2.231   7.318  19.995  0.00  0.00    +0.000 HD
ENDROOT
BRANCH   1   9
ATOM      5  C   UNL     1       4.622   4.980  17.233  0.00  0.00    +0.000 A 
ATOM      6  C   UNL     1       3.803   3.844  17.136  0.00  0.00    +0.000 A 
ATOM      7  C   UNL     1       2.494   3.871  17.609  0.00  0.00    +0.000 A 
ATOM      8  C   UNL     1       1.983   5.027  18.196  0.00  0.00    +0.000 A 
ATOM      9  C   UNL     1       2.784   6.162  18.342  0.00  0.00    +0.000 A 
ATOM     10  C   UNL     1       4.101   6.128  17.858  0.00  0.00    +0.000 A 
BRANCH   5  12
ATOM     11  C   UNL     1       7.088   4.521  17.704  0.00  0.00    +0.000 C 
ATOM     12  C   UNL     1       6.034   4.909  16.654  0.00  0.00    +0.000 C 
BRANCH  12  13
ATOM     13  C   UNL     1       6.069   3.981  15.420  0.00  0.00    +0.000 C 
BRANCH  13  14
ATOM     14  C   UNL     1       6.841   4.561  14.278  0.00  0.00    +0.000 A 
ATOM     15  N   UNL     1       7.755   5.510  14.345  0.00  0.00    +0.000 NA
ATOM     16  N   UNL     1       8.253   5.722  13.082  0.00  0.00    +0.000 NA
ATOM     17  C   UNL     1       7.615   4.918  12.265  0.00  0.00    +0.000 A 
ATOM     18  N   UNL     1       6.704   4.190  12.965  0.00  0.00    +0.000 N 
ATOM     19  C   UNL     1       5.775   3.241  12.412  0.00  0.00    +0.000 C 
ENDBRANCH  13  14
ENDBRANCH  12  13
ENDBRANCH   5  12
ENDBRANCH   1   9
BRANCH   2  20
ATOM     20  C   UNL     1       1.332   9.506  19.309  0.00  0.00    +0.000 A 
ATOM     21  C   UNL     1       1.172  10.810  18.871  0.00  0.00    +0.000 A 
ATOM     22  C   UNL     1       0.522  11.729  19.690  0.00  0.00    +0.000 A 
ATOM     23  C   UNL     1      -0.049  11.282  20.899  0.00  0.00    +0.000 A 
ATOM     24  C   UNL     1       0.172   9.938  21.237  0.00  0.00    +0.000 A 
ATOM     25  N   UNL     1       0.874   9.044  20.498  0.00  0.00    +0.000 NA
BRANCH  22  26
ATOM     26  C   UNL     1       0.385  13.152  19.237  0.00  0.00    +0.000 C 
ATOM     27  O   UNL     1      -0.694  13.516  18.773  0.00  0.00    +0.000 OA
ATOM     28  N   UNL     1       1.450  14.043  19.366  0.00  0.00    +0.000 N 
ATOM     29  C   UNL     1       2.709  13.899  20.082  0.00  0.00    +0.000 C 
ATOM     30  C   UNL     1       3.084  15.315  20.474  0.00  0.00    +0.000 C 
ATOM     31  C   UNL     1       2.542  16.161  19.330  0.00  0.00    +0.000 C 
ATOM     32  C   UNL     1       1.350  15.376  18.791  0.00  0.00    +0.000 C 
ENDBRANCH  22  26
BRANCH  23  33
ATOM     33  N   UNL     1      -0.994  12.023  21.619  0.00  0.00    +0.000 N 
ATOM     34  H   UNL     1      -1.167  11.676  22.568  0.00  0.00    +0.000 HD
ATOM     35  H   UNL     1      -1.814  12.358  21.131  0.00  0.00    +0.000 HD
ENDBRANCH  23  33
ENDBRANCH   2  20
TORSDOF 7
ENDMDL
MODEL 4
REMARK VINA RESULT:      -9.2      1.393      1.574
REMARK  Name = 
REMARK  9 active torsions:
REMARK  status: ('A' for Active; 'I' for Inactive)
REMARK    1  A    between atoms: C_1  and  C_2
REMARK    2  A    between atoms: C_2  and  C_3
REMARK    3  A    between atoms: C_2  and  C_10
REMARK    4  A    between atoms: C_3  and  C_4
REMARK    5  A    between atoms: N_8  and  C_9
REMARK    6  A    between atoms: C_14  and  N_15
REMARK    7  A    between atoms: C_16  and  C_18
REMARK    8  A    between atoms: C_20  and  C_21
REMARK    9  A    between atoms: C_28  and  N_29
REMARK                            x       y       z     vdW  Elec       q    Type
REMARK                         _______ _______ _______ _____ _____    ______ ____
ROOT
ATOM      1  N   UNL     1       2.128   7.820  18.128  0.00  0.00    +0.000 N 
ATOM      2  C   UNL     1       1.691   8.535  19.226  0.00  0.00    +0.000 C 
ATOM      3  O   UNL     1       1.657   8.154  20.392  0.00  0.00    +0.000 OA
ATOM      4  H   UNL     1       2.004   8.292  17.235  0.00  0.00    +0.000 HD
ENDROOT
BRANCH   1   9
ATOM      5  C   UNL     1       4.772   5.286  17.508  0.00  0.00    +0.000 A 
ATOM      6  C   UNL     1       4.237   4.175  18.177  0.00  0.00    +0.000 A 
ATOM      7  C   UNL     1       2.991   4.251  18.793  0.00  0.00    +0.000 A 
ATOM      8  C   UNL     1       2.263   5.439  18.762  0.00  0.00    +0.000 A 
ATOM      9  C   UNL     1       2.784   6.574  18.137  0.00  0.00    +0.000 A 
ATOM     10  C   UNL     1       4.038   6.488  17.514  0.00  0.00    +0.000 A 
BRANCH   5  12
ATOM     11  C   UNL     1       7.237   4.673  17.760  0.00  0.00    +0.000 C 
ATOM     12  C   UNL     1       6.122   5.133  16.808  0.00  0.00    +0.000 C 
BRANCH  12  13
ATOM     13  C   UNL     1       5.991   4.213  15.573  0.00  0.00    +0.000 C 
BRANCH  13  14
ATOM     14  C   UNL     1       6.816   4.674  14.415  0.00  0.00    +0.000 A 
ATOM     15  N   UNL     1       7.804   5.549  14.447  0.00  0.00    +0.000 NA
ATOM     16  N   UNL     1       8.327   5.660  13.182  0.00  0.00    +0.000 NA
ATOM     17  C   UNL     1       7.633   4.872  12.396  0.00  0.00    +0.000 A 
ATOM     18  N   UNL     1       6.661   4.253  13.119  0.00  0.00    +0.000 N 
ATOM     19  C   UNL     1       5.663   3.357  12.599  0.00  0.00    +0.000 C 
ENDBRANCH  13  14
ENDBRANCH  12  13
ENDBRANCH   5  12
ENDBRANCH   1   9
BRANCH   2  20
ATOM     20  C   UNL     1       1.246   9.929  18.912  0.00  0.00    +0.000 A 
ATOM     21  C   UNL     1      -0.078  10.262  19.148  0.00  0.00    +0.000 A 
ATOM     22  C   UNL     1      -0.502  11.570  18.925  0.00  0.00    +0.000 A 
ATOM     23  C   UNL     1       0.452  12.543  18.566  0.00  0.00    +0.000 A 
ATOM     24  C   UNL     1       1.764  12.092  18.361  0.00  0.00    +0.000 A 
ATOM     25  N   UNL     1       2.185  10.809  18.488  0.00  0.00    +0.000 NA
BRANCH  22  26
ATOM     26  C   UNL     1      -1.943  11.923  19.138  0.00  0.00    +0.000 C 
ATOM     27  O   UNL     1      -2.234  12.635  20.098  0.00  0.00    +0.000 OA
ATOM     28  N   UNL     1      -2.922  11.475  18.251  0.00  0.00    +0.000 N 
ATOM     29  C   UNL     1      -2.784  10.834  16.951  0.00  0.00    +0.000 C 
ATOM     30  C   UNL     1      -4.035  11.240  16.196  0.00  0.00    +0.000 C 
ATOM     31  C   UNL     1      -5.096  11.340  17.283  0.00  0.00    +0.000 C 
ATOM     32  C   UNL     1      -4.327  11.704  18.551  0.00  0.00    +0.000 C 
ENDBRANCH  22  26
BRANCH  23  33
ATOM     33  N   UNL     1       0.206  13.920  18.646  0.00  0.00    +0.000 N 
ATOM     34  H   UNL     1      -0.210  14.323  17.801  0.00  0.00    +0.000 HD
ATOM     35  H   UNL     1       0.894  14.504  19.103  0.00  0.00    +0.000 HD
ENDBRANCH  23  33
ENDBRANCH   2  20
TORSDOF 7
ENDMDL
MODEL 5
REMARK VINA RESULT:      -9.0      2.058      2.586
REMARK  Name = 
REMARK  9 active torsions:
REMARK  status: ('A' for Active; 'I' for Inactive)
REMARK    1  A    between atoms: C_1  and  C_2
REMARK    2  A    between atoms: C_2  and  C_3
REMARK    3  A    between atoms: C_2  and  C_10
REMARK    4  A    between atoms: C_3  and  C_4
REMARK    5  A    between atoms: N_8  and  C_9
REMARK    6  A    between atoms: C_14  and  N_15
REMARK    7  A    between atoms: C_16  and  C_18
REMARK    8  A    between atoms: C_20  and  C_21
REMARK    9  A    between atoms: C_28  and  N_29
REMARK                            x       y       z     vdW  Elec       q    Type
REMARK                         _______ _______ _______ _____ _____    ______ ____
ROOT
ATOM      1  N   UNL     1       2.465   6.789  19.906  0.00  0.00    +0.000 N 
ATOM      2  C   UNL     1       1.952   7.963  19.392  0.00  0.00    +0.000 C 
ATOM      3  O   UNL     1       1.948   8.319  18.217  0.00  0.00    +0.000 OA
ATOM      4  H   UNL     1       2.434   6.719  20.921  0.00  0.00    +0.000 HD
ENDROOT
BRANCH   1   9
ATOM      5  C   UNL     1       4.669   4.761  17.709  0.00  0.00    +0.000 A 
ATOM      6  C   UNL     1       4.025   3.516  17.764  0.00  0.00    +0.000 A 
ATOM      7  C   UNL     1       2.847   3.358  18.489  0.00  0.00    +0.000 A 
ATOM      8  C   UNL     1       2.298   4.437  19.180  0.00  0.00    +0.000 A 
ATOM      9  C   UNL     1       2.934   5.679  19.176  0.00  0.00    +0.000 A 
ATOM     10  C   UNL     1       4.118   5.832  18.439  0.00  0.00    +0.000 A 
BRANCH   5  12
ATOM     11  C   UNL     1       7.203   4.474  17.617  0.00  0.00    +0.000 C 
ATOM     12  C   UNL     1       5.932   4.890  16.860  0.00  0.00    +0.000 C 
BRANCH  12  13
ATOM     13  C   UNL     1       5.770   4.125  15.527  0.00  0.00    +0.000 C 
BRANCH  13  14
ATOM     14  C   UNL     1       6.683   4.626  14.454  0.00  0.00    +0.000 A 
ATOM     15  N   UNL     1       7.634   5.531  14.586  0.00  0.00    +0.000 NA
ATOM     16  N   UNL     1       8.268   5.674  13.376  0.00  0.00    +0.000 NA
ATOM     17  C   UNL     1       7.677   4.873  12.523  0.00  0.00    +0.000 A 
ATOM     18  N   UNL     1       6.663   4.215  13.146  0.00  0.00    +0.000 N 
ATOM     19  C   UNL     1       5.748   3.293  12.528  0.00  0.00    +0.000 C 
ENDBRANCH  13  14
ENDBRANCH  12  13
ENDBRANCH   5  12
ENDBRANCH   1   9
BRANCH   2  20
ATOM     20  C   UNL     1       1.319   8.855  20.413  0.00  0.00    +0.000 A 
ATOM     21  C   UNL     1       0.647   9.983  19.972  0.00  0.00    +0.000 A 
ATOM     22  C   UNL     1      -0.006  10.794  20.896  0.00  0.00    +0.000 A 
ATOM     23  C   UNL     1      -0.053  10.388  22.245  0.00  0.00    +0.000 A 
ATOM     24  C   UNL     1       0.658   9.225  22.576  0.00  0.00    +0.000 A 
ATOM     25  N   UNL     1       1.372   8.464  21.710  0.00  0.00    +0.000 NA
BRANCH  22  26
ATOM     26  C   UNL     1      -0.697  12.039  20.426  0.00  0.00    +0.000 C 
ATOM     27  O   UNL     1      -1.926  12.054  20.414  0.00  0.00    +0.000 OA
ATOM     28  N   UNL     1       0.041  13.157  20.040  0.00  0.00    +0.000 N 
ATOM     29  C   UNL     1       1.462  13.439  20.191  0.00  0.00    +0.000 C 
ATOM     30  C   UNL     1       1.538  14.951  20.284  0.00  0.00    +0.000 C 
ATOM     31  C   UNL     1       0.396  15.424  19.395  0.00  0.00    +0.000 C 
ATOM     32  C   UNL     1      -0.637  14.302  19.452  0.00  0.00    +0.000 C 
ENDBRANCH  22  26
BRANCH  23  33
ATOM     33  N   UNL     1      -0.945  10.933  23.177  0.00  0.00    +0.000 N 
ATOM     34  H   UNL     1      -0.556  11.700  23.734  0.00  0.00    +0.000 HD
ATOM     35  H   UNL     1      -1.553  10.303  23.685  0.00  0.00    +0.000 HD
ENDBRANCH  23  33
ENDBRANCH   2  20
TORSDOF 7
ENDMDL
MODEL 6
REMARK VINA RESULT:      -9.0      2.924      9.781
REMARK  Name = 
REMARK  9 active torsions:
REMARK  status: ('A' for Active; 'I' for Inactive)
REMARK    1  A    between atoms: C_1  and  C_2
REMARK    2  A    between atoms: C_2  and  C_3
REMARK    3  A    between atoms: C_2  and  C_10
REMARK    4  A    between atoms: C_3  and  C_4
REMARK    5  A    between atoms: N_8  and  C_9
REMARK    6  A    between atoms: C_14  and  N_15
REMARK    7  A    between atoms: C_16  and  C_18
REMARK    8  A    between atoms: C_20  and  C_21
REMARK    9  A    between atoms: C_28  and  N_29
REMARK                            x       y       z     vdW  Elec       q    Type
REMARK                         _______ _______ _______ _____ _____    ______ ____
ROOT
ATOM      1  N   UNL     1       1.363   7.403  20.800  0.00  0.00    +0.000 N 
ATOM      2  C   UNL     1       2.176   7.278  19.691  0.00  0.00    +0.000 C 
ATOM      3  O   UNL     1       2.400   8.129  18.836  0.00  0.00    +0.000 OA
ATOM      4  H   UNL     1       1.254   6.552  21.346  0.00  0.00    +0.000 HD
ENDROOT
BRANCH   1   9
ATOM      5  C   UNL     1      -0.200  10.772  20.733  0.00  0.00    +0.000 A 
ATOM      6  C   UNL     1      -0.544  10.931  22.084  0.00  0.00    +0.000 A 
ATOM      7  C   UNL     1      -0.223   9.950  23.018  0.00  0.00    +0.000 A 
ATOM      8  C   UNL     1       0.435   8.789  22.618  0.00  0.00    +0.000 A 
ATOM      9  C   UNL     1       0.757   8.582  21.276  0.00  0.00    +0.000 A 
ATOM     10  C   UNL     1       0.436   9.578  20.341  0.00  0.00    +0.000 A 
BRANCH   5  12
ATOM     11  C   UNL     1      -1.411  12.993  20.392  0.00  0.00    +0.000 C 
ATOM     12  C   UNL     1      -0.533  11.901  19.759  0.00  0.00    +0.000 C 
BRANCH  12  13
ATOM     13  C   UNL     1       0.758  12.479  19.137  0.00  0.00    +0.000 C 
BRANCH  13  14
ATOM     14  C   UNL     1       1.496  13.388  20.067  0.00  0.00    +0.000 A 
ATOM     15  N   UNL     1       2.174  13.035  21.142  0.00  0.00    +0.000 NA
ATOM     16  N   UNL     1       2.736  14.163  21.690  0.00  0.00    +0.000 NA
ATOM     17  C   UNL     1       2.370  15.185  20.955  0.00  0.00    +0.000 A 
ATOM     18  N   UNL     1       1.572  14.751  19.941  0.00  0.00    +0.000 N 
ATOM     19  C   UNL     1       0.928  15.581  18.959  0.00  0.00    +0.000 C 
ENDBRANCH  13  14
ENDBRANCH  12  13
ENDBRANCH   5  12
ENDBRANCH   1   9
BRANCH   2  20
ATOM     20  C   UNL     1       2.858   5.950  19.578  0.00  0.00    +0.000 A 
ATOM     21  C   UNL     1       4.070   5.891  18.910  0.00  0.00    +0.000 A 
ATOM     22  C   UNL     1       4.756   4.682  18.846  0.00  0.00    +0.000 A 
ATOM     23  C   UNL     1       4.249   3.573  19.553  0.00  0.00    +0.000 A 
ATOM     24  C   UNL     1       3.017   3.750  20.200  0.00  0.00    +0.000 A 
ATOM     25  N   UNL     1       2.288   4.893  20.206  0.00  0.00    +0.000 NA
BRANCH  22  26
ATOM     26  C   UNL     1       6.047   4.605  18.087  0.00  0.00    +0.000 C 
ATOM     27  O   UNL     1       7.085   4.413  18.717  0.00  0.00    +0.000 OA
ATOM     28  N   UNL     1       6.060   4.723  16.697  0.00  0.00    +0.000 N 
ATOM     29  C   UNL     1       4.957   4.722  15.747  0.00  0.00    +0.000 C 
ATOM     30  C   UNL     1       5.558   4.159  14.473  0.00  0.00    +0.000 C 
ATOM     31  C   UNL     1       6.999   4.649  14.507  0.00  0.00    +0.000 C 
ATOM     32  C   UNL     1       7.330   4.792  15.991  0.00  0.00    +0.000 C 
ENDBRANCH  22  26
BRANCH  23  33
ATOM     33  N   UNL     1       5.011   2.431  19.833  0.00  0.00    +0.000 N 
ATOM     34  H   UNL     1       4.709   1.590  19.331  0.00  0.00    +0.000 HD
ATOM     35  H   UNL     1       5.307   2.275  20.787  0.00  0.00    +0.000 HD
ENDBRANCH  23  33
ENDBRANCH   2  20
TORSDOF 7
ENDMDL
MODEL 7
REMARK VINA RESULT:      -8.9      2.989     10.444
REMARK  Name = 
REMARK  9 active torsions:
REMARK  status: ('A' for Active; 'I' for Inactive)
REMARK    1  A    between atoms: C_1  and  C_2
REMARK    2  A    between atoms: C_2  and  C_3
REMARK    3  A    between atoms: C_2  and  C_10
REMARK    4  A    between atoms: C_3  and  C_4
REMARK    5  A    between atoms: N_8  and  C_9
REMARK    6  A    between atoms: C_14  and  N_15
REMARK    7  A    between atoms: C_16  and  C_18
REMARK    8  A    between atoms: C_20  and  C_21
REMARK    9  A    between atoms: C_28  and  N_29
REMARK                            x       y       z     vdW  Elec       q    Type
REMARK                         _______ _______ _______ _____ _____    ______ ____
ROOT
ATOM      1  N   UNL     1       0.702   9.122  18.208  0.00  0.00    +0.000 N 
ATOM      2  C   UNL     1       2.021   9.266  17.828  0.00  0.00    +0.000 C 
ATOM      3  O   UNL     1       2.605  10.312  17.559  0.00  0.00    +0.000 OA
ATOM      4  H   UNL     1       0.392   8.158  18.315  0.00  0.00    +0.000 HD
ENDROOT
BRANCH   1   9
ATOM      5  C   UNL     1      -2.349  11.236  18.060  0.00  0.00    +0.000 A 
ATOM      6  C   UNL     1      -2.129  12.095  19.148  0.00  0.00    +0.000 A 
ATOM      7  C   UNL     1      -0.961  12.003  19.899  0.00  0.00    +0.000 A 
ATOM      8  C   UNL     1       0.002  11.046  19.586  0.00  0.00    +0.000 A 
ATOM      9  C   UNL     1      -0.202  10.152  18.533  0.00  0.00    +0.000 A 
ATOM     10  C   UNL     1      -1.380  10.254  17.777  0.00  0.00    +0.000 A 
BRANCH   5  12
ATOM     11  C   UNL     1      -3.425  11.091  15.750  0.00  0.00    +0.000 C 
ATOM     12  C   UNL     1      -3.626  11.412  17.240  0.00  0.00    +0.000 C 
BRANCH  12  13
ATOM     13  C   UNL     1      -4.786  10.603  17.862  0.00  0.00    +0.000 C 
BRANCH  13  14
ATOM     14  C   UNL     1      -5.781  11.464  18.571  0.00  0.00    +0.000 A 
ATOM     15  N   UNL     1      -5.842  12.782  18.549  0.00  0.00    +0.000 NA
ATOM     16  N   UNL     1      -6.926  13.178  19.294  0.00  0.00    +0.000 NA
ATOM     17  C   UNL     1      -7.490  12.098  19.779  0.00  0.00    +0.000 A 
ATOM     18  N   UNL     1      -6.793  11.002  19.373  0.00  0.00    +0.000 N 
ATOM     19  C   UNL     1      -7.069   9.640  19.744  0.00  0.00    +0.000 C 
ENDBRANCH  13  14
ENDBRANCH  12  13
ENDBRANCH   5  12
ENDBRANCH   1   9
BRANCH   2  20
ATOM     20  C   UNL     1       2.789   7.982  17.780  0.00  0.00    +0.000 A 
ATOM     21  C   UNL     1       2.113   6.803  18.047  0.00  0.00    +0.000 A 
ATOM     22  C   UNL     1       2.790   5.591  17.946  0.00  0.00    +0.000 A 
ATOM     23  C   UNL     1       4.117   5.589  17.471  0.00  0.00    +0.000 A 
ATOM     24  C   UNL     1       4.698   6.841  17.226  0.00  0.00    +0.000 A 
ATOM     25  N   UNL     1       4.089   8.040  17.398  0.00  0.00    +0.000 NA
BRANCH  22  26
ATOM     26  C   UNL     1       2.072   4.317  18.277  0.00  0.00    +0.000 C 
ATOM     27  O   UNL     1       1.715   3.590  17.351  0.00  0.00    +0.000 OA
ATOM     28  N   UNL     1       1.843   3.956  19.605  0.00  0.00    +0.000 N 
ATOM     29  C   UNL     1       2.369   4.531  20.835  0.00  0.00    +0.000 C 
ATOM     30  C   UNL     1       2.389   3.372  21.813  0.00  0.00    +0.000 C 
ATOM     31  C   UNL     1       1.190   2.530  21.400  0.00  0.00    +0.000 C 
ATOM     32  C   UNL     1       1.021   2.794  19.905  0.00  0.00    +0.000 C 
ENDBRANCH  22  26
BRANCH  23  33
ATOM     33  N   UNL     1       4.765   4.433  17.018  0.00  0.00    +0.000 N 
ATOM     34  H   UNL     1       5.302   3.940  17.739  0.00  0.00    +0.000 HD
ATOM     35  H   UNL     1       5.197   4.453  16.103  0.00  0.00    +0.000 HD
ENDBRANCH  23  33
ENDBRANCH   2  20
TORSDOF 7
ENDMDL
MODEL 8
REMARK VINA RESULT:      -8.9      3.221      9.502
REMARK  Name = 
REMARK  9 active torsions:
REMARK  status: ('A' for Active; 'I' for Inactive)
REMARK    1  A    between atoms: C_1  and  C_2
REMARK    2  A    between atoms: C_2  and  C_3
REMARK    3  A    between atoms: C_2  and  C_10
REMARK    4  A    between atoms: C_3  and  C_4
REMARK    5  A    between atoms: N_8  and  C_9
REMARK    6  A    between atoms: C_14  and  N_15
REMARK    7  A    between atoms: C_16  and  C_18
REMARK    8  A    between atoms: C_20  and  C_21
REMARK    9  A    between atoms: C_28  and  N_29
REMARK                            x       y       z     vdW  Elec       q    Type
REMARK                         _______ _______ _______ _____ _____    ______ ____
ROOT
ATOM      1  N   UNL     1       2.040   7.195  20.763  0.00  0.00    +0.000 N 
ATOM      2  C   UNL     1       1.440   5.961  20.609  0.00  0.00    +0.000 C 
ATOM      3  O   UNL     1       0.246   5.698  20.720  0.00  0.00    +0.000 OA
ATOM      4  H   UNL     1       3.055   7.185  20.701  0.00  0.00    +0.000 HD
ENDROOT
BRANCH   1   9
ATOM      5  C   UNL     1       0.326  10.348  19.808  0.00  0.00    +0.000 A 
ATOM      6  C   UNL     1       0.007  10.870  21.071  0.00  0.00    +0.000 A 
ATOM      7  C   UNL     1       0.392  10.204  22.231  0.00  0.00    +0.000 A 
ATOM      8  C   UNL     1       1.093   9.002  22.151  0.00  0.00    +0.000 A 
ATOM      9  C   UNL     1       1.393   8.437  20.910  0.00  0.00    +0.000 A 
ATOM     10  C   UNL     1       1.005   9.117  19.745  0.00  0.00    +0.000 A 
BRANCH   5  12
ATOM     11  C   UNL     1      -1.366  10.614  17.915  0.00  0.00    +0.000 C 
ATOM     12  C   UNL     1      -0.080  11.145  18.569  0.00  0.00    +0.000 C 
BRANCH  12  13
ATOM     13  C   UNL     1      -0.171  12.652  18.899  0.00  0.00    +0.000 C 
BRANCH  13  14
ATOM     14  C   UNL     1       1.122  13.372  18.687  0.00  0.00    +0.000 A 
ATOM     15  N   UNL     1       2.257  12.849  18.264  0.00  0.00    +0.000 NA
ATOM     16  N   UNL     1       3.188  13.854  18.165  0.00  0.00    +0.000 NA
ATOM     17  C   UNL     1       2.612  14.966  18.555  0.00  0.00    +0.000 A 
ATOM     18  N   UNL     1       1.326  14.709  18.915  0.00  0.00    +0.000 N 
ATOM     19  C   UNL     1       0.391  15.663  19.448  0.00  0.00    +0.000 C 
ENDBRANCH  13  14
ENDBRANCH  12  13
ENDBRANCH   5  12
ENDBRANCH   1   9
BRANCH   2  20
ATOM     20  C   UNL     1       2.385   4.861  20.239  0.00  0.00    +0.000 A 
ATOM     21  C   UNL     1       3.604   5.205  19.679  0.00  0.00    +0.000 A 
ATOM     22  C   UNL     1       4.527   4.205  19.386  0.00  0.00    +0.000 A 
ATOM     23  C   UNL     1       4.238   2.879  19.765  0.00  0.00    +0.000 A 
ATOM     24  C   UNL     1       2.975   2.649  20.331  0.00  0.00    +0.000 A 
ATOM     25  N   UNL     1       2.025   3.591  20.549  0.00  0.00    +0.000 NA
BRANCH  22  26
ATOM     26  C   UNL     1       5.829   4.571  18.739  0.00  0.00    +0.000 C 
ATOM     27  O   UNL     1       6.800   4.788  19.462  0.00  0.00    +0.000 OA
ATOM     28  N   UNL     1       5.938   4.634  17.350  0.00  0.00    +0.000 N 
ATOM     29  C   UNL     1       5.008   4.201  16.317  0.00  0.00    +0.000 C 
ATOM     30  C   UNL     1       5.893   3.846  15.137  0.00  0.00    +0.000 C 
ATOM     31  C   UNL     1       7.055   4.823  15.253  0.00  0.00    +0.000 C 
ATOM     32  C   UNL     1       7.165   5.130  16.744  0.00  0.00    +0.000 C 
ENDBRANCH  22  26
BRANCH  23  33
ATOM     33  N   UNL     1       5.209   1.872  19.826  0.00  0.00    +0.000 N 
ATOM     34  H   UNL     1       5.514   1.524  18.912  0.00  0.00    +0.000 HD
ATOM     35  H   UNL     1       5.121   1.164  20.544  0.00  0.00    +0.000 HD
ENDBRANCH  23  33
ENDBRANCH   2  20
TORSDOF 7
ENDMDL
MODEL 9
REMARK VINA RESULT:      -8.9      2.578      3.757
REMARK  Name = 
REMARK  9 active torsions:
REMARK  status: ('A' for Active; 'I' for Inactive)
REMARK    1  A    between atoms: C_1  and  C_2
REMARK    2  A    between atoms: C_2  and  C_3
REMARK    3  A    between atoms: C_2  and  C_10
REMARK    4  A    between atoms: C_3  and  C_4
REMARK    5  A    between atoms: N_8  and  C_9
REMARK    6  A    between atoms: C_14  and  N_15
REMARK    7  A    between atoms: C_16  and  C_18
REMARK    8  A    between atoms: C_20  and  C_21
REMARK    9  A    between atoms: C_28  and  N_29
REMARK                            x       y       z     vdW  Elec       q    Type
REMARK                         _______ _______ _______ _____ _____    ______ ____
ROOT
ATOM      1  N   UNL     1       2.388   6.731  18.969  0.00  0.00    +0.000 N 
ATOM      2  C   UNL     1       2.105   8.000  18.504  0.00  0.00    +0.000 C 
ATOM      3  O   UNL     1       2.237   8.416  17.357  0.00  0.00    +0.000 OA
ATOM      4  H   UNL     1       2.278   6.611  19.973  0.00  0.00    +0.000 HD
ENDROOT
BRANCH   1   9
ATOM      5  C   UNL     1       4.377   4.504  16.760  0.00  0.00    +0.000 A 
ATOM      6  C   UNL     1       3.548   3.373  16.708  0.00  0.00    +0.000 A 
ATOM      7  C   UNL     1       2.321   3.363  17.365  0.00  0.00    +0.000 A 
ATOM      8  C   UNL     1       1.905   4.476  18.093  0.00  0.00    +0.000 A 
ATOM      9  C   UNL     1       2.722   5.602  18.195  0.00  0.00    +0.000 A 
ATOM     10  C   UNL     1       3.956   5.607  17.526  0.00  0.00    +0.000 A 
BRANCH   5  12
ATOM     11  C   UNL     1       5.489   4.210  14.481  0.00  0.00    +0.000 C 
ATOM     12  C   UNL     1       5.691   4.479  15.981  0.00  0.00    +0.000 C 
BRANCH  12  13
ATOM     13  C   UNL     1       6.500   5.770  16.239  0.00  0.00    +0.000 C 
BRANCH  13  14
ATOM     14  C   UNL     1       7.194   5.765  17.564  0.00  0.00    +0.000 A 
ATOM     15  N   UNL     1       7.380   4.726  18.354  0.00  0.00    +0.000 NA
ATOM     16  N   UNL     1       8.098   5.137  19.451  0.00  0.00    +0.000 NA
ATOM     17  C   UNL     1       8.314   6.424  19.322  0.00  0.00    +0.000 A 
ATOM     18  N   UNL     1       7.745   6.866  18.168  0.00  0.00    +0.000 N 
ATOM     19  C   UNL     1       7.720   8.228  17.706  0.00  0.00    +0.000 C 
ENDBRANCH  13  14
ENDBRANCH  12  13
ENDBRANCH   5  12
ENDBRANCH   1   9
BRANCH   2  20
ATOM     20  C   UNL     1       1.554   8.925  19.544  0.00  0.00    +0.000 A 
ATOM     21  C   UNL     1       1.011  10.129  19.128  0.00  0.00    +0.000 A 
ATOM     22  C   UNL     1       0.434  10.979  20.068  0.00  0.00    +0.000 A 
ATOM     23  C   UNL     1       0.325  10.543  21.404  0.00  0.00    +0.000 A 
ATOM     24  C   UNL     1       0.905   9.303  21.709  0.00  0.00    +0.000 A 
ATOM     25  N   UNL     1       1.548   8.495  20.829  0.00  0.00    +0.000 NA
BRANCH  22  26
ATOM     26  C   UNL     1      -0.116  12.302  19.626  0.00  0.00    +0.000 C 
ATOM     27  O   UNL     1      -1.337  12.428  19.543  0.00  0.00    +0.000 OA
ATOM     28  N   UNL     1       0.739  13.367  19.345  0.00  0.00    +0.000 N 
ATOM     29  C   UNL     1       2.166  13.513  19.593  0.00  0.00    +0.000 C 
ATOM     30  C   UNL     1       2.367  15.006  19.772  0.00  0.00    +0.000 C 
ATOM     31  C   UNL     1       1.328  15.622  18.845  0.00  0.00    +0.000 C 
ATOM     32  C   UNL     1       0.200  14.595  18.780  0.00  0.00    +0.000 C 
ENDBRANCH  22  26
BRANCH  23  33
ATOM     33  N   UNL     1      -0.518  11.153  22.341  0.00  0.00    +0.000 N 
ATOM     34  H   UNL     1      -1.154  10.507  22.820  0.00  0.00    +0.000 HD
ATOM     35  H   UNL     1      -0.918  12.053  22.111  0.00  0.00    +0.000 HD
ENDBRANCH  23  33
ENDBRANCH   2  20
TORSDOF 7
ENDMDL
