MODEL 1
REMARK VINA RESULT:      -8.6      0.000      0.000
REMARK  Name = 
REMARK  9 active torsions:
REMARK  status: ('A' for Active; 'I' for Inactive)
REMARK    1  A    between atoms: C_1  and  C_2
REMARK    2  A    between atoms: C_2  and  O_3
REMARK    3  A    between atoms: C_2  and  C_10
REMARK    4  A    between atoms: O_3  and  C_4
REMARK    5  A    between atoms: N_12  and  C_13
REMARK    6  A    between atoms: C_15  and  S_16
REMARK    7  A    between atoms: S_16  and  N_19
REMARK    8  A    between atoms: N_19  and  C_20
REMARK    9  A    between atoms: C_29  and  O_30
REMARK                            x       y       z     vdW  Elec       q    Type
REMARK                         _______ _______ _______ _____ _____    ______ ____
ROOT
ATOM      1  C   UNL     1       6.172   6.531  16.934  0.00  0.00    +0.000 A 
ATOM      2  C   UNL     1       5.024   6.326  17.704  0.00  0.00    +0.000 A 
ATOM      3  C   UNL     1       4.287   5.145  17.570  0.00  0.00    +0.000 A 
ATOM      4  C   UNL     1       4.644   4.189  16.616  0.00  0.00    +0.000 A 
ATOM      5  C   UNL     1       5.766   4.404  15.812  0.00  0.00    +0.000 A 
ATOM      6  C   UNL     1       6.523   5.567  15.978  0.00  0.00    +0.000 A 
ENDROOT
BRANCH   1   9
ATOM      7  C   UNL     1       7.992   7.802  18.048  0.00  0.00    +0.000 C 
ATOM      8  O   UNL     1       8.275   6.932  18.873  0.00  0.00    +0.000 OA
ATOM      9  N   UNL     1       7.006   7.665  17.086  0.00  0.00    +0.000 N 
ATOM     10  H   UNL     1       7.019   8.319  16.305  0.00  0.00    +0.000 HD
BRANCH   7  12
ATOM     11  C   UNL     1       7.676  10.234  17.641  0.00  0.00    +0.000 C 
ATOM     12  C   UNL     1       8.696   9.175  18.078  0.00  0.00    +0.000 C 
BRANCH  12  13
ATOM     13  O   UNL     1       9.209   9.482  19.374  0.00  0.00    +0.000 OA
BRANCH  13  14
ATOM     14  C   UNL     1       9.822  10.693  19.571  0.00  0.00    +0.000 A 
ATOM     15  C   UNL     1      10.756  11.299  18.728  0.00  0.00    +0.000 A 
ATOM     16  C   UNL     1      11.309  12.543  19.060  0.00  0.00    +0.000 A 
ATOM     17  C   UNL     1      10.932  13.189  20.233  0.00  0.00    +0.000 A 
ATOM     18  C   UNL     1      10.003  12.593  21.080  0.00  0.00    +0.000 A 
ATOM     19  C   UNL     1       9.455  11.351  20.749  0.00  0.00    +0.000 A 
ENDBRANCH  13  14
ENDBRANCH  12  13
ENDBRANCH   7  12
ENDBRANCH   1   9
BRANCH   3  20
ATOM     20  S   UNL     1       2.859   4.892  18.602  0.00  0.00    +0.000 S 
ATOM     21  O   UNL     1       1.688   5.264  17.833  0.00  0.00    +0.000 OA
ATOM     22  O   UNL     1       2.973   3.581  19.196  0.00  0.00    +0.000 OA
BRANCH  20  23
ATOM     23  N   UNL     1       3.026   6.051  19.802  0.00  0.00    +0.000 N 
ATOM     24  H   UNL     1       3.473   5.742  20.663  0.00  0.00    +0.000 HD
BRANCH  23  25
ATOM     25  C   UNL     1       2.253   7.235  19.790  0.00  0.00    +0.000 A 
ATOM     26  C   UNL     1       2.240   8.051  18.658  0.00  0.00    +0.000 A 
ATOM     27  C   UNL     1       1.447   9.201  18.637  0.00  0.00    +0.000 A 
ATOM     28  C   UNL     1       0.652   9.518  19.740  0.00  0.00    +0.000 A 
ATOM     29  C   UNL     1       0.663   8.692  20.863  0.00  0.00    +0.000 A 
ATOM     30 CL   UNL     1      -0.343   9.072  22.207  0.00  0.00    +0.000 Cl
ATOM     31  C   UNL     1       1.468   7.554  20.898  0.00  0.00    +0.000 A 
ENDBRANCH  23  25
ENDBRANCH  20  23
ENDBRANCH   3  20
BRANCH   6  32
ATOM     32  O   UNL     1       7.650   5.769  15.225  0.00  0.00    +0.000 OA
ATOM     33  H   UNL     1       8.428   5.655  15.797  0.00  0.00    +0.000 HD
ENDBRANCH   6  32
TORSDOF 8
ENDMDL
MODEL 2
REMARK VINA RESULT:      -8.3      5.040      7.405
REMARK  Name = 
REMARK  9 active torsions:
REMARK  status: ('A' for Active; 'I' for Inactive)
REMARK    1  A    between atoms: C_1  and  C_2
REMARK    2  A    between atoms: C_2  and  O_3
REMARK    3  A    between atoms: C_2  and  C_10
REMARK    4  A    between atoms: O_3  and  C_4
REMARK    5  A    between atoms: N_12  and  C_13
REMARK    6  A    between atoms: C_15  and  S_16
REMARK    7  A    between atoms: S_16  and  N_19
REMARK    8  A    between atoms: N_19  and  C_20
REMARK    9  A    between atoms: C_29  and  O_30
REMARK                            x       y       z     vdW  Elec       q    Type
REMARK                         _______ _______ _______ _____ _____    ______ ____
ROOT
ATOM      1  C   UNL     1       2.323   7.366  19.607  0.00  0.00    +0.000 A 
ATOM      2  C   UNL     1       1.582   8.302  20.335  0.00  0.00    +0.000 A 
ATOM      3  C   UNL     1       1.130   9.474  19.721  0.00  0.00    +0.000 A 
ATOM      4  C   UNL     1       1.475   9.763  18.398  0.00  0.00    +0.000 A 
ATOM      5  C   UNL     1       2.252   8.854  17.676  0.00  0.00    +0.000 A 
ATOM      6  C   UNL     1       2.666   7.664  18.280  0.00  0.00    +0.000 A 
ENDROOT
BRANCH   1   9
ATOM      7  C   UNL     1       2.167   4.899  19.839  0.00  0.00    +0.000 C 
ATOM      8  O   UNL     1       1.250   4.747  19.031  0.00  0.00    +0.000 OA
ATOM      9  N   UNL     1       2.732   6.123  20.148  0.00  0.00    +0.000 N 
ATOM     10  H   UNL     1       3.634   6.117  20.623  0.00  0.00    +0.000 HD
BRANCH   7  12
ATOM     11  C   UNL     1       1.523   2.938  21.226  0.00  0.00    +0.000 C 
ATOM     12  C   UNL     1       2.718   3.699  20.639  0.00  0.00    +0.000 C 
BRANCH  12  13
ATOM     13  O   UNL     1       3.509   2.834  19.824  0.00  0.00    +0.000 OA
BRANCH  13  14
ATOM     14  C   UNL     1       4.361   3.390  18.905  0.00  0.00    +0.000 A 
ATOM     15  C   UNL     1       5.491   4.163  19.181  0.00  0.00    +0.000 A 
ATOM     16  C   UNL     1       6.271   4.677  18.136  0.00  0.00    +0.000 A 
ATOM     17  C   UNL     1       5.928   4.421  16.812  0.00  0.00    +0.000 A 
ATOM     18  C   UNL     1       4.805   3.653  16.527  0.00  0.00    +0.000 A 
ATOM     19  C   UNL     1       4.026   3.143  17.570  0.00  0.00    +0.000 A 
ENDBRANCH  13  14
ENDBRANCH  12  13
ENDBRANCH   7  12
ENDBRANCH   1   9
BRANCH   3  20
ATOM     20  S   UNL     1       0.146  10.621  20.662  0.00  0.00    +0.000 S 
ATOM     21  O   UNL     1      -1.003   9.901  21.173  0.00  0.00    +0.000 OA
ATOM     22  O   UNL     1       1.033  11.334  21.551  0.00  0.00    +0.000 OA
BRANCH  20  23
ATOM     23  N   UNL     1      -0.437  11.686  19.505  0.00  0.00    +0.000 N 
ATOM     24  H   UNL     1       0.001  12.605  19.482  0.00  0.00    +0.000 HD
BRANCH  23  25
ATOM     25  C   UNL     1      -1.695  11.484  18.891  0.00  0.00    +0.000 A 
ATOM     26  C   UNL     1      -2.838  12.083  19.421  0.00  0.00    +0.000 A 
ATOM     27  C   UNL     1      -4.072  11.908  18.792  0.00  0.00    +0.000 A 
ATOM     28  C   UNL     1      -4.155  11.154  17.620  0.00  0.00    +0.000 A 
ATOM     29  C   UNL     1      -3.006  10.567  17.091  0.00  0.00    +0.000 A 
ATOM     30 CL   UNL     1      -3.110   9.664  15.629  0.00  0.00    +0.000 Cl
ATOM     31  C   UNL     1      -1.775  10.720  17.727  0.00  0.00    +0.000 A 
ENDBRANCH  23  25
ENDBRANCH  20  23
ENDBRANCH   3  20
BRANCH   6  32
ATOM     32  O   UNL     1       3.391   6.744  17.568  0.00  0.00    +0.000 OA
ATOM     33  H   UNL     1       2.842   6.420  16.834  0.00  0.00    +0.000 HD
ENDBRANCH   6  32
TORSDOF 8
ENDMDL
MODEL 3
REMARK VINA RESULT:      -8.3      5.048      7.326
REMARK  Name = 
REMARK  9 active torsions:
REMARK  status: ('A' for Active; 'I' for Inactive)
REMARK    1  A    between atoms: C_1  and  C_2
REMARK    2  A    between atoms: C_2  and  O_3
REMARK    3  A    between atoms: C_2  and  C_10
REMARK    4  A    between atoms: O_3  and  C_4
REMARK    5  A    between atoms: N_12  and  C_13
REMARK    6  A    between atoms: C_15  and  S_16
REMARK    7  A    between atoms: S_16  and  N_19
REMARK    8  A    between atoms: N_19  and  C_20
REMARK    9  A    between atoms: C_29  and  O_30
REMARK                            x       y       z     vdW  Elec       q    Type
REMARK                         _______ _______ _______ _____ _____    ______ ____
ROOT
ATOM      1  C   UNL     1       2.399   7.301  19.558  0.00  0.00    +0.000 A 
ATOM      2  C   UNL     1       1.629   8.206  20.296  0.00  0.00    +0.000 A 
ATOM      3  C   UNL     1       1.147   9.374  19.696  0.00  0.00    +0.000 A 
ATOM      4  C   UNL     1       1.490   9.690  18.380  0.00  0.00    +0.000 A 
ATOM      5  C   UNL     1       2.295   8.814  17.648  0.00  0.00    +0.000 A 
ATOM      6  C   UNL     1       2.739   7.628  18.238  0.00  0.00    +0.000 A 
ENDROOT
BRANCH   1   9
ATOM      7  C   UNL     1       2.185   4.855  19.923  0.00  0.00    +0.000 C 
ATOM      8  O   UNL     1       1.146   4.714  19.277  0.00  0.00    +0.000 OA
ATOM      9  N   UNL     1       2.840   6.063  20.083  0.00  0.00    +0.000 N 
ATOM     10  H   UNL     1       3.805   6.033  20.410  0.00  0.00    +0.000 HD
BRANCH   7  12
ATOM     11  C   UNL     1       1.682   2.940  21.427  0.00  0.00    +0.000 C 
ATOM     12  C   UNL     1       2.809   3.663  20.680  0.00  0.00    +0.000 C 
BRANCH  12  13
ATOM     13  O   UNL     1       3.479   2.763  19.796  0.00  0.00    +0.000 OA
BRANCH  13  14
ATOM     14  C   UNL     1       4.241   3.281  18.781  0.00  0.00    +0.000 A 
ATOM     15  C   UNL     1       3.997   3.157  17.412  0.00  0.00    +0.000 A 
ATOM     16  C   UNL     1       4.870   3.735  16.480  0.00  0.00    +0.000 A 
ATOM     17  C   UNL     1       5.989   4.441  16.910  0.00  0.00    +0.000 A 
ATOM     18  C   UNL     1       6.242   4.569  18.271  0.00  0.00    +0.000 A 
ATOM     19  C   UNL     1       5.372   3.989  19.200  0.00  0.00    +0.000 A 
ENDBRANCH  13  14
ENDBRANCH  12  13
ENDBRANCH   7  12
ENDBRANCH   1   9
BRANCH   3  20
ATOM     20  S   UNL     1       0.127  10.480  20.648  0.00  0.00    +0.000 S 
ATOM     21  O   UNL     1      -0.979   9.711  21.181  0.00  0.00    +0.000 OA
ATOM     22  O   UNL     1       0.996  11.236  21.520  0.00  0.00    +0.000 OA
BRANCH  20  23
ATOM     23  N   UNL     1      -0.522  11.511  19.497  0.00  0.00    +0.000 N 
ATOM     24  H   UNL     1      -0.122  12.447  19.459  0.00  0.00    +0.000 HD
BRANCH  23  25
ATOM     25  C   UNL     1      -1.783  11.254  18.912  0.00  0.00    +0.000 A 
ATOM     26  C   UNL     1      -1.939  10.190  18.023  0.00  0.00    +0.000 A 
ATOM     27  C   UNL     1      -3.194   9.917  17.474  0.00  0.00    +0.000 A 
ATOM     28  C   UNL     1      -4.295  10.697  17.835  0.00  0.00    +0.000 A 
ATOM     29  C   UNL     1      -4.133  11.752  18.732  0.00  0.00    +0.000 A 
ATOM     30 CL   UNL     1      -5.500  12.688  19.198  0.00  0.00    +0.000 Cl
ATOM     31  C   UNL     1      -2.878  12.041  19.267  0.00  0.00    +0.000 A 
ENDBRANCH  23  25
ENDBRANCH  20  23
ENDBRANCH   3  20
BRANCH   6  32
ATOM     32  O   UNL     1       3.493   6.739  17.516  0.00  0.00    +0.000 OA
ATOM     33  H   UNL     1       3.549   5.905  18.014  0.00  0.00    +0.000 HD
ENDBRANCH   6  32
TORSDOF 8
ENDMDL
MODEL 4
REMARK VINA RESULT:      -8.2      1.579      2.136
REMARK  Name = 
REMARK  9 active torsions:
REMARK  status: ('A' for Active; 'I' for Inactive)
REMARK    1  A    between atoms: C_1  and  C_2
REMARK    2  A    between atoms: C_2  and  O_3
REMARK    3  A    between atoms: C_2  and  C_10
REMARK    4  A    between atoms: O_3  and  C_4
REMARK    5  A    between atoms: N_12  and  C_13
REMARK    6  A    between atoms: C_15  and  S_16
REMARK    7  A    between atoms: S_16  and  N_19
REMARK    8  A    between atoms: N_19  and  C_20
REMARK    9  A    between atoms: C_29  and  O_30
REMARK                            x       y       z     vdW  Elec       q    Type
REMARK                         _______ _______ _______ _____ _____    ______ ____
ROOT
ATOM      1  C   UNL     1       6.578   5.808  16.522  0.00  0.00    +0.000 A 
ATOM      2  C   UNL     1       5.637   5.260  17.398  0.00  0.00    +0.000 A 
ATOM      3  C   UNL     1       5.098   3.993  17.150  0.00  0.00    +0.000 A 
ATOM      4  C   UNL     1       5.435   3.292  15.989  0.00  0.00    +0.000 A 
ATOM      5  C   UNL     1       6.342   3.851  15.086  0.00  0.00    +0.000 A 
ATOM      6  C   UNL     1       6.909   5.099  15.359  0.00  0.00    +0.000 A 
ENDROOT
BRANCH   1   9
ATOM      7  C   UNL     1       7.926   7.361  17.914  0.00  0.00    +0.000 C 
ATOM      8  O   UNL     1       8.095   6.584  18.855  0.00  0.00    +0.000 OA
ATOM      9  N   UNL     1       7.222   7.045  16.765  0.00  0.00    +0.000 N 
ATOM     10  H   UNL     1       7.352   7.649  15.955  0.00  0.00    +0.000 HD
BRANCH   7  12
ATOM     11  C   UNL     1       7.316   9.742  17.536  0.00  0.00    +0.000 C 
ATOM     12  C   UNL     1       8.448   8.812  17.988  0.00  0.00    +0.000 C 
BRANCH  12  13
ATOM     13  O   UNL     1       8.882   9.156  19.304  0.00  0.00    +0.000 OA
BRANCH  13  14
ATOM     14  C   UNL     1       9.493  10.367  19.501  0.00  0.00    +0.000 A 
ATOM     15  C   UNL     1       9.467  11.131  20.670  0.00  0.00    +0.000 A 
ATOM     16  C   UNL     1      10.135  12.362  20.729  0.00  0.00    +0.000 A 
ATOM     17  C   UNL     1      10.833  12.835  19.622  0.00  0.00    +0.000 A 
ATOM     18  C   UNL     1      10.865  12.083  18.454  0.00  0.00    +0.000 A 
ATOM     19  C   UNL     1      10.195  10.857  18.396  0.00  0.00    +0.000 A 
ENDBRANCH  13  14
ENDBRANCH  12  13
ENDBRANCH   7  12
ENDBRANCH   1   9
BRANCH   3  20
ATOM     20  S   UNL     1       3.940   3.301  18.312  0.00  0.00    +0.000 S 
ATOM     21  O   UNL     1       3.669   1.937  17.905  0.00  0.00    +0.000 OA
ATOM     22  O   UNL     1       4.421   3.599  19.640  0.00  0.00    +0.000 OA
BRANCH  20  23
ATOM     23  N   UNL     1       2.532   4.168  18.034  0.00  0.00    +0.000 N 
ATOM     24  H   UNL     1       2.036   3.950  17.172  0.00  0.00    +0.000 HD
BRANCH  23  25
ATOM     25  C   UNL     1       2.272   5.378  18.717  0.00  0.00    +0.000 A 
ATOM     26  C   UNL     1       1.944   5.360  20.073  0.00  0.00    +0.000 A 
ATOM     27  C   UNL     1       1.721   6.560  20.752  0.00  0.00    +0.000 A 
ATOM     28  C   UNL     1       1.850   7.776  20.078  0.00  0.00    +0.000 A 
ATOM     29  C   UNL     1       2.188   7.785  18.725  0.00  0.00    +0.000 A 
ATOM     30 CL   UNL     1       2.377   9.288  17.907  0.00  0.00    +0.000 Cl
ATOM     31  C   UNL     1       2.391   6.590  18.037  0.00  0.00    +0.000 A 
ENDBRANCH  23  25
ENDBRANCH  20  23
ENDBRANCH   3  20
BRANCH   6  32
ATOM     32  O   UNL     1       7.834   5.638  14.503  0.00  0.00    +0.000 OA
ATOM     33  H   UNL     1       8.267   6.387  14.947  0.00  0.00    +0.000 HD
ENDBRANCH   6  32
TORSDOF 8
ENDMDL
MODEL 5
REMARK VINA RESULT:      -8.2      3.545      6.279
REMARK  Name = 
REMARK  9 active torsions:
REMARK  status: ('A' for Active; 'I' for Inactive)
REMARK    1  A    between atoms: C_1  and  C_2
REMARK    2  A    between atoms: C_2  and  O_3
REMARK    3  A    between atoms: C_2  and  C_10
REMARK    4  A    between atoms: O_3  and  C_4
REMARK    5  A    between atoms: N_12  and  C_13
REMARK    6  A    between atoms: C_15  and  S_16
REMARK    7  A    between atoms: S_16  and  N_19
REMARK    8  A    between atoms: N_19  and  C_20
REMARK    9  A    between atoms: C_29  and  O_30
REMARK                            x       y       z     vdW  Elec       q    Type
REMARK                         _______ _______ _______ _____ _____    ______ ____
ROOT
ATOM      1  C   UNL     1       3.248   6.266  18.763  0.00  0.00    +0.000 A 
ATOM      2  C   UNL     1       2.608   7.355  19.361  0.00  0.00    +0.000 A 
ATOM      3  C   UNL     1       1.665   7.150  20.373  0.00  0.00    +0.000 A 
ATOM      4  C   UNL     1       1.294   5.856  20.747  0.00  0.00    +0.000 A 
ATOM      5  C   UNL     1       1.897   4.760  20.124  0.00  0.00    +0.000 A 
ATOM      6  C   UNL     1       2.869   4.971  19.143  0.00  0.00    +0.000 A 
ENDROOT
BRANCH   1   9
ATOM      7  C   UNL     1       5.599   6.069  17.988  0.00  0.00    +0.000 C 
ATOM      8  O   UNL     1       6.038   5.564  19.023  0.00  0.00    +0.000 OA
ATOM      9  N   UNL     1       4.273   6.414  17.797  0.00  0.00    +0.000 N 
ATOM     10  H   UNL     1       3.966   6.582  16.840  0.00  0.00    +0.000 HD
BRANCH   7  12
ATOM     11  C   UNL     1       7.554   7.459  17.335  0.00  0.00    +0.000 C 
ATOM     12  C   UNL     1       6.546   6.424  16.822  0.00  0.00    +0.000 C 
BRANCH  12  13
ATOM     13  O   UNL     1       7.226   5.273  16.319  0.00  0.00    +0.000 OA
BRANCH  13  14
ATOM     14  C   UNL     1       6.919   4.825  15.060  0.00  0.00    +0.000 A 
ATOM     15  C   UNL     1       5.862   3.980  14.713  0.00  0.00    +0.000 A 
ATOM     16  C   UNL     1       5.670   3.594  13.379  0.00  0.00    +0.000 A 
ATOM     17  C   UNL     1       6.531   4.050  12.386  0.00  0.00    +0.000 A 
ATOM     18  C   UNL     1       7.586   4.891  12.721  0.00  0.00    +0.000 A 
ATOM     19  C   UNL     1       7.778   5.272  14.052  0.00  0.00    +0.000 A 
ENDBRANCH  13  14
ENDBRANCH  12  13
ENDBRANCH   7  12
ENDBRANCH   1   9
BRANCH   3  20
ATOM     20  S   UNL     1       0.906   8.560  21.150  0.00  0.00    +0.000 S 
ATOM     21  O   UNL     1      -0.499   8.258  21.337  0.00  0.00    +0.000 OA
ATOM     22  O   UNL     1       1.738   8.947  22.265  0.00  0.00    +0.000 OA
BRANCH  20  23
ATOM     23  N   UNL     1       0.983   9.751  19.973  0.00  0.00    +0.000 N 
ATOM     24  H   UNL     1       1.878  10.226  19.875  0.00  0.00    +0.000 HD
BRANCH  23  25
ATOM     25  C   UNL     1      -0.192  10.335  19.445  0.00  0.00    +0.000 A 
ATOM     26  C   UNL     1      -0.786  11.420  20.090  0.00  0.00    +0.000 A 
ATOM     27  C   UNL     1      -1.926  12.016  19.546  0.00  0.00    +0.000 A 
ATOM     28  C   UNL     1      -2.455  11.539  18.345  0.00  0.00    +0.000 A 
ATOM     29  C   UNL     1      -1.849  10.460  17.701  0.00  0.00    +0.000 A 
ATOM     30 CL   UNL     1      -2.487   9.897  16.205  0.00  0.00    +0.000 Cl
ATOM     31  C   UNL     1      -0.723   9.848  18.250  0.00  0.00    +0.000 A 
ENDBRANCH  23  25
ENDBRANCH  20  23
ENDBRANCH   3  20
BRANCH   6  32
ATOM     32  O   UNL     1       3.500   3.904  18.556  0.00  0.00    +0.000 OA
ATOM     33  H   UNL     1       4.459   4.065  18.572  0.00  0.00    +0.000 HD
ENDBRANCH   6  32
TORSDOF 8
ENDMDL
MODEL 6
REMARK VINA RESULT:      -8.1      4.706      7.211
REMARK  Name = 
REMARK  9 active torsions:
REMARK  status: ('A' for Active; 'I' for Inactive)
REMARK    1  A    between atoms: C_1  and  C_2
REMARK    2  A    between atoms: C_2  and  O_3
REMARK    3  A    between atoms: C_2  and  C_10
REMARK    4  A    between atoms: O_3  and  C_4
REMARK    5  A    between atoms: N_12  and  C_13
REMARK    6  A    between atoms: C_15  and  S_16
REMARK    7  A    between atoms: S_16  and  N_19
REMARK    8  A    between atoms: N_19  and  C_20
REMARK    9  A    between atoms: C_29  and  O_30
REMARK                            x       y       z     vdW  Elec       q    Type
REMARK                         _______ _______ _______ _____ _____    ______ ____
ROOT
ATOM      1  C   UNL     1       2.416   7.409  19.640  0.00  0.00    +0.000 A 
ATOM      2  C   UNL     1       1.698   7.886  20.741  0.00  0.00    +0.000 A 
ATOM      3  C   UNL     1       0.902   9.030  20.621  0.00  0.00    +0.000 A 
ATOM      4  C   UNL     1       0.873   9.753  19.427  0.00  0.00    +0.000 A 
ATOM      5  C   UNL     1       1.621   9.309  18.334  0.00  0.00    +0.000 A 
ATOM      6  C   UNL     1       2.382   8.142  18.445  0.00  0.00    +0.000 A 
ENDROOT
BRANCH   1   9
ATOM      7  C   UNL     1       2.646   4.941  19.495  0.00  0.00    +0.000 C 
ATOM      8  O   UNL     1       1.460   4.711  19.257  0.00  0.00    +0.000 OA
ATOM      9  N   UNL     1       3.168   6.210  19.675  0.00  0.00    +0.000 N 
ATOM     10  H   UNL     1       4.180   6.314  19.613  0.00  0.00    +0.000 HD
BRANCH   7  12
ATOM     11  C   UNL     1       3.001   2.745  20.606  0.00  0.00    +0.000 C 
ATOM     12  C   UNL     1       3.650   3.784  19.684  0.00  0.00    +0.000 C 
BRANCH  12  13
ATOM     13  O   UNL     1       4.016   3.187  18.439  0.00  0.00    +0.000 OA
BRANCH  13  14
ATOM     14  C   UNL     1       4.941   3.821  17.651  0.00  0.00    +0.000 A 
ATOM     15  C   UNL     1       4.939   3.887  16.256  0.00  0.00    +0.000 A 
ATOM     16  C   UNL     1       5.959   4.567  15.576  0.00  0.00    +0.000 A 
ATOM     17  C   UNL     1       6.984   5.185  16.285  0.00  0.00    +0.000 A 
ATOM     18  C   UNL     1       6.996   5.125  17.674  0.00  0.00    +0.000 A 
ATOM     19  C   UNL     1       5.979   4.443  18.351  0.00  0.00    +0.000 A 
ENDBRANCH  13  14
ENDBRANCH  12  13
ENDBRANCH   7  12
ENDBRANCH   1   9
BRANCH   3  20
ATOM     20  S   UNL     1      -0.040   9.581  22.028  0.00  0.00    +0.000 S 
ATOM     21  O   UNL     1      -1.047   8.578  22.305  0.00  0.00    +0.000 OA
ATOM     22  O   UNL     1       0.897   9.997  23.046  0.00  0.00    +0.000 OA
BRANCH  20  23
ATOM     23  N   UNL     1      -0.856  10.929  21.455  0.00  0.00    +0.000 N 
ATOM     24  H   UNL     1      -0.755  11.124  20.461  0.00  0.00    +0.000 HD
BRANCH  23  25
ATOM     25  C   UNL     1      -1.308  11.940  22.335  0.00  0.00    +0.000 A 
ATOM     26  C   UNL     1      -0.597  13.135  22.452  0.00  0.00    +0.000 A 
ATOM     27  C   UNL     1      -1.066  14.144  23.296  0.00  0.00    +0.000 A 
ATOM     28  C   UNL     1      -2.257  13.964  24.002  0.00  0.00    +0.000 A 
ATOM     29  C   UNL     1      -2.966  12.770  23.872  0.00  0.00    +0.000 A 
ATOM     30 CL   UNL     1      -4.449  12.566  24.721  0.00  0.00    +0.000 Cl
ATOM     31  C   UNL     1      -2.492  11.750  23.047  0.00  0.00    +0.000 A 
ENDBRANCH  23  25
ENDBRANCH  20  23
ENDBRANCH   3  20
BRANCH   6  32
ATOM     32  O   UNL     1       3.085   7.672  17.366  0.00  0.00    +0.000 OA
ATOM     33  H   UNL     1       2.460   7.499  16.642  0.00  0.00    +0.000 HD
ENDBRANCH   6  32
TORSDOF 8
ENDMDL
MODEL 7
REMARK VINA RESULT:      -8.1      3.604      6.226
REMARK  Name = 
REMARK  9 active torsions:
REMARK  status: ('A' for Active; 'I' for Inactive)
REMARK    1  A    between atoms: C_1  and  C_2
REMARK    2  A    between atoms: C_2  and  O_3
REMARK    3  A    between atoms: C_2  and  C_10
REMARK    4  A    between atoms: O_3  and  C_4
REMARK    5  A    between atoms: N_12  and  C_13
REMARK    6  A    between atoms: C_15  and  S_16
REMARK    7  A    between atoms: S_16  and  N_19
REMARK    8  A    between atoms: N_19  and  C_20
REMARK    9  A    between atoms: C_29  and  O_30
REMARK                            x       y       z     vdW  Elec       q    Type
REMARK                         _______ _______ _______ _____ _____    ______ ____
ROOT
ATOM      1  C   UNL     1       3.145   6.154  18.809  0.00  0.00    +0.000 A 
ATOM      2  C   UNL     1       2.547   7.284  19.373  0.00  0.00    +0.000 A 
ATOM      3  C   UNL     1       1.630   7.147  20.421  0.00  0.00    +0.000 A 
ATOM      4  C   UNL     1       1.243   5.881  20.866  0.00  0.00    +0.000 A 
ATOM      5  C   UNL     1       1.803   4.744  20.278  0.00  0.00    +0.000 A 
ATOM      6  C   UNL     1       2.750   4.886  19.261  0.00  0.00    +0.000 A 
ENDROOT
BRANCH   1   9
ATOM      7  C   UNL     1       5.479   5.923  17.993  0.00  0.00    +0.000 C 
ATOM      8  O   UNL     1       5.951   5.514  19.055  0.00  0.00    +0.000 OA
ATOM      9  N   UNL     1       4.143   6.233  17.808  0.00  0.00    +0.000 N 
ATOM     10  H   UNL     1       3.810   6.315  16.849  0.00  0.00    +0.000 HD
BRANCH   7  12
ATOM     11  C   UNL     1       7.483   7.173  17.218  0.00  0.00    +0.000 C 
ATOM     12  C   UNL     1       6.391   6.191  16.777  0.00  0.00    +0.000 C 
BRANCH  12  13
ATOM     13  O   UNL     1       6.975   4.988  16.274  0.00  0.00    +0.000 OA
BRANCH  13  14
ATOM     14  C   UNL     1       6.968   4.768  14.921  0.00  0.00    +0.000 A 
ATOM     15  C   UNL     1       7.797   5.376  13.976  0.00  0.00    +0.000 A 
ATOM     16  C   UNL     1       7.674   5.059  12.616  0.00  0.00    +0.000 A 
ATOM     17  C   UNL     1       6.725   4.134  12.193  0.00  0.00    +0.000 A 
ATOM     18  C   UNL     1       5.894   3.524  13.127  0.00  0.00    +0.000 A 
ATOM     19  C   UNL     1       6.015   3.843  14.482  0.00  0.00    +0.000 A 
ENDBRANCH  13  14
ENDBRANCH  12  13
ENDBRANCH   7  12
ENDBRANCH   1   9
BRANCH   3  20
ATOM     20  S   UNL     1       0.925   8.609  21.152  0.00  0.00    +0.000 S 
ATOM     21  O   UNL     1      -0.488   8.363  21.355  0.00  0.00    +0.000 OA
ATOM     22  O   UNL     1       1.776   9.004  22.250  0.00  0.00    +0.000 OA
BRANCH  20  23
ATOM     23  N   UNL     1       1.038   9.756  19.935  0.00  0.00    +0.000 N 
ATOM     24  H   UNL     1       1.934  10.232  19.850  0.00  0.00    +0.000 HD
BRANCH  23  25
ATOM     25  C   UNL     1      -0.121  10.314  19.345  0.00  0.00    +0.000 A 
ATOM     26  C   UNL     1      -0.582   9.834  18.118  0.00  0.00    +0.000 A 
ATOM     27  C   UNL     1      -1.746  10.363  17.556  0.00  0.00    +0.000 A 
ATOM     28  C   UNL     1      -2.457  11.355  18.234  0.00  0.00    +0.000 A 
ATOM     29  C   UNL     1      -1.995  11.821  19.465  0.00  0.00    +0.000 A 
ATOM     30 CL   UNL     1      -2.894  13.021  20.310  0.00  0.00    +0.000 Cl
ATOM     31  C   UNL     1      -0.822  11.312  20.021  0.00  0.00    +0.000 A 
ENDBRANCH  23  25
ENDBRANCH  20  23
ENDBRANCH   3  20
BRANCH   6  32
ATOM     32  O   UNL     1       3.339   3.779  18.707  0.00  0.00    +0.000 OA
ATOM     33  H   UNL     1       3.335   3.879  17.739  0.00  0.00    +0.000 HD
ENDBRANCH   6  32
TORSDOF 8
ENDMDL
MODEL 8
REMARK VINA RESULT:      -8.1      5.137      8.288
REMARK  Name = 
REMARK  9 active torsions:
REMARK  status: ('A' for Active; 'I' for Inactive)
REMARK    1  A    between atoms: C_1  and  C_2
REMARK    2  A    between atoms: C_2  and  O_3
REMARK    3  A    between atoms: C_2  and  C_10
REMARK    4  A    between atoms: O_3  and  C_4
REMARK    5  A    between atoms: N_12  and  C_13
REMARK    6  A    between atoms: C_15  and  S_16
REMARK    7  A    between atoms: S_16  and  N_19
REMARK    8  A    between atoms: N_19  and  C_20
REMARK    9  A    between atoms: C_29  and  O_30
REMARK                            x       y       z     vdW  Elec       q    Type
REMARK                         _______ _______ _______ _____ _____    ______ ____
ROOT
ATOM      1  C   UNL     1       2.751   5.760  20.111  0.00  0.00    +0.000 A 
ATOM      2  C   UNL     1       4.070   6.039  19.742  0.00  0.00    +0.000 A 
ATOM      3  C   UNL     1       4.895   5.021  19.253  0.00  0.00    +0.000 A 
ATOM      4  C   UNL     1       4.440   3.701  19.197  0.00  0.00    +0.000 A 
ATOM      5  C   UNL     1       3.137   3.405  19.605  0.00  0.00    +0.000 A 
ATOM      6  C   UNL     1       2.302   4.432  20.053  0.00  0.00    +0.000 A 
ENDROOT
BRANCH   1   9
ATOM      7  C   UNL     1       1.641   7.969  19.883  0.00  0.00    +0.000 C 
ATOM      8  O   UNL     1       2.216   8.300  18.846  0.00  0.00    +0.000 OA
ATOM      9  N   UNL     1       1.843   6.762  20.529  0.00  0.00    +0.000 N 
ATOM     10  H   UNL     1       1.150   6.479  21.220  0.00  0.00    +0.000 HD
BRANCH   7  12
ATOM     11  C   UNL     1       1.139   9.087  22.047  0.00  0.00    +0.000 C 
ATOM     12  C   UNL     1       0.675   8.941  20.592  0.00  0.00    +0.000 C 
BRANCH  12  13
ATOM     13  O   UNL     1       0.636  10.217  19.951  0.00  0.00    +0.000 OA
BRANCH  13  14
ATOM     14  C   UNL     1      -0.482  10.561  19.236  0.00  0.00    +0.000 A 
ATOM     15  C   UNL     1      -0.861  10.056  17.991  0.00  0.00    +0.000 A 
ATOM     16  C   UNL     1      -2.033  10.507  17.369  0.00  0.00    +0.000 A 
ATOM     17  C   UNL     1      -2.833  11.463  17.987  0.00  0.00    +0.000 A 
ATOM     18  C   UNL     1      -2.464  11.973  19.226  0.00  0.00    +0.000 A 
ATOM     19  C   UNL     1      -1.293  11.525  19.844  0.00  0.00    +0.000 A 
ENDBRANCH  13  14
ENDBRANCH  12  13
ENDBRANCH   7  12
ENDBRANCH   1   9
BRANCH   3  20
ATOM     20  S   UNL     1       6.554   5.419  18.743  0.00  0.00    +0.000 S 
ATOM     21  O   UNL     1       6.493   6.627  17.946  0.00  0.00    +0.000 OA
ATOM     22  O   UNL     1       7.402   5.339  19.910  0.00  0.00    +0.000 OA
BRANCH  20  23
ATOM     23  N   UNL     1       6.956   4.176  17.692  0.00  0.00    +0.000 N 
ATOM     24  H   UNL     1       7.676   3.532  18.015  0.00  0.00    +0.000 HD
BRANCH  23  25
ATOM     25  C   UNL     1       6.630   4.246  16.317  0.00  0.00    +0.000 A 
ATOM     26  C   UNL     1       5.383   3.809  15.870  0.00  0.00    +0.000 A 
ATOM     27  C   UNL     1       5.053   3.913  14.516  0.00  0.00    +0.000 A 
ATOM     28  C   UNL     1       5.963   4.475  13.619  0.00  0.00    +0.000 A 
ATOM     29  C   UNL     1       7.204   4.918  14.077  0.00  0.00    +0.000 A 
ATOM     30 CL   UNL     1       8.309   5.639  12.971  0.00  0.00    +0.000 Cl
ATOM     31  C   UNL     1       7.547   4.798  15.423  0.00  0.00    +0.000 A 
ENDBRANCH  23  25
ENDBRANCH  20  23
ENDBRANCH   3  20
BRANCH   6  32
ATOM     32  O   UNL     1       1.008   4.162  20.414  0.00  0.00    +0.000 OA
ATOM     33  H   UNL     1       0.502   3.945  19.612  0.00  0.00    +0.000 HD
ENDBRANCH   6  32
TORSDOF 8
ENDMDL
MODEL 9
REMARK VINA RESULT:      -8.0      4.948      7.455
REMARK  Name = 
REMARK  9 active torsions:
REMARK  status: ('A' for Active; 'I' for Inactive)
REMARK    1  A    between atoms: C_1  and  C_2
REMARK    2  A    between atoms: C_2  and  O_3
REMARK    3  A    between atoms: C_2  and  C_10
REMARK    4  A    between atoms: O_3  and  C_4
REMARK    5  A    between atoms: N_12  and  C_13
REMARK    6  A    between atoms: C_15  and  S_16
REMARK    7  A    between atoms: S_16  and  N_19
REMARK    8  A    between atoms: N_19  and  C_20
REMARK    9  A    between atoms: C_29  and  O_30
REMARK                            x       y       z     vdW  Elec       q    Type
REMARK                         _______ _______ _______ _____ _____    ______ ____
ROOT
ATOM      1  C   UNL     1       2.194   7.411  19.952  0.00  0.00    +0.000 A 
ATOM      2  C   UNL     1       1.582   7.958  21.084  0.00  0.00    +0.000 A 
ATOM      3  C   UNL     1       0.859   9.151  20.986  0.00  0.00    +0.000 A 
ATOM      4  C   UNL     1       0.802   9.851  19.779  0.00  0.00    +0.000 A 
ATOM      5  C   UNL     1       1.447   9.335  18.653  0.00  0.00    +0.000 A 
ATOM      6  C   UNL     1       2.133   8.121  18.744  0.00  0.00    +0.000 A 
ENDROOT
BRANCH   1   9
ATOM      7  C   UNL     1       2.261   4.942  20.211  0.00  0.00    +0.000 C 
ATOM      8  O   UNL     1       1.055   4.798  20.416  0.00  0.00    +0.000 OA
ATOM      9  N   UNL     1       2.864   6.164  19.969  0.00  0.00    +0.000 N 
ATOM     10  H   UNL     1       3.800   6.152  19.566  0.00  0.00    +0.000 HD
BRANCH   7  12
ATOM     11  C   UNL     1       2.580   2.678  21.187  0.00  0.00    +0.000 C 
ATOM     12  C   UNL     1       3.221   3.736  20.282  0.00  0.00    +0.000 C 
BRANCH  12  13
ATOM     13  O   UNL     1       3.488   3.192  18.988  0.00  0.00    +0.000 OA
BRANCH  13  14
ATOM     14  C   UNL     1       4.470   3.765  18.222  0.00  0.00    +0.000 A 
ATOM     15  C   UNL     1       5.688   4.274  18.676  0.00  0.00    +0.000 A 
ATOM     16  C   UNL     1       6.600   4.842  17.775  0.00  0.00    +0.000 A 
ATOM     17  C   UNL     1       6.301   4.902  16.418  0.00  0.00    +0.000 A 
ATOM     18  C   UNL     1       5.090   4.398  15.956  0.00  0.00    +0.000 A 
ATOM     19  C   UNL     1       4.180   3.835  16.856  0.00  0.00    +0.000 A 
ENDBRANCH  13  14
ENDBRANCH  12  13
ENDBRANCH   7  12
ENDBRANCH   1   9
BRANCH   3  20
ATOM     20  S   UNL     1       0.049   9.794  22.435  0.00  0.00    +0.000 S 
ATOM     21  O   UNL     1      -1.240   9.142  22.546  0.00  0.00    +0.000 OA
ATOM     22  O   UNL     1       0.999   9.755  23.522  0.00  0.00    +0.000 OA
BRANCH  20  23
ATOM     23  N   UNL     1      -0.261  11.394  22.040  0.00  0.00    +0.000 N 
ATOM     24  H   UNL     1       0.542  12.021  22.050  0.00  0.00    +0.000 HD
BRANCH  23  25
ATOM     25  C   UNL     1      -1.573  11.920  22.091  0.00  0.00    +0.000 A 
ATOM     26  C   UNL     1      -2.195  12.362  20.923  0.00  0.00    +0.000 A 
ATOM     27  C   UNL     1      -3.504  12.848  20.972  0.00  0.00    +0.000 A 
ATOM     28  C   UNL     1      -4.193  12.868  22.186  0.00  0.00    +0.000 A 
ATOM     29  C   UNL     1      -3.567  12.414  23.346  0.00  0.00    +0.000 A 
ATOM     30 CL   UNL     1      -4.435  12.411  24.833  0.00  0.00    +0.000 Cl
ATOM     31  C   UNL     1      -2.254  11.947  23.307  0.00  0.00    +0.000 A 
ENDBRANCH  23  25
ENDBRANCH  20  23
ENDBRANCH   3  20
BRANCH   6  32
ATOM     32  O   UNL     1       2.732   7.582  17.635  0.00  0.00    +0.000 OA
ATOM     33  H   UNL     1       3.585   7.197  17.902  0.00  0.00    +0.000 HD
ENDBRANCH   6  32
TORSDOF 8
ENDMDL
