MODEL 1
REMARK VINA RESULT:      -9.3      0.000      0.000
REMARK  Name = 
REMARK  2 active torsions:
REMARK  status: ('A' for Active; 'I' for Inactive)
REMARK    1  A    between atoms: C_2  and  C_3
REMARK    2  A    between atoms: C_16  and  C_17
REMARK                            x       y       z     vdW  Elec       q    Type
REMARK                         _______ _______ _______ _____ _____    ______ ____
ROOT
ATOM      1  O   UNL     1       2.873   4.756  19.598  0.00  0.00    +0.000 OA
ATOM      2  C   UNL     1       3.245   5.736  18.949  0.00  0.00    +0.000 C 
ATOM      3  N   UNL     1       4.332   5.688  18.069  0.00  0.00    +0.000 N 
ATOM      4  C   UNL     1       4.759   6.802  17.222  0.00  0.00    +0.000 C 
ATOM      5  C   UNL     1       5.357   6.322  15.934  0.00  0.00    +0.000 C 
ATOM      6  C   UNL     1       5.577   5.033  15.639  0.00  0.00    +0.000 C 
ATOM      7  C   UNL     1       5.299   3.935  16.631  0.00  0.00    +0.000 C 
ATOM      8  C   UNL     1       5.180   4.499  18.048  0.00  0.00    +0.000 C 
ENDROOT
BRANCH   2   9
ATOM      9  C   UNL     1       2.458   7.003  19.089  0.00  0.00    +0.000 A 
ATOM     10  C   UNL     1       2.257   7.793  17.967  0.00  0.00    +0.000 A 
ATOM     11  C   UNL     1       1.586   8.999  18.129  0.00  0.00    +0.000 A 
ATOM     12  C   UNL     1       1.132   9.377  19.399  0.00  0.00    +0.000 A 
ATOM     13  C   UNL     1       0.473  10.598  19.620  0.00  0.00    +0.000 A 
ATOM     14  C   UNL     1       0.046  10.947  20.900  0.00  0.00    +0.000 A 
ATOM     15  C   UNL     1       0.280  10.082  21.964  0.00  0.00    +0.000 A 
ATOM     16  C   UNL     1       0.934   8.869  21.743  0.00  0.00    +0.000 A 
ATOM     17  C   UNL     1       1.363   8.496  20.477  0.00  0.00    +0.000 A 
ATOM     18  N   UNL     1       1.995   7.324  20.326  0.00  0.00    +0.000 NA
ENDBRANCH   2   9
BRANCH   6  19
ATOM     19  C   UNL     1       6.093   4.649  14.325  0.00  0.00    +0.000 A 
ATOM     20  C   UNL     1       5.404   3.714  13.544  0.00  0.00    +0.000 A 
ATOM     21  C   UNL     1       5.892   3.362  12.285  0.00  0.00    +0.000 A 
ATOM     22  C   UNL     1       7.072   3.932  11.808  0.00  0.00    +0.000 A 
ATOM     23  C   UNL     1       7.773   4.847  12.592  0.00  0.00    +0.000 A 
ATOM     24  C   UNL     1       7.286   5.203  13.851  0.00  0.00    +0.000 A 
ENDBRANCH   6  19
TORSDOF 2
ENDMDL
MODEL 2
REMARK VINA RESULT:      -8.8      1.273      8.423
REMARK  Name = 
REMARK  2 active torsions:
REMARK  status: ('A' for Active; 'I' for Inactive)
REMARK    1  A    between atoms: C_2  and  C_3
REMARK    2  A    between atoms: C_16  and  C_17
REMARK                            x       y       z     vdW  Elec       q    Type
REMARK                         _______ _______ _______ _____ _____    ______ ____
ROOT
ATOM      1  O   UNL     1       5.032   3.458  19.305  0.00  0.00    +0.000 OA
ATOM      2  C   UNL     1       4.659   4.288  18.473  0.00  0.00    +0.000 C 
ATOM      3  N   UNL     1       3.506   5.063  18.647  0.00  0.00    +0.000 N 
ATOM      4  C   UNL     1       3.069   6.112  17.725  0.00  0.00    +0.000 C 
ATOM      5  C   UNL     1       2.353   7.217  18.440  0.00  0.00    +0.000 C 
ATOM      6  C   UNL     1       2.050   7.197  19.747  0.00  0.00    +0.000 C 
ATOM      7  C   UNL     1       2.351   6.002  20.612  0.00  0.00    +0.000 C 
ATOM      8  C   UNL     1       2.604   4.760  19.755  0.00  0.00    +0.000 C 
ENDROOT
BRANCH   2   9
ATOM      9  C   UNL     1       5.513   4.489  17.259  0.00  0.00    +0.000 A 
ATOM     10  C   UNL     1       6.613   5.328  17.347  0.00  0.00    +0.000 A 
ATOM     11  C   UNL     1       7.353   5.558  16.194  0.00  0.00    +0.000 A 
ATOM     12  C   UNL     1       6.979   4.942  14.993  0.00  0.00    +0.000 A 
ATOM     13  C   UNL     1       7.677   5.163  13.794  0.00  0.00    +0.000 A 
ATOM     14  C   UNL     1       7.268   4.541  12.615  0.00  0.00    +0.000 A 
ATOM     15  C   UNL     1       6.159   3.702  12.628  0.00  0.00    +0.000 A 
ATOM     16  C   UNL     1       5.466   3.483  13.820  0.00  0.00    +0.000 A 
ATOM     17  C   UNL     1       5.858   4.084  15.007  0.00  0.00    +0.000 A 
ATOM     18  N   UNL     1       5.149   3.845  16.119  0.00  0.00    +0.000 NA
ENDBRANCH   2   9
BRANCH   6  19
ATOM     19  C   UNL     1       1.418   8.355  20.380  0.00  0.00    +0.000 A 
ATOM     20  C   UNL     1       1.039   9.458  19.609  0.00  0.00    +0.000 A 
ATOM     21  C   UNL     1       0.424  10.555  20.214  0.00  0.00    +0.000 A 
ATOM     22  C   UNL     1       0.195  10.556  21.590  0.00  0.00    +0.000 A 
ATOM     23  C   UNL     1       0.592   9.467  22.366  0.00  0.00    +0.000 A 
ATOM     24  C   UNL     1       1.206   8.369  21.762  0.00  0.00    +0.000 A 
ENDBRANCH   6  19
TORSDOF 2
ENDMDL
MODEL 3
REMARK VINA RESULT:      -8.8      0.907      1.688
REMARK  Name = 
REMARK  2 active torsions:
REMARK  status: ('A' for Active; 'I' for Inactive)
REMARK    1  A    between atoms: C_2  and  C_3
REMARK    2  A    between atoms: C_16  and  C_17
REMARK                            x       y       z     vdW  Elec       q    Type
REMARK                         _______ _______ _______ _____ _____    ______ ____
ROOT
ATOM      1  O   UNL     1       2.168   4.063  19.255  0.00  0.00    +0.000 OA
ATOM      2  C   UNL     1       2.842   5.052  18.959  0.00  0.00    +0.000 C 
ATOM      3  N   UNL     1       4.019   4.963  18.206  0.00  0.00    +0.000 N 
ATOM      4  C   UNL     1       4.807   6.114  17.767  0.00  0.00    +0.000 C 
ATOM      5  C   UNL     1       5.484   5.855  16.454  0.00  0.00    +0.000 C 
ATOM      6  C   UNL     1       5.460   4.677  15.813  0.00  0.00    +0.000 C 
ATOM      7  C   UNL     1       4.795   3.465  16.408  0.00  0.00    +0.000 C 
ATOM      8  C   UNL     1       4.578   3.646  17.912  0.00  0.00    +0.000 C 
ENDROOT
BRANCH   2   9
ATOM      9  C   UNL     1       2.339   6.394  19.395  0.00  0.00    +0.000 A 
ATOM     10  C   UNL     1       1.825   6.532  20.676  0.00  0.00    +0.000 A 
ATOM     11  C   UNL     1       1.299   7.766  21.039  0.00  0.00    +0.000 A 
ATOM     12  C   UNL     1       1.307   8.823  20.119  0.00  0.00    +0.000 A 
ATOM     13  C   UNL     1       0.762  10.080  20.428  0.00  0.00    +0.000 A 
ATOM     14  C   UNL     1       0.777  11.106  19.484  0.00  0.00    +0.000 A 
ATOM     15  C   UNL     1       1.328  10.877  18.228  0.00  0.00    +0.000 A 
ATOM     16  C   UNL     1       1.869   9.627  17.922  0.00  0.00    +0.000 A 
ATOM     17  C   UNL     1       1.873   8.593  18.847  0.00  0.00    +0.000 A 
ATOM     18  N   UNL     1       2.397   7.411  18.495  0.00  0.00    +0.000 NA
ENDBRANCH   2   9
BRANCH   6  19
ATOM     19  C   UNL     1       6.082   4.536  14.496  0.00  0.00    +0.000 A 
ATOM     20  C   UNL     1       5.532   3.665  13.549  0.00  0.00    +0.000 A 
ATOM     21  C   UNL     1       6.120   3.544  12.289  0.00  0.00    +0.000 A 
ATOM     22  C   UNL     1       7.262   4.282  11.976  0.00  0.00    +0.000 A 
ATOM     23  C   UNL     1       7.825   5.133  12.926  0.00  0.00    +0.000 A 
ATOM     24  C   UNL     1       7.238   5.258  14.186  0.00  0.00    +0.000 A 
ENDBRANCH   6  19
TORSDOF 2
ENDMDL
MODEL 4
REMARK VINA RESULT:      -8.4      1.272      8.433
REMARK  Name = 
REMARK  2 active torsions:
REMARK  status: ('A' for Active; 'I' for Inactive)
REMARK    1  A    between atoms: C_2  and  C_3
REMARK    2  A    between atoms: C_16  and  C_17
REMARK                            x       y       z     vdW  Elec       q    Type
REMARK                         _______ _______ _______ _____ _____    ______ ____
ROOT
ATOM      1  O   UNL     1       4.401   3.716  19.875  0.00  0.00    +0.000 OA
ATOM      2  C   UNL     1       4.167   4.577  19.024  0.00  0.00    +0.000 C 
ATOM      3  N   UNL     1       3.057   5.426  19.096  0.00  0.00    +0.000 N 
ATOM      4  C   UNL     1       2.783   6.510  18.153  0.00  0.00    +0.000 C 
ATOM      5  C   UNL     1       2.074   7.654  18.812  0.00  0.00    +0.000 C 
ATOM      6  C   UNL     1       1.644   7.643  20.083  0.00  0.00    +0.000 C 
ATOM      7  C   UNL     1       1.779   6.423  20.954  0.00  0.00    +0.000 C 
ATOM      8  C   UNL     1       2.032   5.174  20.106  0.00  0.00    +0.000 C 
ENDROOT
BRANCH   2   9
ATOM      9  C   UNL     1       5.147   4.731  17.902  0.00  0.00    +0.000 A 
ATOM     10  C   UNL     1       6.294   5.483  18.114  0.00  0.00    +0.000 A 
ATOM     11  C   UNL     1       7.157   5.673  17.042  0.00  0.00    +0.000 A 
ATOM     12  C   UNL     1       6.856   5.106  15.797  0.00  0.00    +0.000 A 
ATOM     13  C   UNL     1       7.682   5.292  14.676  0.00  0.00    +0.000 A 
ATOM     14  C   UNL     1       7.345   4.721  13.450  0.00  0.00    +0.000 A 
ATOM     15  C   UNL     1       6.181   3.969  13.337  0.00  0.00    +0.000 A 
ATOM     16  C   UNL     1       5.361   3.785  14.451  0.00  0.00    +0.000 A 
ATOM     17  C   UNL     1       5.679   4.336  15.684  0.00  0.00    +0.000 A 
ATOM     18  N   UNL     1       4.849   4.134  16.718  0.00  0.00    +0.000 NA
ENDBRANCH   2   9
BRANCH   6  19
ATOM     19  C   UNL     1       1.031   8.835  20.670  0.00  0.00    +0.000 A 
ATOM     20  C   UNL     1       0.559   8.808  21.986  0.00  0.00    +0.000 A 
ATOM     21  C   UNL     1      -0.012   9.950  22.547  0.00  0.00    +0.000 A 
ATOM     22  C   UNL     1      -0.123  11.118  21.793  0.00  0.00    +0.000 A 
ATOM     23  C   UNL     1       0.326  11.143  20.473  0.00  0.00    +0.000 A 
ATOM     24  C   UNL     1       0.899  10.002  19.910  0.00  0.00    +0.000 A 
ENDBRANCH   6  19
TORSDOF 2
ENDMDL
MODEL 5
REMARK VINA RESULT:      -8.2      1.345      8.519
REMARK  Name = 
REMARK  2 active torsions:
REMARK  status: ('A' for Active; 'I' for Inactive)
REMARK    1  A    between atoms: C_2  and  C_3
REMARK    2  A    between atoms: C_16  and  C_17
REMARK                            x       y       z     vdW  Elec       q    Type
REMARK                         _______ _______ _______ _____ _____    ______ ____
ROOT
ATOM      1  O   UNL     1       3.708   3.792  20.306  0.00  0.00    +0.000 OA
ATOM      2  C   UNL     1       3.636   4.694  19.469  0.00  0.00    +0.000 C 
ATOM      3  N   UNL     1       2.610   5.647  19.476  0.00  0.00    +0.000 N 
ATOM      4  C   UNL     1       2.527   6.778  18.551  0.00  0.00    +0.000 C 
ATOM      5  C   UNL     1       1.874   7.968  19.188  0.00  0.00    +0.000 C 
ATOM      6  C   UNL     1       1.332   7.964  20.415  0.00  0.00    +0.000 C 
ATOM      7  C   UNL     1       1.271   6.713  21.250  0.00  0.00    +0.000 C 
ATOM      8  C   UNL     1       1.479   5.469  20.383  0.00  0.00    +0.000 C 
ENDROOT
BRANCH   2   9
ATOM      9  C   UNL     1       4.723   4.782  18.443  0.00  0.00    +0.000 A 
ATOM     10  C   UNL     1       5.937   5.350  18.801  0.00  0.00    +0.000 A 
ATOM     11  C   UNL     1       6.909   5.487  17.819  0.00  0.00    +0.000 A 
ATOM     12  C   UNL     1       6.646   5.050  16.514  0.00  0.00    +0.000 A 
ATOM     13  C   UNL     1       7.586   5.191  15.479  0.00  0.00    +0.000 A 
ATOM     14  C   UNL     1       7.284   4.754  14.190  0.00  0.00    +0.000 A 
ATOM     15  C   UNL     1       6.044   4.183  13.928  0.00  0.00    +0.000 A 
ATOM     16  C   UNL     1       5.112   4.043  14.958  0.00  0.00    +0.000 A 
ATOM     17  C   UNL     1       5.390   4.462  16.250  0.00  0.00    +0.000 A 
ATOM     18  N   UNL     1       4.453   4.312  17.197  0.00  0.00    +0.000 NA
ENDBRANCH   2   9
BRANCH   6  19
ATOM     19  C   UNL     1       0.786   9.194  20.989  0.00  0.00    +0.000 A 
ATOM     20  C   UNL     1       0.933  10.411  20.315  0.00  0.00    +0.000 A 
ATOM     21  C   UNL     1       0.398  11.579  20.859  0.00  0.00    +0.000 A 
ATOM     22  C   UNL     1      -0.276  11.537  22.080  0.00  0.00    +0.000 A 
ATOM     23  C   UNL     1      -0.405  10.330  22.765  0.00  0.00    +0.000 A 
ATOM     24  C   UNL     1       0.128   9.160  22.223  0.00  0.00    +0.000 A 
ENDBRANCH   6  19
TORSDOF 2
ENDMDL
MODEL 6
REMARK VINA RESULT:      -8.0      1.242      8.317
REMARK  Name = 
REMARK  2 active torsions:
REMARK  status: ('A' for Active; 'I' for Inactive)
REMARK    1  A    between atoms: C_2  and  C_3
REMARK    2  A    between atoms: C_16  and  C_17
REMARK                            x       y       z     vdW  Elec       q    Type
REMARK                         _______ _______ _______ _____ _____    ______ ____
ROOT
ATOM      1  O   UNL     1       4.488   5.054  20.046  0.00  0.00    +0.000 OA
ATOM      2  C   UNL     1       4.189   5.628  18.997  0.00  0.00    +0.000 C 
ATOM      3  N   UNL     1       3.042   6.420  18.872  0.00  0.00    +0.000 N 
ATOM      4  C   UNL     1       2.690   7.180  17.673  0.00  0.00    +0.000 C 
ATOM      5  C   UNL     1       1.945   8.437  18.011  0.00  0.00    +0.000 C 
ATOM      6  C   UNL     1       1.553   8.770  19.250  0.00  0.00    +0.000 C 
ATOM      7  C   UNL     1       1.771   7.853  20.423  0.00  0.00    +0.000 C 
ATOM      8  C   UNL     1       2.060   6.426  19.953  0.00  0.00    +0.000 C 
ENDROOT
BRANCH   2   9
ATOM      9  C   UNL     1       5.129   5.494  17.838  0.00  0.00    +0.000 A 
ATOM     10  C   UNL     1       6.333   6.182  17.870  0.00  0.00    +0.000 A 
ATOM     11  C   UNL     1       7.160   6.104  16.757  0.00  0.00    +0.000 A 
ATOM     12  C   UNL     1       6.768   5.339  15.651  0.00  0.00    +0.000 A 
ATOM     13  C   UNL     1       7.556   5.249  14.491  0.00  0.00    +0.000 A 
ATOM     14  C   UNL     1       7.127   4.487  13.405  0.00  0.00    +0.000 A 
ATOM     15  C   UNL     1       5.909   3.819  13.471  0.00  0.00    +0.000 A 
ATOM     16  C   UNL     1       5.127   3.909  14.623  0.00  0.00    +0.000 A 
ATOM     17  C   UNL     1       5.535   4.654  15.720  0.00  0.00    +0.000 A 
ATOM     18  N   UNL     1       4.739   4.712  16.797  0.00  0.00    +0.000 NA
ENDBRANCH   2   9
BRANCH   6  19
ATOM     19  C   UNL     1       0.900  10.055  19.501  0.00  0.00    +0.000 A 
ATOM     20  C   UNL     1      -0.176  10.135  20.391  0.00  0.00    +0.000 A 
ATOM     21  C   UNL     1      -0.787  11.365  20.639  0.00  0.00    +0.000 A 
ATOM     22  C   UNL     1      -0.333  12.514  19.991  0.00  0.00    +0.000 A 
ATOM     23  C   UNL     1       0.724  12.434  19.086  0.00  0.00    +0.000 A 
ATOM     24  C   UNL     1       1.338  11.206  18.838  0.00  0.00    +0.000 A 
ENDBRANCH   6  19
TORSDOF 2
ENDMDL
MODEL 7
REMARK VINA RESULT:      -7.9      2.400      8.246
REMARK  Name = 
REMARK  2 active torsions:
REMARK  status: ('A' for Active; 'I' for Inactive)
REMARK    1  A    between atoms: C_2  and  C_3
REMARK    2  A    between atoms: C_16  and  C_17
REMARK                            x       y       z     vdW  Elec       q    Type
REMARK                         _______ _______ _______ _____ _____    ______ ____
ROOT
ATOM      1  O   UNL     1       1.884   6.939  20.800  0.00  0.00    +0.000 OA
ATOM      2  C   UNL     1       2.023   7.318  19.636  0.00  0.00    +0.000 C 
ATOM      3  N   UNL     1       1.524   8.542  19.178  0.00  0.00    +0.000 N 
ATOM      4  C   UNL     1       1.733   9.067  17.828  0.00  0.00    +0.000 C 
ATOM      5  C   UNL     1       1.796  10.564  17.818  0.00  0.00    +0.000 C 
ATOM      6  C   UNL     1       1.578  11.335  18.894  0.00  0.00    +0.000 C 
ATOM      7  C   UNL     1       1.172  10.749  20.219  0.00  0.00    +0.000 C 
ATOM      8  C   UNL     1       0.645   9.323  20.045  0.00  0.00    +0.000 C 
ENDROOT
BRANCH   2   9
ATOM      9  C   UNL     1       2.801   6.438  18.705  0.00  0.00    +0.000 A 
ATOM     10  C   UNL     1       2.257   5.219  18.327  0.00  0.00    +0.000 A 
ATOM     11  C   UNL     1       3.022   4.386  17.520  0.00  0.00    +0.000 A 
ATOM     12  C   UNL     1       4.298   4.793  17.111  0.00  0.00    +0.000 A 
ATOM     13  C   UNL     1       5.121   3.976  16.318  0.00  0.00    +0.000 A 
ATOM     14  C   UNL     1       6.391   4.410  15.940  0.00  0.00    +0.000 A 
ATOM     15  C   UNL     1       6.845   5.657  16.356  0.00  0.00    +0.000 A 
ATOM     16  C   UNL     1       6.026   6.468  17.143  0.00  0.00    +0.000 A 
ATOM     17  C   UNL     1       4.756   6.062  17.527  0.00  0.00    +0.000 A 
ATOM     18  N   UNL     1       4.018   6.878  18.292  0.00  0.00    +0.000 NA
ENDBRANCH   2   9
BRANCH   6  19
ATOM     19  C   UNL     1       1.738  12.787  18.811  0.00  0.00    +0.000 A 
ATOM     20  C   UNL     1       0.759  13.634  19.342  0.00  0.00    +0.000 A 
ATOM     21  C   UNL     1       0.923  15.018  19.274  0.00  0.00    +0.000 A 
ATOM     22  C   UNL     1       2.056  15.560  18.668  0.00  0.00    +0.000 A 
ATOM     23  C   UNL     1       3.023  14.719  18.117  0.00  0.00    +0.000 A 
ATOM     24  C   UNL     1       2.863  13.334  18.185  0.00  0.00    +0.000 A 
ENDBRANCH   6  19
TORSDOF 2
ENDMDL
MODEL 8
REMARK VINA RESULT:      -7.8      2.552      8.279
REMARK  Name = 
REMARK  2 active torsions:
REMARK  status: ('A' for Active; 'I' for Inactive)
REMARK    1  A    between atoms: C_2  and  C_3
REMARK    2  A    between atoms: C_16  and  C_17
REMARK                            x       y       z     vdW  Elec       q    Type
REMARK                         _______ _______ _______ _____ _____    ______ ____
ROOT
ATOM      1  O   UNL     1       1.716   7.343  21.121  0.00  0.00    +0.000 OA
ATOM      2  C   UNL     1       1.801   7.635  19.927  0.00  0.00    +0.000 C 
ATOM      3  N   UNL     1       1.348   8.857  19.417  0.00  0.00    +0.000 N 
ATOM      4  C   UNL     1       1.500   9.278  18.023  0.00  0.00    +0.000 C 
ATOM      5  C   UNL     1       1.653  10.764  17.906  0.00  0.00    +0.000 C 
ATOM      6  C   UNL     1       1.553  11.616  18.937  0.00  0.00    +0.000 C 
ATOM      7  C   UNL     1       1.201  11.145  20.323  0.00  0.00    +0.000 C 
ATOM      8  C   UNL     1       0.578   9.748  20.281  0.00  0.00    +0.000 C 
ENDROOT
BRANCH   2   9
ATOM      9  C   UNL     1       2.461   6.648  19.014  0.00  0.00    +0.000 A 
ATOM     10  C   UNL     1       2.066   5.319  19.068  0.00  0.00    +0.000 A 
ATOM     11  C   UNL     1       2.737   4.406  18.265  0.00  0.00    +0.000 A 
ATOM     12  C   UNL     1       3.773   4.843  17.429  0.00  0.00    +0.000 A 
ATOM     13  C   UNL     1       4.499   3.955  16.619  0.00  0.00    +0.000 A 
ATOM     14  C   UNL     1       5.533   4.425  15.809  0.00  0.00    +0.000 A 
ATOM     15  C   UNL     1       5.847   5.779  15.811  0.00  0.00    +0.000 A 
ATOM     16  C   UNL     1       5.124   6.660  16.616  0.00  0.00    +0.000 A 
ATOM     17  C   UNL     1       4.088   6.219  17.425  0.00  0.00    +0.000 A 
ATOM     18  N   UNL     1       3.434   7.109  18.185  0.00  0.00    +0.000 NA
ENDBRANCH   2   9
BRANCH   6  19
ATOM     19  C   UNL     1       1.796  13.046  18.745  0.00  0.00    +0.000 A 
ATOM     20  C   UNL     1       3.015  13.489  18.220  0.00  0.00    +0.000 A 
ATOM     21  C   UNL     1       3.237  14.852  18.025  0.00  0.00    +0.000 A 
ATOM     22  C   UNL     1       2.248  15.777  18.362  0.00  0.00    +0.000 A 
ATOM     23  C   UNL     1       1.040  15.341  18.906  0.00  0.00    +0.000 A 
ATOM     24  C   UNL     1       0.815  13.977  19.101  0.00  0.00    +0.000 A 
ENDBRANCH   6  19
TORSDOF 2
ENDMDL
MODEL 9
REMARK VINA RESULT:      -7.7      3.859      8.300
REMARK  Name = 
REMARK  2 active torsions:
REMARK  status: ('A' for Active; 'I' for Inactive)
REMARK    1  A    between atoms: C_2  and  C_3
REMARK    2  A    between atoms: C_16  and  C_17
REMARK                            x       y       z     vdW  Elec       q    Type
REMARK                         _______ _______ _______ _____ _____    ______ ____
ROOT
ATOM      1  O   UNL     1       1.418   8.575  22.205  0.00  0.00    +0.000 OA
ATOM      2  C   UNL     1       1.366   8.656  20.976  0.00  0.00    +0.000 C 
ATOM      3  N   UNL     1       1.028   9.842  20.314  0.00  0.00    +0.000 N 
ATOM      4  C   UNL     1       1.030  10.005  18.859  0.00  0.00    +0.000 C 
ATOM      5  C   UNL     1       1.382  11.406  18.459  0.00  0.00    +0.000 C 
ATOM      6  C   UNL     1       1.566  12.414  19.325  0.00  0.00    +0.000 C 
ATOM      7  C   UNL     1       1.358  12.235  20.805  0.00  0.00    +0.000 C 
ATOM      8  C   UNL     1       0.536  10.977  21.091  0.00  0.00    +0.000 C 
ENDROOT
BRANCH   2   9
ATOM      9  C   UNL     1       1.728   7.439  20.181  0.00  0.00    +0.000 A 
ATOM     10  C   UNL     1       2.422   7.599  18.991  0.00  0.00    +0.000 A 
ATOM     11  C   UNL     1       2.687   6.466  18.232  0.00  0.00    +0.000 A 
ATOM     12  C   UNL     1       2.260   5.211  18.684  0.00  0.00    +0.000 A 
ATOM     13  C   UNL     1       2.480   4.039  17.940  0.00  0.00    +0.000 A 
ATOM     14  C   UNL     1       2.030   2.808  18.416  0.00  0.00    +0.000 A 
ATOM     15  C   UNL     1       1.356   2.744  19.631  0.00  0.00    +0.000 A 
ATOM     16  C   UNL     1       1.138   3.909  20.368  0.00  0.00    +0.000 A 
ATOM     17  C   UNL     1       1.582   5.144  19.920  0.00  0.00    +0.000 A 
ATOM     18  N   UNL     1       1.337   6.231  20.665  0.00  0.00    +0.000 NA
ENDBRANCH   2   9
BRANCH   6  19
ATOM     19  C   UNL     1       1.986  13.733  18.850  0.00  0.00    +0.000 A 
ATOM     20  C   UNL     1       3.220  13.890  18.210  0.00  0.00    +0.000 A 
ATOM     21  C   UNL     1       3.611  15.147  17.747  0.00  0.00    +0.000 A 
ATOM     22  C   UNL     1       2.777  16.250  17.930  0.00  0.00    +0.000 A 
ATOM     23  C   UNL     1       1.556  16.101  18.587  0.00  0.00    +0.000 A 
ATOM     24  C   UNL     1       1.162  14.845  19.051  0.00  0.00    +0.000 A 
ENDBRANCH   6  19
TORSDOF 2
ENDMDL
