MODEL 1
REMARK VINA RESULT:      -8.5      0.000      0.000
REMARK  Name = 
REMARK  7 active torsions:
REMARK  status: ('A' for Active; 'I' for Inactive)
REMARK    1  A    between atoms: C_1  and  C_2
REMARK    2  A    between atoms: C_5  and  S_6
REMARK    3  A    between atoms: S_6  and  N_7
REMARK    4  A    between atoms: C_11  and  C_12
REMARK    5  A    between atoms: N_14  and  C_15
REMARK    6  A    between atoms: C_15  and  C_16
REMARK    7  A    between atoms: C_19  and  C_20
REMARK                            x       y       z     vdW  Elec       q    Type
REMARK                         _______ _______ _______ _____ _____    ______ ____
ROOT
ATOM      1  C   UNL     1      -1.648  12.078  18.914  0.00  0.00    +0.000 C 
ATOM      2  O   UNL     1      -1.060  13.083  18.525  0.00  0.00    +0.000 OA
ATOM      3  N   UNL     1      -1.027  11.088  19.635  0.00  0.00    +0.000 N 
ATOM      4  H   UNL     1      -1.458  10.180  19.698  0.00  0.00    +0.000 HD
ENDROOT
BRANCH   1  11
ATOM      5  C   UNL     1      -2.712  11.014  16.167  0.00  0.00    +0.000 C 
ATOM      6  C   UNL     1      -3.584  11.402  17.328  0.00  0.00    +0.000 A 
ATOM      7  C   UNL     1      -4.976  11.220  17.166  0.00  0.00    +0.000 A 
ATOM      8  C   UNL     1      -5.869  11.468  18.207  0.00  0.00    +0.000 A 
ATOM      9  C   UNL     1      -5.377  11.911  19.430  0.00  0.00    +0.000 A 
ATOM     10  C   UNL     1      -4.008  12.130  19.613  0.00  0.00    +0.000 A 
ATOM     11  C   UNL     1      -3.098  11.880  18.568  0.00  0.00    +0.000 A 
BRANCH   9  12
ATOM     12  S   UNL     1      -6.491  12.142  20.785  0.00  0.00    +0.000 S 
ATOM     13  O   UNL     1      -5.718  12.311  21.989  0.00  0.00    +0.000 OA
ATOM     14  O   UNL     1      -7.543  13.053  20.392  0.00  0.00    +0.000 OA
BRANCH  12  15
ATOM     15  N   UNL     1      -7.222  10.634  20.889  0.00  0.00    +0.000 NA
ATOM     16  H   UNL     1      -7.062  10.223  21.810  0.00  0.00    +0.000 HD
ATOM     17  H   UNL     1      -8.204  10.698  20.623  0.00  0.00    +0.000 HD
ENDBRANCH  12  15
ENDBRANCH   9  12
ENDBRANCH   1  11
BRANCH   3  18
ATOM     18  C   UNL     1       0.378  11.147  19.983  0.00  0.00    +0.000 C 
BRANCH  18  19
ATOM     19  C   UNL     1       1.076  10.059  19.249  0.00  0.00    +0.000 A 
ATOM     20  C   UNL     1       1.605   9.976  17.981  0.00  0.00    +0.000 A 
ATOM     21  C   UNL     1       2.182   8.689  17.876  0.00  0.00    +0.000 A 
ATOM     22  C   UNL     1       1.987   8.040  19.087  0.00  0.00    +0.000 A 
ATOM     23  O   UNL     1       1.302   8.893  19.925  0.00  0.00    +0.000 OA
BRANCH  22  24
ATOM     24  C   UNL     1       2.436   6.721  19.456  0.00  0.00    +0.000 A 
ATOM     25  N   UNL     1       1.876   6.043  20.437  0.00  0.00    +0.000 NA
ATOM     26  C   UNL     1       2.449   4.784  20.527  0.00  0.00    +0.000 A 
ATOM     27  C   UNL     1       2.084   3.772  21.440  0.00  0.00    +0.000 A 
ATOM     28  C   UNL     1       2.731   2.531  21.404  0.00  0.00    +0.000 A 
ATOM     29  C   UNL     1       3.739   2.292  20.475  0.00  0.00    +0.000 A 
ATOM     30  C   UNL     1       4.127   3.282  19.566  0.00  0.00    +0.000 A 
ATOM     31  C   UNL     1       3.466   4.522  19.608  0.00  0.00    +0.000 A 
ATOM     32  S   UNL     1       3.701   5.917  18.625  0.00  0.00    +0.000 S 
ENDBRANCH  22  24
ENDBRANCH  18  19
ENDBRANCH   3  18
TORSDOF 6
ENDMDL
MODEL 2
REMARK VINA RESULT:      -8.5      3.683     10.611
REMARK  Name = 
REMARK  7 active torsions:
REMARK  status: ('A' for Active; 'I' for Inactive)
REMARK    1  A    between atoms: C_1  and  C_2
REMARK    2  A    between atoms: C_5  and  S_6
REMARK    3  A    between atoms: S_6  and  N_7
REMARK    4  A    between atoms: C_11  and  C_12
REMARK    5  A    between atoms: N_14  and  C_15
REMARK    6  A    between atoms: C_15  and  C_16
REMARK    7  A    between atoms: C_19  and  C_20
REMARK                            x       y       z     vdW  Elec       q    Type
REMARK                         _______ _______ _______ _____ _____    ______ ____
ROOT
ATOM      1  C   UNL     1       2.678   5.623  20.192  0.00  0.00    +0.000 C 
ATOM      2  O   UNL     1       2.346   4.897  21.123  0.00  0.00    +0.000 OA
ATOM      3  N   UNL     1       2.277   6.933  20.093  0.00  0.00    +0.000 N 
ATOM      4  H   UNL     1       2.341   7.402  19.203  0.00  0.00    +0.000 HD
ENDROOT
BRANCH   1  11
ATOM      5  C   UNL     1       1.581   4.157  17.650  0.00  0.00    +0.000 C 
ATOM      6  C   UNL     1       3.036   4.405  17.931  0.00  0.00    +0.000 A 
ATOM      7  C   UNL     1       3.955   3.984  16.945  0.00  0.00    +0.000 A 
ATOM      8  C   UNL     1       5.320   4.239  17.063  0.00  0.00    +0.000 A 
ATOM      9  C   UNL     1       5.787   4.918  18.183  0.00  0.00    +0.000 A 
ATOM     10  C   UNL     1       4.908   5.321  19.192  0.00  0.00    +0.000 A 
ATOM     11  C   UNL     1       3.527   5.071  19.081  0.00  0.00    +0.000 A 
BRANCH   9  12
ATOM     12  S   UNL     1       7.505   5.326  18.301  0.00  0.00    +0.000 S 
ATOM     13  O   UNL     1       8.276   4.197  17.846  0.00  0.00    +0.000 OA
ATOM     14  O   UNL     1       7.714   6.670  17.810  0.00  0.00    +0.000 OA
BRANCH  12  15
ATOM     15  N   UNL     1       7.722   5.419  19.964  0.00  0.00    +0.000 NA
ATOM     16  H   UNL     1       8.342   4.675  20.285  0.00  0.00    +0.000 HD
ATOM     17  H   UNL     1       8.019   6.357  20.229  0.00  0.00    +0.000 HD
ENDBRANCH  12  15
ENDBRANCH   9  12
ENDBRANCH   1  11
BRANCH   3  18
ATOM     18  C   UNL     1       1.419   7.558  21.077  0.00  0.00    +0.000 C 
BRANCH  18  19
ATOM     19  C   UNL     1       0.930   8.842  20.508  0.00  0.00    +0.000 A 
ATOM     20  C   UNL     1       1.123   9.462  19.294  0.00  0.00    +0.000 A 
ATOM     21  C   UNL     1       0.357  10.650  19.329  0.00  0.00    +0.000 A 
ATOM     22  C   UNL     1      -0.277  10.705  20.562  0.00  0.00    +0.000 A 
ATOM     23  O   UNL     1       0.085   9.587  21.281  0.00  0.00    +0.000 OA
BRANCH  22  24
ATOM     24  C   UNL     1      -1.188  11.718  21.033  0.00  0.00    +0.000 A 
ATOM     25  N   UNL     1      -1.658  11.716  22.263  0.00  0.00    +0.000 NA
ATOM     26  C   UNL     1      -2.447  12.836  22.469  0.00  0.00    +0.000 A 
ATOM     27  C   UNL     1      -3.093  13.184  23.675  0.00  0.00    +0.000 A 
ATOM     28  C   UNL     1      -3.842  14.364  23.751  0.00  0.00    +0.000 A 
ATOM     29  C   UNL     1      -3.961  15.193  22.641  0.00  0.00    +0.000 A 
ATOM     30  C   UNL     1      -3.340  14.866  21.431  0.00  0.00    +0.000 A 
ATOM     31  C   UNL     1      -2.584  13.682  21.368  0.00  0.00    +0.000 A 
ATOM     32  S   UNL     1      -1.700  13.022  20.044  0.00  0.00    +0.000 S 
ENDBRANCH  22  24
ENDBRANCH  18  19
ENDBRANCH   3  18
TORSDOF 6
ENDMDL
MODEL 3
REMARK VINA RESULT:      -8.4      4.263     10.655
REMARK  Name = 
REMARK  7 active torsions:
REMARK  status: ('A' for Active; 'I' for Inactive)
REMARK    1  A    between atoms: C_1  and  C_2
REMARK    2  A    between atoms: C_5  and  S_6
REMARK    3  A    between atoms: S_6  and  N_7
REMARK    4  A    between atoms: C_11  and  C_12
REMARK    5  A    between atoms: N_14  and  C_15
REMARK    6  A    between atoms: C_15  and  C_16
REMARK    7  A    between atoms: C_19  and  C_20
REMARK                            x       y       z     vdW  Elec       q    Type
REMARK                         _______ _______ _______ _____ _____    ______ ____
ROOT
ATOM      1  C   UNL     1       2.696   5.510  20.133  0.00  0.00    +0.000 C 
ATOM      2  O   UNL     1       2.453   4.746  21.062  0.00  0.00    +0.000 OA
ATOM      3  N   UNL     1       2.262   6.813  20.110  0.00  0.00    +0.000 N 
ATOM      4  H   UNL     1       2.246   7.311  19.235  0.00  0.00    +0.000 HD
ENDROOT
BRANCH   1  11
ATOM      5  C   UNL     1       1.467   3.915  17.734  0.00  0.00    +0.000 C 
ATOM      6  C   UNL     1       2.917   4.291  17.855  0.00  0.00    +0.000 A 
ATOM      7  C   UNL     1       3.759   3.933  16.779  0.00  0.00    +0.000 A 
ATOM      8  C   UNL     1       5.101   4.305  16.749  0.00  0.00    +0.000 A 
ATOM      9  C   UNL     1       5.624   5.040  17.807  0.00  0.00    +0.000 A 
ATOM     10  C   UNL     1       4.825   5.382  18.902  0.00  0.00    +0.000 A 
ATOM     11  C   UNL     1       3.467   5.014  18.941  0.00  0.00    +0.000 A 
BRANCH   9  12
ATOM     12  S   UNL     1       7.303   5.595  17.738  0.00  0.00    +0.000 S 
ATOM     13  O   UNL     1       7.519   6.240  16.468  0.00  0.00    +0.000 OA
ATOM     14  O   UNL     1       7.660   6.202  19.000  0.00  0.00    +0.000 OA
BRANCH  12  15
ATOM     15  N   UNL     1       8.143   4.141  17.688  0.00  0.00    +0.000 NA
ATOM     16  H   UNL     1       7.521   3.380  17.412  0.00  0.00    +0.000 HD
ATOM     17  H   UNL     1       8.976   4.234  17.110  0.00  0.00    +0.000 HD
ENDBRANCH  12  15
ENDBRANCH   9  12
ENDBRANCH   1  11
BRANCH   3  18
ATOM     18  C   UNL     1       1.470   7.385  21.179  0.00  0.00    +0.000 C 
BRANCH  18  19
ATOM     19  C   UNL     1       1.094   8.766  20.779  0.00  0.00    +0.000 A 
ATOM     20  C   UNL     1       1.053   9.411  19.563  0.00  0.00    +0.000 A 
ATOM     21  C   UNL     1       0.567  10.714  19.822  0.00  0.00    +0.000 A 
ATOM     22  C   UNL     1       0.326  10.810  21.185  0.00  0.00    +0.000 A 
ATOM     23  O   UNL     1       0.656   9.605  21.765  0.00  0.00    +0.000 OA
BRANCH  22  24
ATOM     24  C   UNL     1      -0.209  11.941  21.901  0.00  0.00    +0.000 A 
ATOM     25  N   UNL     1       0.337  13.137  21.823  0.00  0.00    +0.000 NA
ATOM     26  C   UNL     1      -0.416  14.049  22.546  0.00  0.00    +0.000 A 
ATOM     27  C   UNL     1      -0.153  15.430  22.666  0.00  0.00    +0.000 A 
ATOM     28  C   UNL     1      -1.016  16.243  23.409  0.00  0.00    +0.000 A 
ATOM     29  C   UNL     1      -2.130  15.695  24.038  0.00  0.00    +0.000 A 
ATOM     30  C   UNL     1      -2.407  14.327  23.944  0.00  0.00    +0.000 A 
ATOM     31  C   UNL     1      -1.537  13.522  23.189  0.00  0.00    +0.000 A 
ATOM     32  S   UNL     1      -1.615  11.829  22.875  0.00  0.00    +0.000 S 
ENDBRANCH  22  24
ENDBRANCH  18  19
ENDBRANCH   3  18
TORSDOF 6
ENDMDL
MODEL 4
REMARK VINA RESULT:      -8.4      3.461     10.631
REMARK  Name = 
REMARK  7 active torsions:
REMARK  status: ('A' for Active; 'I' for Inactive)
REMARK    1  A    between atoms: C_1  and  C_2
REMARK    2  A    between atoms: C_5  and  S_6
REMARK    3  A    between atoms: S_6  and  N_7
REMARK    4  A    between atoms: C_11  and  C_12
REMARK    5  A    between atoms: N_14  and  C_15
REMARK    6  A    between atoms: C_15  and  C_16
REMARK    7  A    between atoms: C_19  and  C_20
REMARK                            x       y       z     vdW  Elec       q    Type
REMARK                         _______ _______ _______ _____ _____    ______ ____
ROOT
ATOM      1  C   UNL     1       2.573   5.738  20.221  0.00  0.00    +0.000 C 
ATOM      2  O   UNL     1       2.148   4.989  21.095  0.00  0.00    +0.000 OA
ATOM      3  N   UNL     1       2.255   7.073  20.167  0.00  0.00    +0.000 N 
ATOM      4  H   UNL     1       2.396   7.578  19.308  0.00  0.00    +0.000 HD
ENDROOT
BRANCH   1  11
ATOM      5  C   UNL     1       1.541   4.274  17.651  0.00  0.00    +0.000 C 
ATOM      6  C   UNL     1       2.989   4.524  17.968  0.00  0.00    +0.000 A 
ATOM      7  C   UNL     1       3.932   4.105  17.004  0.00  0.00    +0.000 A 
ATOM      8  C   UNL     1       5.293   4.362  17.156  0.00  0.00    +0.000 A 
ATOM      9  C   UNL     1       5.732   5.040  18.287  0.00  0.00    +0.000 A 
ATOM     10  C   UNL     1       4.828   5.440  19.276  0.00  0.00    +0.000 A 
ATOM     11  C   UNL     1       3.450   5.188  19.130  0.00  0.00    +0.000 A 
BRANCH   9  12
ATOM     12  S   UNL     1       7.446   5.451  18.448  0.00  0.00    +0.000 S 
ATOM     13  O   UNL     1       8.229   4.350  17.948  0.00  0.00    +0.000 OA
ATOM     14  O   UNL     1       7.653   6.819  18.028  0.00  0.00    +0.000 OA
BRANCH  12  15
ATOM     15  N   UNL     1       7.640   5.462  20.116  0.00  0.00    +0.000 NA
ATOM     16  H   UNL     1       7.874   6.401  20.442  0.00  0.00    +0.000 HD
ATOM     17  H   UNL     1       6.825   5.051  20.570  0.00  0.00    +0.000 HD
ENDBRANCH  12  15
ENDBRANCH   9  12
ENDBRANCH   1  11
BRANCH   3  18
ATOM     18  C   UNL     1       1.380   7.701  21.135  0.00  0.00    +0.000 C 
BRANCH  18  19
ATOM     19  C   UNL     1       0.881   8.970  20.543  0.00  0.00    +0.000 A 
ATOM     20  C   UNL     1       1.063   9.566  19.315  0.00  0.00    +0.000 A 
ATOM     21  C   UNL     1       0.291  10.750  19.332  0.00  0.00    +0.000 A 
ATOM     22  C   UNL     1      -0.336  10.828  20.567  0.00  0.00    +0.000 A 
ATOM     23  O   UNL     1       0.037   9.726  21.307  0.00  0.00    +0.000 OA
BRANCH  22  24
ATOM     24  C   UNL     1      -1.249  11.845  21.023  0.00  0.00    +0.000 A 
ATOM     25  N   UNL     1      -2.310  12.194  20.324  0.00  0.00    +0.000 NA
ATOM     26  C   UNL     1      -3.049  13.134  21.024  0.00  0.00    +0.000 A 
ATOM     27  C   UNL     1      -4.264  13.715  20.602  0.00  0.00    +0.000 A 
ATOM     28  C   UNL     1      -4.921  14.636  21.425  0.00  0.00    +0.000 A 
ATOM     29  C   UNL     1      -4.379  14.989  22.656  0.00  0.00    +0.000 A 
ATOM     30  C   UNL     1      -3.171  14.436  23.094  0.00  0.00    +0.000 A 
ATOM     31  C   UNL     1      -2.523  13.506  22.262  0.00  0.00    +0.000 A 
ATOM     32  S   UNL     1      -1.051  12.651  22.523  0.00  0.00    +0.000 S 
ENDBRANCH  22  24
ENDBRANCH  18  19
ENDBRANCH   3  18
TORSDOF 6
ENDMDL
MODEL 5
REMARK VINA RESULT:      -8.4      3.948     10.602
REMARK  Name = 
REMARK  7 active torsions:
REMARK  status: ('A' for Active; 'I' for Inactive)
REMARK    1  A    between atoms: C_1  and  C_2
REMARK    2  A    between atoms: C_5  and  S_6
REMARK    3  A    between atoms: S_6  and  N_7
REMARK    4  A    between atoms: C_11  and  C_12
REMARK    5  A    between atoms: N_14  and  C_15
REMARK    6  A    between atoms: C_15  and  C_16
REMARK    7  A    between atoms: C_19  and  C_20
REMARK                            x       y       z     vdW  Elec       q    Type
REMARK                         _______ _______ _______ _____ _____    ______ ____
ROOT
ATOM      1  C   UNL     1       2.309   5.661  20.075  0.00  0.00    +0.000 C 
ATOM      2  O   UNL     1       1.571   4.897  20.689  0.00  0.00    +0.000 OA
ATOM      3  N   UNL     1       2.283   7.022  20.255  0.00  0.00    +0.000 N 
ATOM      4  H   UNL     1       2.697   7.619  19.556  0.00  0.00    +0.000 HD
ENDROOT
BRANCH   1  11
ATOM      5  C   UNL     1       1.470   4.141  17.468  0.00  0.00    +0.000 C 
ATOM      6  C   UNL     1       2.889   4.424  17.872  0.00  0.00    +0.000 A 
ATOM      7  C   UNL     1       3.900   4.011  16.975  0.00  0.00    +0.000 A 
ATOM      8  C   UNL     1       5.244   4.296  17.209  0.00  0.00    +0.000 A 
ATOM      9  C   UNL     1       5.597   4.998  18.356  0.00  0.00    +0.000 A 
ATOM     10  C   UNL     1       4.624   5.394  19.279  0.00  0.00    +0.000 A 
ATOM     11  C   UNL     1       3.263   5.113  19.050  0.00  0.00    +0.000 A 
BRANCH   9  12
ATOM     12  S   UNL     1       7.289   5.445  18.619  0.00  0.00    +0.000 S 
ATOM     13  O   UNL     1       7.562   6.655  17.886  0.00  0.00    +0.000 OA
ATOM     14  O   UNL     1       7.617   5.281  20.017  0.00  0.00    +0.000 OA
BRANCH  12  15
ATOM     15  N   UNL     1       8.097   4.207  17.823  0.00  0.00    +0.000 NA
ATOM     16  H   UNL     1       9.017   4.523  17.512  0.00  0.00    +0.000 HD
ATOM     17  H   UNL     1       8.116   3.368  18.401  0.00  0.00    +0.000 HD
ENDBRANCH  12  15
ENDBRANCH   9  12
ENDBRANCH   1  11
BRANCH   3  18
ATOM     18  C   UNL     1       1.372   7.666  21.177  0.00  0.00    +0.000 C 
BRANCH  18  19
ATOM     19  C   UNL     1       0.983   8.977  20.595  0.00  0.00    +0.000 A 
ATOM     20  C   UNL     1       1.083   9.507  19.328  0.00  0.00    +0.000 A 
ATOM     21  C   UNL     1       0.496  10.791  19.388  0.00  0.00    +0.000 A 
ATOM     22  C   UNL     1       0.056  10.994  20.688  0.00  0.00    +0.000 A 
ATOM     23  O   UNL     1       0.364   9.870  21.424  0.00  0.00    +0.000 OA
BRANCH  22  24
ATOM     24  C   UNL     1      -0.635  12.146  21.209  0.00  0.00    +0.000 A 
ATOM     25  N   UNL     1      -0.463  12.563  22.446  0.00  0.00    +0.000 NA
ATOM     26  C   UNL     1      -1.186  13.725  22.658  0.00  0.00    +0.000 A 
ATOM     27  C   UNL     1      -1.220  14.473  23.855  0.00  0.00    +0.000 A 
ATOM     28  C   UNL     1      -1.976  15.649  23.922  0.00  0.00    +0.000 A 
ATOM     29  C   UNL     1      -2.703  16.082  22.818  0.00  0.00    +0.000 A 
ATOM     30  C   UNL     1      -2.695  15.353  21.623  0.00  0.00    +0.000 A 
ATOM     31  C   UNL     1      -1.926  14.178  21.565  0.00  0.00    +0.000 A 
ATOM     32  S   UNL     1      -1.703  13.085  20.251  0.00  0.00    +0.000 S 
ENDBRANCH  22  24
ENDBRANCH  18  19
ENDBRANCH   3  18
TORSDOF 6
ENDMDL
MODEL 6
REMARK VINA RESULT:      -8.3      4.326     10.603
REMARK  Name = 
REMARK  7 active torsions:
REMARK  status: ('A' for Active; 'I' for Inactive)
REMARK    1  A    between atoms: C_1  and  C_2
REMARK    2  A    between atoms: C_5  and  S_6
REMARK    3  A    between atoms: S_6  and  N_7
REMARK    4  A    between atoms: C_11  and  C_12
REMARK    5  A    between atoms: N_14  and  C_15
REMARK    6  A    between atoms: C_15  and  C_16
REMARK    7  A    between atoms: C_19  and  C_20
REMARK                            x       y       z     vdW  Elec       q    Type
REMARK                         _______ _______ _______ _____ _____    ______ ____
ROOT
ATOM      1  C   UNL     1       2.672   5.604  20.080  0.00  0.00    +0.000 C 
ATOM      2  O   UNL     1       2.338   4.902  21.030  0.00  0.00    +0.000 OA
ATOM      3  N   UNL     1       2.321   6.927  19.975  0.00  0.00    +0.000 N 
ATOM      4  H   UNL     1       2.378   7.382  19.079  0.00  0.00    +0.000 HD
ENDROOT
BRANCH   1  11
ATOM      5  C   UNL     1       1.453   4.078  17.631  0.00  0.00    +0.000 C 
ATOM      6  C   UNL     1       2.921   4.312  17.845  0.00  0.00    +0.000 A 
ATOM      7  C   UNL     1       3.793   3.848  16.836  0.00  0.00    +0.000 A 
ATOM      8  C   UNL     1       5.165   4.086  16.891  0.00  0.00    +0.000 A 
ATOM      9  C   UNL     1       5.687   4.791  17.970  0.00  0.00    +0.000 A 
ATOM     10  C   UNL     1       4.855   5.238  19.001  0.00  0.00    +0.000 A 
ATOM     11  C   UNL     1       3.467   5.005  18.953  0.00  0.00    +0.000 A 
BRANCH   9  12
ATOM     12  S   UNL     1       7.414   5.177  18.006  0.00  0.00    +0.000 S 
ATOM     13  O   UNL     1       7.770   5.555  19.350  0.00  0.00    +0.000 OA
ATOM     14  O   UNL     1       8.143   4.185  17.249  0.00  0.00    +0.000 OA
BRANCH  12  15
ATOM     15  N   UNL     1       7.472   6.577  17.080  0.00  0.00    +0.000 NA
ATOM     16  H   UNL     1       6.974   6.443  16.199  0.00  0.00    +0.000 HD
ATOM     17  H   UNL     1       7.150   7.375  17.627  0.00  0.00    +0.000 HD
ENDBRANCH  12  15
ENDBRANCH   9  12
ENDBRANCH   1  11
BRANCH   3  18
ATOM     18  C   UNL     1       1.515   7.597  20.975  0.00  0.00    +0.000 C 
BRANCH  18  19
ATOM     19  C   UNL     1       1.191   8.955  20.465  0.00  0.00    +0.000 A 
ATOM     20  C   UNL     1       1.034   9.467  19.196  0.00  0.00    +0.000 A 
ATOM     21  C   UNL     1       0.686  10.828  19.358  0.00  0.00    +0.000 A 
ATOM     22  C   UNL     1       0.639  11.092  20.720  0.00  0.00    +0.000 A 
ATOM     23  O   UNL     1       0.954   9.931  21.392  0.00  0.00    +0.000 OA
BRANCH  22  24
ATOM     24  C   UNL     1       0.291  12.336  21.358  0.00  0.00    +0.000 A 
ATOM     25  N   UNL     1      -0.625  12.403  22.302  0.00  0.00    +0.000 NA
ATOM     26  C   UNL     1      -0.706  13.697  22.790  0.00  0.00    +0.000 A 
ATOM     27  C   UNL     1      -1.555  14.140  23.827  0.00  0.00    +0.000 A 
ATOM     28  C   UNL     1      -1.514  15.476  24.241  0.00  0.00    +0.000 A 
ATOM     29  C   UNL     1      -0.645  16.375  23.630  0.00  0.00    +0.000 A 
ATOM     30  C   UNL     1       0.199  15.964  22.593  0.00  0.00    +0.000 A 
ATOM     31  C   UNL     1       0.155  14.618  22.191  0.00  0.00    +0.000 A 
ATOM     32  S   UNL     1       1.068  13.814  20.970  0.00  0.00    +0.000 S 
ENDBRANCH  22  24
ENDBRANCH  18  19
ENDBRANCH   3  18
TORSDOF 6
ENDMDL
MODEL 7
REMARK VINA RESULT:      -8.3      4.339     10.564
REMARK  Name = 
REMARK  7 active torsions:
REMARK  status: ('A' for Active; 'I' for Inactive)
REMARK    1  A    between atoms: C_1  and  C_2
REMARK    2  A    between atoms: C_5  and  S_6
REMARK    3  A    between atoms: S_6  and  N_7
REMARK    4  A    between atoms: C_11  and  C_12
REMARK    5  A    between atoms: N_14  and  C_15
REMARK    6  A    between atoms: C_15  and  C_16
REMARK    7  A    between atoms: C_19  and  C_20
REMARK                            x       y       z     vdW  Elec       q    Type
REMARK                         _______ _______ _______ _____ _____    ______ ____
ROOT
ATOM      1  C   UNL     1       2.451   6.040  20.027  0.00  0.00    +0.000 C 
ATOM      2  O   UNL     1       1.832   5.392  20.865  0.00  0.00    +0.000 OA
ATOM      3  N   UNL     1       2.338   7.404  19.913  0.00  0.00    +0.000 N 
ATOM      4  H   UNL     1       2.640   7.853  19.064  0.00  0.00    +0.000 HD
ENDROOT
BRANCH   1  11
ATOM      5  C   UNL     1       1.462   4.223  17.675  0.00  0.00    +0.000 C 
ATOM      6  C   UNL     1       2.904   4.509  17.985  0.00  0.00    +0.000 A 
ATOM      7  C   UNL     1       3.865   3.950  17.113  0.00  0.00    +0.000 A 
ATOM      8  C   UNL     1       5.225   4.218  17.257  0.00  0.00    +0.000 A 
ATOM      9  C   UNL     1       5.645   5.051  18.288  0.00  0.00    +0.000 A 
ATOM     10  C   UNL     1       4.722   5.596  19.187  0.00  0.00    +0.000 A 
ATOM     11  C   UNL     1       3.346   5.333  19.048  0.00  0.00    +0.000 A 
BRANCH   9  12
ATOM     12  S   UNL     1       7.358   5.472  18.426  0.00  0.00    +0.000 S 
ATOM     13  O   UNL     1       8.140   4.380  17.904  0.00  0.00    +0.000 OA
ATOM     14  O   UNL     1       7.550   6.844  18.015  0.00  0.00    +0.000 OA
BRANCH  12  15
ATOM     15  N   UNL     1       7.578   5.468  20.091  0.00  0.00    +0.000 NA
ATOM     16  H   UNL     1       8.384   4.895  20.343  0.00  0.00    +0.000 HD
ATOM     17  H   UNL     1       7.615   6.424  20.444  0.00  0.00    +0.000 HD
ENDBRANCH  12  15
ENDBRANCH   9  12
ENDBRANCH   1  11
BRANCH   3  18
ATOM     18  C   UNL     1       1.469   8.185  20.769  0.00  0.00    +0.000 C 
BRANCH  18  19
ATOM     19  C   UNL     1       0.882   9.277  19.948  0.00  0.00    +0.000 A 
ATOM     20  C   UNL     1      -0.237   9.351  19.150  0.00  0.00    +0.000 A 
ATOM     21  C   UNL     1      -0.290  10.677  18.664  0.00  0.00    +0.000 A 
ATOM     22  C   UNL     1       0.796  11.362  19.189  0.00  0.00    +0.000 A 
ATOM     23  O   UNL     1       1.514  10.489  19.977  0.00  0.00    +0.000 OA
BRANCH  22  24
ATOM     24  C   UNL     1       1.132  12.751  18.997  0.00  0.00    +0.000 A 
ATOM     25  N   UNL     1       2.253  13.123  18.415  0.00  0.00    +0.000 NA
ATOM     26  C   UNL     1       2.287  14.503  18.293  0.00  0.00    +0.000 A 
ATOM     27  C   UNL     1       3.318  15.257  17.694  0.00  0.00    +0.000 A 
ATOM     28  C   UNL     1       3.210  16.650  17.614  0.00  0.00    +0.000 A 
ATOM     29  C   UNL     1       2.092  17.298  18.132  0.00  0.00    +0.000 A 
ATOM     30  C   UNL     1       1.061  16.575  18.740  0.00  0.00    +0.000 A 
ATOM     31  C   UNL     1       1.177  15.176  18.808  0.00  0.00    +0.000 A 
ATOM     32  S   UNL     1       0.084  14.021  19.472  0.00  0.00    +0.000 S 
ENDBRANCH  22  24
ENDBRANCH  18  19
ENDBRANCH   3  18
TORSDOF 6
ENDMDL
MODEL 8
REMARK VINA RESULT:      -8.2      4.223     10.674
REMARK  Name = 
REMARK  7 active torsions:
REMARK  status: ('A' for Active; 'I' for Inactive)
REMARK    1  A    between atoms: C_1  and  C_2
REMARK    2  A    between atoms: C_5  and  S_6
REMARK    3  A    between atoms: S_6  and  N_7
REMARK    4  A    between atoms: C_11  and  C_12
REMARK    5  A    between atoms: N_14  and  C_15
REMARK    6  A    between atoms: C_15  and  C_16
REMARK    7  A    between atoms: C_19  and  C_20
REMARK                            x       y       z     vdW  Elec       q    Type
REMARK                         _______ _______ _______ _____ _____    ______ ____
ROOT
ATOM      1  C   UNL     1       2.404   7.964  18.331  0.00  0.00    +0.000 C 
ATOM      2  O   UNL     1       2.221   8.424  17.208  0.00  0.00    +0.000 OA
ATOM      3  N   UNL     1       1.817   8.493  19.454  0.00  0.00    +0.000 N 
ATOM      4  H   UNL     1       2.195   8.268  20.360  0.00  0.00    +0.000 HD
ENDROOT
BRANCH   1  11
ATOM      5  C   UNL     1       1.891   5.544  20.252  0.00  0.00    +0.000 C 
ATOM      6  C   UNL     1       3.109   5.703  19.385  0.00  0.00    +0.000 A 
ATOM      7  C   UNL     1       4.053   4.653  19.416  0.00  0.00    +0.000 A 
ATOM      8  C   UNL     1       5.176   4.657  18.591  0.00  0.00    +0.000 A 
ATOM      9  C   UNL     1       5.373   5.724  17.722  0.00  0.00    +0.000 A 
ATOM     10  C   UNL     1       4.474   6.795  17.689  0.00  0.00    +0.000 A 
ATOM     11  C   UNL     1       3.335   6.798  18.517  0.00  0.00    +0.000 A 
BRANCH   9  12
ATOM     12  S   UNL     1       6.746   5.698  16.606  0.00  0.00    +0.000 S 
ATOM     13  O   UNL     1       7.674   4.687  17.046  0.00  0.00    +0.000 OA
ATOM     14  O   UNL     1       6.261   5.781  15.246  0.00  0.00    +0.000 OA
BRANCH  12  15
ATOM     15  N   UNL     1       7.468   7.182  16.915  0.00  0.00    +0.000 NA
ATOM     16  H   UNL     1       7.630   7.688  16.043  0.00  0.00    +0.000 HD
ATOM     17  H   UNL     1       6.927   7.700  17.606  0.00  0.00    +0.000 HD
ENDBRANCH  12  15
ENDBRANCH   9  12
ENDBRANCH   1  11
BRANCH   3  18
ATOM     18  C   UNL     1       0.942   9.646  19.402  0.00  0.00    +0.000 C 
BRANCH  18  19
ATOM     19  C   UNL     1       0.409   9.876  20.770  0.00  0.00    +0.000 A 
ATOM     20  C   UNL     1       0.435   9.126  21.925  0.00  0.00    +0.000 A 
ATOM     21  C   UNL     1      -0.208   9.902  22.916  0.00  0.00    +0.000 A 
ATOM     22  C   UNL     1      -0.597  11.098  22.329  0.00  0.00    +0.000 A 
ATOM     23  O   UNL     1      -0.214  11.070  21.006  0.00  0.00    +0.000 OA
BRANCH  22  24
ATOM     24  C   UNL     1      -1.256  12.211  22.964  0.00  0.00    +0.000 A 
ATOM     25  N   UNL     1      -0.596  13.284  23.350  0.00  0.00    +0.000 NA
ATOM     26  C   UNL     1      -1.478  14.224  23.859  0.00  0.00    +0.000 A 
ATOM     27  C   UNL     1      -1.137  15.506  24.340  0.00  0.00    +0.000 A 
ATOM     28  C   UNL     1      -2.138  16.368  24.803  0.00  0.00    +0.000 A 
ATOM     29  C   UNL     1      -3.469  15.964  24.800  0.00  0.00    +0.000 A 
ATOM     30  C   UNL     1      -3.833  14.694  24.339  0.00  0.00    +0.000 A 
ATOM     31  C   UNL     1      -2.820  13.840  23.869  0.00  0.00    +0.000 A 
ATOM     32  S   UNL     1      -2.949  12.244  23.232  0.00  0.00    +0.000 S 
ENDBRANCH  22  24
ENDBRANCH  18  19
ENDBRANCH   3  18
TORSDOF 6
ENDMDL
MODEL 9
REMARK VINA RESULT:      -8.2      4.383     10.383
REMARK  Name = 
REMARK  7 active torsions:
REMARK  status: ('A' for Active; 'I' for Inactive)
REMARK    1  A    between atoms: C_1  and  C_2
REMARK    2  A    between atoms: C_5  and  S_6
REMARK    3  A    between atoms: S_6  and  N_7
REMARK    4  A    between atoms: C_11  and  C_12
REMARK    5  A    between atoms: N_14  and  C_15
REMARK    6  A    between atoms: C_15  and  C_16
REMARK    7  A    between atoms: C_19  and  C_20
REMARK                            x       y       z     vdW  Elec       q    Type
REMARK                         _______ _______ _______ _____ _____    ______ ____
ROOT
ATOM      1  C   UNL     1       2.302   5.949  20.160  0.00  0.00    +0.000 C 
ATOM      2  O   UNL     1       1.622   5.238  20.893  0.00  0.00    +0.000 OA
ATOM      3  N   UNL     1       2.247   7.321  20.198  0.00  0.00    +0.000 N 
ATOM      4  H   UNL     1       2.603   7.849  19.418  0.00  0.00    +0.000 HD
ENDROOT
BRANCH   1  11
ATOM      5  C   UNL     1       1.354   4.455  17.576  0.00  0.00    +0.000 C 
ATOM      6  C   UNL     1       2.790   4.640  17.976  0.00  0.00    +0.000 A 
ATOM      7  C   UNL     1       3.768   4.141  17.087  0.00  0.00    +0.000 A 
ATOM      8  C   UNL     1       5.129   4.332  17.318  0.00  0.00    +0.000 A 
ATOM      9  C   UNL     1       5.532   5.024  18.454  0.00  0.00    +0.000 A 
ATOM     10  C   UNL     1       4.591   5.503  19.370  0.00  0.00    +0.000 A 
ATOM     11  C   UNL     1       3.214   5.318  19.145  0.00  0.00    +0.000 A 
BRANCH   9  12
ATOM     12  S   UNL     1       7.253   5.350  18.711  0.00  0.00    +0.000 S 
ATOM     13  O   UNL     1       7.476   5.539  20.122  0.00  0.00    +0.000 OA
ATOM     14  O   UNL     1       8.039   4.444  17.905  0.00  0.00    +0.000 OA
BRANCH  12  15
ATOM     15  N   UNL     1       7.427   6.856  17.990  0.00  0.00    +0.000 NA
ATOM     16  H   UNL     1       6.638   7.459  18.227  0.00  0.00    +0.000 HD
ATOM     17  H   UNL     1       8.339   7.252  18.214  0.00  0.00    +0.000 HD
ENDBRANCH  12  15
ENDBRANCH   9  12
ENDBRANCH   1  11
BRANCH   3  18
ATOM     18  C   UNL     1       1.369   8.038  21.100  0.00  0.00    +0.000 C 
BRANCH  18  19
ATOM     19  C   UNL     1       0.764   9.167  20.346  0.00  0.00    +0.000 A 
ATOM     20  C   UNL     1      -0.505   9.400  19.866  0.00  0.00    +0.000 A 
ATOM     21  C   UNL     1      -0.474  10.681  19.268  0.00  0.00    +0.000 A 
ATOM     22  C   UNL     1       0.812  11.181  19.411  0.00  0.00    +0.000 A 
ATOM     23  O   UNL     1       1.567  10.239  20.075  0.00  0.00    +0.000 OA
BRANCH  22  24
ATOM     24  C   UNL     1       1.303  12.468  18.986  0.00  0.00    +0.000 A 
ATOM     25  N   UNL     1       0.676  13.587  19.286  0.00  0.00    +0.000 NA
ATOM     26  C   UNL     1       1.399  14.673  18.820  0.00  0.00    +0.000 A 
ATOM     27  C   UNL     1       1.052  16.031  18.983  0.00  0.00    +0.000 A 
ATOM     28  C   UNL     1       1.892  17.032  18.482  0.00  0.00    +0.000 A 
ATOM     29  C   UNL     1       3.066  16.695  17.815  0.00  0.00    +0.000 A 
ATOM     30  C   UNL     1       3.428  15.357  17.631  0.00  0.00    +0.000 A 
ATOM     31  C   UNL     1       2.580  14.360  18.145  0.00  0.00    +0.000 A 
ATOM     32  S   UNL     1       2.755  12.647  18.093  0.00  0.00    +0.000 S 
ENDBRANCH  22  24
ENDBRANCH  18  19
ENDBRANCH   3  18
TORSDOF 6
ENDMDL
