MODEL 1
REMARK VINA RESULT:      -8.4      0.000      0.000
REMARK  Name = 
REMARK  5 active torsions:
REMARK  status: ('A' for Active; 'I' for Inactive)
REMARK    1  A    between atoms: S_2  and  N_4
REMARK    2  A    between atoms: S_2  and  C_20
REMARK    3  A    between atoms: N_4  and  C_5
REMARK    4  A    between atoms: C_7  and  C_8
REMARK    5  A    between atoms: C_14  and  N_15
REMARK                            x       y       z     vdW  Elec       q    Type
REMARK                         _______ _______ _______ _____ _____    ______ ____
ROOT
ATOM      1  N   UNL     1       3.002   4.984  18.008  0.00  0.00    +0.000 N 
ATOM      2  H   UNL     1       2.395   4.149  17.998  0.00  0.00    +0.000 HD
ENDROOT
BRANCH   1   3
ATOM      3  C   UNL     1       2.401   6.025  18.791  0.00  0.00    +0.000 A 
ATOM      4  C   UNL     1       2.423   7.332  18.289  0.00  0.00    +0.000 A 
ATOM      5  C   UNL     1       1.797   8.376  18.995  0.00  0.00    +0.000 A 
ATOM      6  C   UNL     1       1.155   8.092  20.207  0.00  0.00    +0.000 A 
ATOM      7  C   UNL     1       1.193   6.806  20.748  0.00  0.00    +0.000 A 
ATOM      8  C   UNL     1       1.834   5.766  20.055  0.00  0.00    +0.000 A 
BRANCH   8   9
ATOM      9  N   UNL     1       1.907   4.491  20.654  0.00  0.00    +0.000 N 
ATOM     10  C   UNL     1       2.650   4.101  21.738  0.00  0.00    +0.000 A 
ATOM     11  N   UNL     1       2.482   2.821  21.983  0.00  0.00    +0.000 NA
ATOM     12  C   UNL     1       1.622   2.440  20.999  0.00  0.00    +0.000 A 
ATOM     13  N   UNL     1       1.223   3.413  20.172  0.00  0.00    +0.000 NA
ENDBRANCH   8   9
BRANCH   5  14
ATOM     14  C   UNL     1       1.789   9.795  18.474  0.00  0.00    +0.000 C 
ATOM     15  F   UNL     1       2.952  10.173  17.879  0.00  0.00    +0.000 F 
ATOM     16  F   UNL     1       0.809   9.995  17.548  0.00  0.00    +0.000 F 
ATOM     17  F   UNL     1       1.555  10.703  19.461  0.00  0.00    +0.000 F 
ENDBRANCH   5  14
ENDBRANCH   1   3
BRANCH   1  19
ATOM     18  O   UNL     1       5.064   5.386  19.479  0.00  0.00    +0.000 OA
ATOM     19  S   UNL     1       4.554   4.456  18.498  0.00  0.00    +0.000 S 
ATOM     20  O   UNL     1       4.482   3.033  18.765  0.00  0.00    +0.000 OA
BRANCH  19  21
ATOM     21  C   UNL     1       5.456   4.695  16.980  0.00  0.00    +0.000 A 
ATOM     22  C   UNL     1       6.715   5.291  16.973  0.00  0.00    +0.000 A 
ATOM     23  C   UNL     1       7.417   5.378  15.765  0.00  0.00    +0.000 A 
ATOM     24  C   UNL     1       6.888   4.844  14.573  0.00  0.00    +0.000 A 
ATOM     25  C   UNL     1       5.635   4.227  14.596  0.00  0.00    +0.000 A 
ATOM     26  C   UNL     1       4.911   4.182  15.799  0.00  0.00    +0.000 A 
ATOM     27  C   UNL     1       5.006   3.651  13.361  0.00  0.00    +0.000 C 
ATOM     28  C   UNL     1       5.970   3.327  12.228  0.00  0.00    +0.000 C 
ATOM     29  C   UNL     1       7.179   4.239  12.067  0.00  0.00    +0.000 C 
ATOM     30  C   UNL     1       7.666   5.008  13.297  0.00  0.00    +0.000 C 
ENDBRANCH  19  21
ENDBRANCH   1  19
TORSDOF 5
ENDMDL
MODEL 2
REMARK VINA RESULT:      -8.3      4.141      8.001
REMARK  Name = 
REMARK  5 active torsions:
REMARK  status: ('A' for Active; 'I' for Inactive)
REMARK    1  A    between atoms: S_2  and  N_4
REMARK    2  A    between atoms: S_2  and  C_20
REMARK    3  A    between atoms: N_4  and  C_5
REMARK    4  A    between atoms: C_7  and  C_8
REMARK    5  A    between atoms: C_14  and  N_15
REMARK                            x       y       z     vdW  Elec       q    Type
REMARK                         _______ _______ _______ _____ _____    ______ ____
ROOT
ATOM      1  N   UNL     1       3.566   6.952  19.409  0.00  0.00    +0.000 N 
ATOM      2  H   UNL     1       3.170   7.342  20.279  0.00  0.00    +0.000 HD
ENDROOT
BRANCH   1   3
ATOM      3  C   UNL     1       3.713   5.530  19.526  0.00  0.00    +0.000 A 
ATOM      4  C   UNL     1       2.647   4.792  20.055  0.00  0.00    +0.000 A 
ATOM      5  C   UNL     1       2.723   3.390  20.138  0.00  0.00    +0.000 A 
ATOM      6  C   UNL     1       3.881   2.741  19.688  0.00  0.00    +0.000 A 
ATOM      7  C   UNL     1       4.975   3.476  19.229  0.00  0.00    +0.000 A 
ATOM      8  C   UNL     1       4.909   4.877  19.163  0.00  0.00    +0.000 A 
BRANCH   8   9
ATOM      9  N   UNL     1       6.050   5.595  18.751  0.00  0.00    +0.000 N 
ATOM     10  C   UNL     1       7.256   5.717  19.391  0.00  0.00    +0.000 A 
ATOM     11  N   UNL     1       8.068   6.497  18.713  0.00  0.00    +0.000 NA
ATOM     12  C   UNL     1       7.308   6.859  17.642  0.00  0.00    +0.000 A 
ATOM     13  N   UNL     1       6.079   6.330  17.601  0.00  0.00    +0.000 NA
ENDBRANCH   8   9
BRANCH   5  14
ATOM     14  C   UNL     1       1.584   2.562  20.688  0.00  0.00    +0.000 C 
ATOM     15  F   UNL     1       1.778   2.131  21.962  0.00  0.00    +0.000 F 
ATOM     16  F   UNL     1       0.408   3.251  20.698  0.00  0.00    +0.000 F 
ATOM     17  F   UNL     1       1.353   1.448  19.941  0.00  0.00    +0.000 F 
ENDBRANCH   5  14
ENDBRANCH   1   3
BRANCH   1  19
ATOM     18  O   UNL     1       3.428   8.199  17.172  0.00  0.00    +0.000 OA
ATOM     19  S   UNL     1       2.584   7.517  18.126  0.00  0.00    +0.000 S 
ATOM     20  O   UNL     1       1.700   6.440  17.727  0.00  0.00    +0.000 OA
BRANCH  19  21
ATOM     21  C   UNL     1       1.619   8.740  18.992  0.00  0.00    +0.000 A 
ATOM     22  C   UNL     1       0.919   9.729  18.304  0.00  0.00    +0.000 A 
ATOM     23  C   UNL     1       0.110  10.613  19.025  0.00  0.00    +0.000 A 
ATOM     24  C   UNL     1      -0.036  10.496  20.422  0.00  0.00    +0.000 A 
ATOM     25  C   UNL     1       0.651   9.485  21.100  0.00  0.00    +0.000 A 
ATOM     26  C   UNL     1       1.502   8.629  20.380  0.00  0.00    +0.000 A 
ATOM     27  C   UNL     1       0.554   9.314  22.587  0.00  0.00    +0.000 C 
ATOM     28  C   UNL     1      -0.671   9.940  23.238  0.00  0.00    +0.000 C 
ATOM     29  C   UNL     1      -1.197  11.229  22.623  0.00  0.00    +0.000 C 
ATOM     30  C   UNL     1      -0.883  11.502  21.150  0.00  0.00    +0.000 C 
ENDBRANCH  19  21
ENDBRANCH   1  19
TORSDOF 5
ENDMDL
MODEL 3
REMARK VINA RESULT:      -8.3      3.995      7.985
REMARK  Name = 
REMARK  5 active torsions:
REMARK  status: ('A' for Active; 'I' for Inactive)
REMARK    1  A    between atoms: S_2  and  N_4
REMARK    2  A    between atoms: S_2  and  C_20
REMARK    3  A    between atoms: N_4  and  C_5
REMARK    4  A    between atoms: C_7  and  C_8
REMARK    5  A    between atoms: C_14  and  N_15
REMARK                            x       y       z     vdW  Elec       q    Type
REMARK                         _______ _______ _______ _____ _____    ______ ____
ROOT
ATOM      1  N   UNL     1       3.584   6.815  19.517  0.00  0.00    +0.000 N 
ATOM      2  H   UNL     1       3.152   7.205  20.371  0.00  0.00    +0.000 HD
ENDROOT
BRANCH   1   3
ATOM      3  C   UNL     1       3.697   5.390  19.625  0.00  0.00    +0.000 A 
ATOM      4  C   UNL     1       2.602   4.671  20.121  0.00  0.00    +0.000 A 
ATOM      5  C   UNL     1       2.646   3.267  20.194  0.00  0.00    +0.000 A 
ATOM      6  C   UNL     1       3.799   2.596  19.766  0.00  0.00    +0.000 A 
ATOM      7  C   UNL     1       4.920   3.311  19.339  0.00  0.00    +0.000 A 
ATOM      8  C   UNL     1       4.886   4.714  19.285  0.00  0.00    +0.000 A 
BRANCH   8   9
ATOM      9  N   UNL     1       6.053   5.410  18.906  0.00  0.00    +0.000 N 
ATOM     10  C   UNL     1       6.332   6.018  17.711  0.00  0.00    +0.000 A 
ATOM     11  N   UNL     1       7.538   6.538  17.721  0.00  0.00    +0.000 NA
ATOM     12  C   UNL     1       7.993   6.212  18.962  0.00  0.00    +0.000 A 
ATOM     13  N   UNL     1       7.130   5.541  19.735  0.00  0.00    +0.000 NA
ENDBRANCH   8   9
BRANCH   5  14
ATOM     14  C   UNL     1       1.476   2.460  20.709  0.00  0.00    +0.000 C 
ATOM     15  F   UNL     1       1.178   1.372  19.951  0.00  0.00    +0.000 F 
ATOM     16  F   UNL     1       1.690   1.994  21.971  0.00  0.00    +0.000 F 
ATOM     17  F   UNL     1       0.334   3.199  20.777  0.00  0.00    +0.000 F 
ENDBRANCH   5  14
ENDBRANCH   1   3
BRANCH   1  19
ATOM     18  O   UNL     1       3.586   8.078  17.285  0.00  0.00    +0.000 OA
ATOM     19  S   UNL     1       2.680   7.414  18.193  0.00  0.00    +0.000 S 
ATOM     20  O   UNL     1       1.787   6.364  17.745  0.00  0.00    +0.000 OA
BRANCH  19  21
ATOM     21  C   UNL     1       1.708   8.658  19.020  0.00  0.00    +0.000 A 
ATOM     22  C   UNL     1       1.033   9.644  18.304  0.00  0.00    +0.000 A 
ATOM     23  C   UNL     1       0.216  10.546  18.995  0.00  0.00    +0.000 A 
ATOM     24  C   UNL     1       0.039  10.450  20.390  0.00  0.00    +0.000 A 
ATOM     25  C   UNL     1       0.702   9.442  21.096  0.00  0.00    +0.000 A 
ATOM     26  C   UNL     1       1.559   8.568  20.407  0.00  0.00    +0.000 A 
ATOM     27  C   UNL     1       0.571   9.293  22.584  0.00  0.00    +0.000 C 
ATOM     28  C   UNL     1      -0.662   9.939  23.199  0.00  0.00    +0.000 C 
ATOM     29  C   UNL     1      -1.163  11.225  22.555  0.00  0.00    +0.000 C 
ATOM     30  C   UNL     1      -0.814  11.473  21.085  0.00  0.00    +0.000 C 
ENDBRANCH  19  21
ENDBRANCH   1  19
TORSDOF 5
ENDMDL
MODEL 4
REMARK VINA RESULT:      -8.2      3.796      7.741
REMARK  Name = 
REMARK  5 active torsions:
REMARK  status: ('A' for Active; 'I' for Inactive)
REMARK    1  A    between atoms: S_2  and  N_4
REMARK    2  A    between atoms: S_2  and  C_20
REMARK    3  A    between atoms: N_4  and  C_5
REMARK    4  A    between atoms: C_7  and  C_8
REMARK    5  A    between atoms: C_14  and  N_15
REMARK                            x       y       z     vdW  Elec       q    Type
REMARK                         _______ _______ _______ _____ _____    ______ ____
ROOT
ATOM      1  N   UNL     1       4.419   5.671  16.527  0.00  0.00    +0.000 N 
ATOM      2  H   UNL     1       4.849   6.417  17.098  0.00  0.00    +0.000 HD
ENDROOT
BRANCH   1   3
ATOM      3  C   UNL     1       5.366   5.168  15.574  0.00  0.00    +0.000 A 
ATOM      4  C   UNL     1       4.881   4.496  14.446  0.00  0.00    +0.000 A 
ATOM      5  C   UNL     1       5.768   4.033  13.457  0.00  0.00    +0.000 A 
ATOM      6  C   UNL     1       7.143   4.251  13.616  0.00  0.00    +0.000 A 
ATOM      7  C   UNL     1       7.637   4.856  14.773  0.00  0.00    +0.000 A 
ATOM      8  C   UNL     1       6.755   5.301  15.771  0.00  0.00    +0.000 A 
BRANCH   8   9
ATOM      9  N   UNL     1       7.287   5.854  16.955  0.00  0.00    +0.000 N 
ATOM     10  C   UNL     1       7.663   5.207  18.103  0.00  0.00    +0.000 A 
ATOM     11  N   UNL     1       8.085   6.063  19.005  0.00  0.00    +0.000 NA
ATOM     12  C   UNL     1       7.938   7.260  18.372  0.00  0.00    +0.000 A 
ATOM     13  N   UNL     1       7.474   7.196  17.118  0.00  0.00    +0.000 NA
ENDBRANCH   8   9
BRANCH   5  14
ATOM     14  C   UNL     1       5.276   3.318  12.219  0.00  0.00    +0.000 C 
ATOM     15  F   UNL     1       3.926   3.167  12.167  0.00  0.00    +0.000 F 
ATOM     16  F   UNL     1       5.628   3.970  11.076  0.00  0.00    +0.000 F 
ATOM     17  F   UNL     1       5.802   2.067  12.107  0.00  0.00    +0.000 F 
ENDBRANCH   5  14
ENDBRANCH   1   3
BRANCH   1  19
ATOM     18  O   UNL     1       2.819   3.703  16.902  0.00  0.00    +0.000 OA
ATOM     19  S   UNL     1       3.755   4.535  17.621  0.00  0.00    +0.000 S 
ATOM     20  O   UNL     1       4.842   3.967  18.394  0.00  0.00    +0.000 OA
BRANCH  19  21
ATOM     21  C   UNL     1       2.830   5.630  18.680  0.00  0.00    +0.000 A 
ATOM     22  C   UNL     1       2.529   5.281  19.995  0.00  0.00    +0.000 A 
ATOM     23  C   UNL     1       1.874   6.211  20.809  0.00  0.00    +0.000 A 
ATOM     24  C   UNL     1       1.548   7.498  20.335  0.00  0.00    +0.000 A 
ATOM     25  C   UNL     1       1.876   7.846  19.022  0.00  0.00    +0.000 A 
ATOM     26  C   UNL     1       2.491   6.895  18.190  0.00  0.00    +0.000 A 
ATOM     27  C   UNL     1       1.545   9.192  18.447  0.00  0.00    +0.000 C 
ATOM     28  C   UNL     1       1.304  10.296  19.467  0.00  0.00    +0.000 C 
ATOM     29  C   UNL     1       0.653   9.891  20.782  0.00  0.00    +0.000 C 
ATOM     30  C   UNL     1       0.804   8.439  21.240  0.00  0.00    +0.000 C 
ENDBRANCH  19  21
ENDBRANCH   1  19
TORSDOF 5
ENDMDL
MODEL 5
REMARK VINA RESULT:      -8.1      4.887      7.206
REMARK  Name = 
REMARK  5 active torsions:
REMARK  status: ('A' for Active; 'I' for Inactive)
REMARK    1  A    between atoms: S_2  and  N_4
REMARK    2  A    between atoms: S_2  and  C_20
REMARK    3  A    between atoms: N_4  and  C_5
REMARK    4  A    between atoms: C_7  and  C_8
REMARK    5  A    between atoms: C_14  and  N_15
REMARK                            x       y       z     vdW  Elec       q    Type
REMARK                         _______ _______ _______ _____ _____    ______ ____
ROOT
ATOM      1  N   UNL     1       1.091  10.097  19.780  0.00  0.00    +0.000 N 
ATOM      2  H   UNL     1       1.488   9.572  18.984  0.00  0.00    +0.000 HD
ENDROOT
BRANCH   1   3
ATOM      3  C   UNL     1      -0.121  10.755  19.385  0.00  0.00    +0.000 A 
ATOM      4  C   UNL     1      -1.014  10.064  18.556  0.00  0.00    +0.000 A 
ATOM      5  C   UNL     1      -2.239  10.647  18.188  0.00  0.00    +0.000 A 
ATOM      6  C   UNL     1      -2.555  11.928  18.657  0.00  0.00    +0.000 A 
ATOM      7  C   UNL     1      -1.639  12.651  19.423  0.00  0.00    +0.000 A 
ATOM      8  C   UNL     1      -0.405  12.079  19.776  0.00  0.00    +0.000 A 
BRANCH   8   9
ATOM      9  N   UNL     1       0.524  12.855  20.499  0.00  0.00    +0.000 N 
ATOM     10  C   UNL     1       0.317  13.589  21.637  0.00  0.00    +0.000 A 
ATOM     11  N   UNL     1       1.418  14.207  22.002  0.00  0.00    +0.000 NA
ATOM     12  C   UNL     1       2.302  13.835  21.035  0.00  0.00    +0.000 A 
ATOM     13  N   UNL     1       1.822  13.002  20.104  0.00  0.00    +0.000 NA
ENDBRANCH   8   9
BRANCH   5  14
ATOM     14  C   UNL     1      -3.232   9.921  17.308  0.00  0.00    +0.000 C 
ATOM     15  F   UNL     1      -2.705   9.461  16.143  0.00  0.00    +0.000 F 
ATOM     16  F   UNL     1      -3.774   8.838  17.932  0.00  0.00    +0.000 F 
ATOM     17  F   UNL     1      -4.284  10.713  16.962  0.00  0.00    +0.000 F 
ENDBRANCH   5  14
ENDBRANCH   1   3
BRANCH   1  19
ATOM     18  O   UNL     1       1.901   9.406  22.113  0.00  0.00    +0.000 OA
ATOM     19  S   UNL     1       0.975   8.995  21.084  0.00  0.00    +0.000 S 
ATOM     20  O   UNL     1      -0.431   8.780  21.368  0.00  0.00    +0.000 OA
BRANCH  19  21
ATOM     21  C   UNL     1       1.618   7.527  20.307  0.00  0.00    +0.000 A 
ATOM     22  C   UNL     1       2.369   7.598  19.135  0.00  0.00    +0.000 A 
ATOM     23  C   UNL     1       2.921   6.424  18.612  0.00  0.00    +0.000 A 
ATOM     24  C   UNL     1       2.762   5.186  19.266  0.00  0.00    +0.000 A 
ATOM     25  C   UNL     1       2.028   5.129  20.454  0.00  0.00    +0.000 A 
ATOM     26  C   UNL     1       1.433   6.301  20.953  0.00  0.00    +0.000 A 
ATOM     27  C   UNL     1       1.807   3.843  21.194  0.00  0.00    +0.000 C 
ATOM     28  C   UNL     1       2.800   2.733  20.885  0.00  0.00    +0.000 C 
ATOM     29  C   UNL     1       3.341   2.665  19.463  0.00  0.00    +0.000 C 
ATOM     30  C   UNL     1       3.340   3.951  18.634  0.00  0.00    +0.000 C 
ENDBRANCH  19  21
ENDBRANCH   1  19
TORSDOF 5
ENDMDL
MODEL 6
REMARK VINA RESULT:      -7.9      4.137      8.206
REMARK  Name = 
REMARK  5 active torsions:
REMARK  status: ('A' for Active; 'I' for Inactive)
REMARK    1  A    between atoms: S_2  and  N_4
REMARK    2  A    between atoms: S_2  and  C_20
REMARK    3  A    between atoms: N_4  and  C_5
REMARK    4  A    between atoms: C_7  and  C_8
REMARK    5  A    between atoms: C_14  and  N_15
REMARK                            x       y       z     vdW  Elec       q    Type
REMARK                         _______ _______ _______ _____ _____    ______ ____
ROOT
ATOM      1  N   UNL     1       3.544   7.011  19.563  0.00  0.00    +0.000 N 
ATOM      2  H   UNL     1       3.328   7.264  20.541  0.00  0.00    +0.000 HD
ENDROOT
BRANCH   1   3
ATOM      3  C   UNL     1       3.648   5.586  19.431  0.00  0.00    +0.000 A 
ATOM      4  C   UNL     1       2.598   4.795  19.914  0.00  0.00    +0.000 A 
ATOM      5  C   UNL     1       2.630   3.398  19.758  0.00  0.00    +0.000 A 
ATOM      6  C   UNL     1       3.726   2.806  19.116  0.00  0.00    +0.000 A 
ATOM      7  C   UNL     1       4.808   3.582  18.698  0.00  0.00    +0.000 A 
ATOM      8  C   UNL     1       4.788   4.976  18.871  0.00  0.00    +0.000 A 
BRANCH   8   9
ATOM      9  N   UNL     1       5.921   5.726  18.493  0.00  0.00    +0.000 N 
ATOM     10  C   UNL     1       7.166   5.735  19.065  0.00  0.00    +0.000 A 
ATOM     11  N   UNL     1       7.955   6.589  18.454  0.00  0.00    +0.000 NA
ATOM     12  C   UNL     1       7.142   7.114  17.497  0.00  0.00    +0.000 A 
ATOM     13  N   UNL     1       5.900   6.617  17.459  0.00  0.00    +0.000 NA
ENDBRANCH   8   9
BRANCH   5  14
ATOM     14  C   UNL     1       1.506   2.517  20.253  0.00  0.00    +0.000 C 
ATOM     15  F   UNL     1       1.626   2.146  21.556  0.00  0.00    +0.000 F 
ATOM     16  F   UNL     1       0.291   3.124  20.144  0.00  0.00    +0.000 F 
ATOM     17  F   UNL     1       1.406   1.362  19.539  0.00  0.00    +0.000 F 
ENDBRANCH   5  14
ENDBRANCH   1   3
BRANCH   1  19
ATOM     18  O   UNL     1       3.030   8.832  17.834  0.00  0.00    +0.000 OA
ATOM     19  S   UNL     1       2.375   7.788  18.586  0.00  0.00    +0.000 S 
ATOM     20  O   UNL     1       1.580   6.764  17.934  0.00  0.00    +0.000 OA
BRANCH  19  21
ATOM     21  C   UNL     1       1.375   8.551  19.848  0.00  0.00    +0.000 A 
ATOM     22  C   UNL     1       1.437   8.129  21.174  0.00  0.00    +0.000 A 
ATOM     23  C   UNL     1       0.694   8.817  22.140  0.00  0.00    +0.000 A 
ATOM     24  C   UNL     1      -0.082   9.943  21.800  0.00  0.00    +0.000 A 
ATOM     25  C   UNL     1      -0.118  10.373  20.471  0.00  0.00    +0.000 A 
ATOM     26  C   UNL     1       0.590   9.653  19.494  0.00  0.00    +0.000 A 
ATOM     27  C   UNL     1      -0.935  11.555  20.036  0.00  0.00    +0.000 C 
ATOM     28  C   UNL     1      -1.304  12.534  21.141  0.00  0.00    +0.000 C 
ATOM     29  C   UNL     1      -1.553  11.953  22.526  0.00  0.00    +0.000 C 
ATOM     30  C   UNL     1      -0.894  10.615  22.871  0.00  0.00    +0.000 C 
ENDBRANCH  19  21
ENDBRANCH   1  19
TORSDOF 5
ENDMDL
MODEL 7
REMARK VINA RESULT:      -7.9      3.461      7.289
REMARK  Name = 
REMARK  5 active torsions:
REMARK  status: ('A' for Active; 'I' for Inactive)
REMARK    1  A    between atoms: S_2  and  N_4
REMARK    2  A    between atoms: S_2  and  C_20
REMARK    3  A    between atoms: N_4  and  C_5
REMARK    4  A    between atoms: C_7  and  C_8
REMARK    5  A    between atoms: C_14  and  N_15
REMARK                            x       y       z     vdW  Elec       q    Type
REMARK                         _______ _______ _______ _____ _____    ______ ____
ROOT
ATOM      1  N   UNL     1       3.164   6.176  17.964  0.00  0.00    +0.000 N 
ATOM      2  H   UNL     1       2.988   7.161  17.706  0.00  0.00    +0.000 HD
ENDROOT
BRANCH   1   3
ATOM      3  C   UNL     1       4.571   5.900  17.936  0.00  0.00    +0.000 A 
ATOM      4  C   UNL     1       5.458   6.976  17.797  0.00  0.00    +0.000 A 
ATOM      5  C   UNL     1       6.847   6.761  17.819  0.00  0.00    +0.000 A 
ATOM      6  C   UNL     1       7.335   5.457  17.979  0.00  0.00    +0.000 A 
ATOM      7  C   UNL     1       6.457   4.374  18.044  0.00  0.00    +0.000 A 
ATOM      8  C   UNL     1       5.069   4.583  18.002  0.00  0.00    +0.000 A 
BRANCH   8   9
ATOM      9  N   UNL     1       4.210   3.465  18.011  0.00  0.00    +0.000 N 
ATOM     10  C   UNL     1       4.181   2.420  18.896  0.00  0.00    +0.000 A 
ATOM     11  N   UNL     1       3.259   1.547  18.559  0.00  0.00    +0.000 NA
ATOM     12  C   UNL     1       2.735   2.089  17.425  0.00  0.00    +0.000 A 
ATOM     13  N   UNL     1       3.260   3.263  17.051  0.00  0.00    +0.000 NA
ENDBRANCH   8   9
BRANCH   5  14
ATOM     14  C   UNL     1       7.831   7.902  17.688  0.00  0.00    +0.000 C 
ATOM     15  F   UNL     1       8.542   7.889  16.529  0.00  0.00    +0.000 F 
ATOM     16  F   UNL     1       7.217   9.117  17.741  0.00  0.00    +0.000 F 
ATOM     17  F   UNL     1       8.747   7.907  18.694  0.00  0.00    +0.000 F 
ENDBRANCH   5  14
ENDBRANCH   1   3
BRANCH   1  19
ATOM     18  O   UNL     1       1.208   5.074  19.203  0.00  0.00    +0.000 OA
ATOM     19  S   UNL     1       2.361   5.908  19.452  0.00  0.00    +0.000 S 
ATOM     20  O   UNL     1       3.357   5.555  20.444  0.00  0.00    +0.000 OA
BRANCH  19  21
ATOM     21  C   UNL     1       1.791   7.561  19.797  0.00  0.00    +0.000 A 
ATOM     22  C   UNL     1       1.732   8.529  18.797  0.00  0.00    +0.000 A 
ATOM     23  C   UNL     1       1.198   9.786  19.102  0.00  0.00    +0.000 A 
ATOM     24  C   UNL     1       0.689  10.073  20.385  0.00  0.00    +0.000 A 
ATOM     25  C   UNL     1       0.731   9.086  21.374  0.00  0.00    +0.000 A 
ATOM     26  C   UNL     1       1.312   7.841  21.080  0.00  0.00    +0.000 A 
ATOM     27  C   UNL     1       0.222   9.328  22.764  0.00  0.00    +0.000 C 
ATOM     28  C   UNL     1      -0.766  10.477  22.907  0.00  0.00    +0.000 C 
ATOM     29  C   UNL     1      -0.569  11.677  21.990  0.00  0.00    +0.000 C 
ATOM     30  C   UNL     1       0.169  11.454  20.668  0.00  0.00    +0.000 C 
ENDBRANCH  19  21
ENDBRANCH   1  19
TORSDOF 5
ENDMDL
MODEL 8
REMARK VINA RESULT:      -7.9      3.299      7.651
REMARK  Name = 
REMARK  5 active torsions:
REMARK  status: ('A' for Active; 'I' for Inactive)
REMARK    1  A    between atoms: S_2  and  N_4
REMARK    2  A    between atoms: S_2  and  C_20
REMARK    3  A    between atoms: N_4  and  C_5
REMARK    4  A    between atoms: C_7  and  C_8
REMARK    5  A    between atoms: C_14  and  N_15
REMARK                            x       y       z     vdW  Elec       q    Type
REMARK                         _______ _______ _______ _____ _____    ______ ____
ROOT
ATOM      1  N   UNL     1       3.010   6.567  19.252  0.00  0.00    +0.000 N 
ATOM      2  H   UNL     1       2.324   6.149  19.902  0.00  0.00    +0.000 HD
ENDROOT
BRANCH   1   3
ATOM      3  C   UNL     1       3.593   5.550  18.426  0.00  0.00    +0.000 A 
ATOM      4  C   UNL     1       4.236   5.940  17.244  0.00  0.00    +0.000 A 
ATOM      5  C   UNL     1       4.870   4.985  16.430  0.00  0.00    +0.000 A 
ATOM      6  C   UNL     1       4.849   3.638  16.813  0.00  0.00    +0.000 A 
ATOM      7  C   UNL     1       4.148   3.234  17.951  0.00  0.00    +0.000 A 
ATOM      8  C   UNL     1       3.497   4.183  18.755  0.00  0.00    +0.000 A 
BRANCH   8   9
ATOM      9  N   UNL     1       2.747   3.738  19.864  0.00  0.00    +0.000 N 
ATOM     10  C   UNL     1       3.162   2.965  20.917  0.00  0.00    +0.000 A 
ATOM     11  N   UNL     1       2.168   2.729  21.743  0.00  0.00    +0.000 NA
ATOM     12  C   UNL     1       1.126   3.373  21.148  0.00  0.00    +0.000 A 
ATOM     13  N   UNL     1       1.420   4.018  20.012  0.00  0.00    +0.000 NA
ENDBRANCH   8   9
BRANCH   5  14
ATOM     14  C   UNL     1       5.586   5.375  15.157  0.00  0.00    +0.000 C 
ATOM     15  F   UNL     1       5.388   4.514  14.124  0.00  0.00    +0.000 F 
ATOM     16  F   UNL     1       5.200   6.601  14.706  0.00  0.00    +0.000 F 
ATOM     17  F   UNL     1       6.934   5.454  15.331  0.00  0.00    +0.000 F 
ENDBRANCH   5  14
ENDBRANCH   1   3
BRANCH   1  19
ATOM     18  O   UNL     1       3.194   8.803  18.012  0.00  0.00    +0.000 OA
ATOM     19  S   UNL     1       2.206   7.843  18.445  0.00  0.00    +0.000 S 
ATOM     20  O   UNL     1       1.253   7.261  17.519  0.00  0.00    +0.000 OA
BRANCH  19  21
ATOM     21  C   UNL     1       1.300   8.549  19.807  0.00  0.00    +0.000 A 
ATOM     22  C   UNL     1       1.433   8.049  21.101  0.00  0.00    +0.000 A 
ATOM     23  C   UNL     1       0.765   8.692  22.148  0.00  0.00    +0.000 A 
ATOM     24  C   UNL     1      -0.006   9.851  21.921  0.00  0.00    +0.000 A 
ATOM     25  C   UNL     1      -0.113  10.359  20.624  0.00  0.00    +0.000 A 
ATOM     26  C   UNL     1       0.520   9.684  19.566  0.00  0.00    +0.000 A 
ATOM     27  C   UNL     1      -0.928  11.578  20.309  0.00  0.00    +0.000 C 
ATOM     28  C   UNL     1      -1.209  12.498  21.488  0.00  0.00    +0.000 C 
ATOM     29  C   UNL     1      -1.387  11.841  22.850  0.00  0.00    +0.000 C 
ATOM     30  C   UNL     1      -0.738  10.474  23.077  0.00  0.00    +0.000 C 
ENDBRANCH  19  21
ENDBRANCH   1  19
TORSDOF 5
ENDMDL
MODEL 9
REMARK VINA RESULT:      -7.8      4.594      6.862
REMARK  Name = 
REMARK  5 active torsions:
REMARK  status: ('A' for Active; 'I' for Inactive)
REMARK    1  A    between atoms: S_2  and  N_4
REMARK    2  A    between atoms: S_2  and  C_20
REMARK    3  A    between atoms: N_4  and  C_5
REMARK    4  A    between atoms: C_7  and  C_8
REMARK    5  A    between atoms: C_14  and  N_15
REMARK                            x       y       z     vdW  Elec       q    Type
REMARK                         _______ _______ _______ _____ _____    ______ ____
ROOT
ATOM      1  N   UNL     1       1.150   9.951  19.746  0.00  0.00    +0.000 N 
ATOM      2  H   UNL     1       1.518   9.345  18.995  0.00  0.00    +0.000 HD
ENDROOT
BRANCH   1   3
ATOM      3  C   UNL     1      -0.009  10.661  19.287  0.00  0.00    +0.000 A 
ATOM      4  C   UNL     1      -0.912   9.992  18.452  0.00  0.00    +0.000 A 
ATOM      5  C   UNL     1      -2.090  10.629  18.021  0.00  0.00    +0.000 A 
ATOM      6  C   UNL     1      -2.347  11.943  18.435  0.00  0.00    +0.000 A 
ATOM      7  C   UNL     1      -1.416  12.639  19.207  0.00  0.00    +0.000 A 
ATOM      8  C   UNL     1      -0.230  12.013  19.622  0.00  0.00    +0.000 A 
BRANCH   8   9
ATOM      9  N   UNL     1       0.718  12.761  20.350  0.00  0.00    +0.000 N 
ATOM     10  C   UNL     1       0.533  13.479  21.502  0.00  0.00    +0.000 A 
ATOM     11  N   UNL     1       1.647  14.072  21.868  0.00  0.00    +0.000 NA
ATOM     12  C   UNL     1       2.517  13.703  20.887  0.00  0.00    +0.000 A 
ATOM     13  N   UNL     1       2.016  12.893  19.947  0.00  0.00    +0.000 NA
ENDBRANCH   8   9
BRANCH   5  14
ATOM     14  C   UNL     1      -3.093   9.929  17.133  0.00  0.00    +0.000 C 
ATOM     15  F   UNL     1      -4.057  10.748  16.635  0.00  0.00    +0.000 F 
ATOM     16  F   UNL     1      -2.502   9.342  16.055  0.00  0.00    +0.000 F 
ATOM     17  F   UNL     1      -3.746   8.929  17.786  0.00  0.00    +0.000 F 
ENDBRANCH   5  14
ENDBRANCH   1   3
BRANCH   1  19
ATOM     18  O   UNL     1       1.761   9.477  22.191  0.00  0.00    +0.000 OA
ATOM     19  S   UNL     1       0.942   8.955  21.122  0.00  0.00    +0.000 S 
ATOM     20  O   UNL     1      -0.477   8.718  21.297  0.00  0.00    +0.000 OA
BRANCH  19  21
ATOM     21  C   UNL     1       1.691   7.450  20.530  0.00  0.00    +0.000 A 
ATOM     22  C   UNL     1       1.325   6.209  21.046  0.00  0.00    +0.000 A 
ATOM     23  C   UNL     1       1.882   5.053  20.488  0.00  0.00    +0.000 A 
ATOM     24  C   UNL     1       2.772   5.123  19.397  0.00  0.00    +0.000 A 
ATOM     25  C   UNL     1       3.113   6.372  18.871  0.00  0.00    +0.000 A 
ATOM     26  C   UNL     1       2.591   7.534  19.463  0.00  0.00    +0.000 A 
ATOM     27  C   UNL     1       4.065   6.520  17.721  0.00  0.00    +0.000 C 
ATOM     28  C   UNL     1       4.243   5.280  16.857  0.00  0.00    +0.000 C 
ATOM     29  C   UNL     1       4.161   3.931  17.558  0.00  0.00    +0.000 C 
ATOM     30  C   UNL     1       3.373   3.851  18.868  0.00  0.00    +0.000 C 
ENDBRANCH  19  21
ENDBRANCH   1  19
TORSDOF 5
ENDMDL
