MODEL 1
REMARK VINA RESULT:      -8.1      0.000      0.000
REMARK  Name = 
REMARK  8 active torsions:
REMARK  status: ('A' for Active; 'I' for Inactive)
REMARK    1  A    between atoms: C_4  and  C_5
REMARK    2  A    between atoms: N_13  and  C_14
REMARK    3  A    between atoms: C_14  and  C_15
REMARK    4  A    between atoms: C_15  and  C_16
REMARK    5  A    between atoms: C_16  and  O_17
REMARK    6  A    between atoms: O_17  and  C_18
REMARK    7  A    between atoms: N_25  and  C_26
REMARK    8  A    between atoms: C_26  and  C_27
REMARK                            x       y       z     vdW  Elec       q    Type
REMARK                         _______ _______ _______ _____ _____    ______ ____
ROOT
ATOM      1  C   UNL     1      -0.554  11.214  19.463  0.00  0.00    +0.000 A 
ATOM      2  N   UNL     1      -1.788  11.674  19.495  0.00  0.00    +0.000 NA
ATOM      3  C   UNL     1      -2.414  11.192  18.379  0.00  0.00    +0.000 A 
ATOM      4  C   UNL     1      -3.737  11.379  17.957  0.00  0.00    +0.000 A 
ATOM      5  C   UNL     1      -4.155  10.784  16.762  0.00  0.00    +0.000 A 
ATOM      6  C   UNL     1      -3.272  10.009  16.010  0.00  0.00    +0.000 A 
ATOM      7  C   UNL     1      -1.952   9.800  16.427  0.00  0.00    +0.000 A 
ATOM      8  C   UNL     1      -1.544  10.417  17.619  0.00  0.00    +0.000 A 
ATOM      9  N   UNL     1      -0.352  10.453  18.319  0.00  0.00    +0.000 N 
ENDROOT
BRANCH   1  13
ATOM     10  O   UNL     1      -1.002  10.375  23.621  0.00  0.00    +0.000 OA
ATOM     11  C   UNL     1      -0.519  10.997  22.688  0.00  0.00    +0.000 C 
ATOM     12  C   UNL     1       0.405  10.407  21.646  0.00  0.00    +0.000 C 
ATOM     13  C   UNL     1       0.465  11.477  20.548  0.00  0.00    +0.000 C 
ATOM     14  C   UNL     1       0.172  12.773  21.320  0.00  0.00    +0.000 C 
ATOM     15  N   UNL     1      -0.626  12.351  22.450  0.00  0.00    +0.000 N 
BRANCH  15  16
ATOM     16  C   UNL     1      -1.357  13.283  23.293  0.00  0.00    +0.000 C 
BRANCH  16  17
ATOM     17  C   UNL     1      -2.857  13.175  23.138  0.00  0.00    +0.000 A 
ATOM     18  C   UNL     1      -3.675  12.888  24.242  0.00  0.00    +0.000 A 
ATOM     19  C   UNL     1      -5.057  12.745  24.085  0.00  0.00    +0.000 A 
ATOM     20  C   UNL     1      -5.637  12.895  22.827  0.00  0.00    +0.000 A 
ATOM     21  C   UNL     1      -4.842  13.221  21.731  0.00  0.00    +0.000 A 
ATOM     22  C   UNL     1      -3.462  13.367  21.886  0.00  0.00    +0.000 A 
ENDBRANCH  16  17
ENDBRANCH  15  16
ENDBRANCH   1  13
BRANCH   9  23
ATOM     23  C   UNL     1       0.852   9.737  17.933  0.00  0.00    +0.000 C 
BRANCH  23  24
ATOM     24  C   UNL     1       1.222   8.532  18.805  0.00  0.00    +0.000 C 
BRANCH  24  25
ATOM     25  C   UNL     1       2.495   7.830  18.349  0.00  0.00    +0.000 C 
BRANCH  25  26
ATOM     26  O   UNL     1       2.881   6.888  19.352  0.00  0.00    +0.000 OA
BRANCH  26  27
ATOM     27  C   UNL     1       2.266   5.664  19.295  0.00  0.00    +0.000 A 
ATOM     28  C   UNL     1       2.075   4.904  18.136  0.00  0.00    +0.000 A 
ATOM     29  C   UNL     1       1.423   3.671  18.200  0.00  0.00    +0.000 A 
ATOM     30  C   UNL     1       0.962   3.184  19.420  0.00  0.00    +0.000 A 
ATOM     31  C   UNL     1       1.155   3.930  20.580  0.00  0.00    +0.000 A 
ATOM     32  C   UNL     1       1.805   5.166  20.518  0.00  0.00    +0.000 A 
ENDBRANCH  26  27
ENDBRANCH  25  26
ENDBRANCH  24  25
ENDBRANCH  23  24
ENDBRANCH   9  23
TORSDOF 8
ENDMDL
MODEL 2
REMARK VINA RESULT:      -7.9      2.466      4.419
REMARK  Name = 
REMARK  8 active torsions:
REMARK  status: ('A' for Active; 'I' for Inactive)
REMARK    1  A    between atoms: C_4  and  C_5
REMARK    2  A    between atoms: N_13  and  C_14
REMARK    3  A    between atoms: C_14  and  C_15
REMARK    4  A    between atoms: C_15  and  C_16
REMARK    5  A    between atoms: C_16  and  O_17
REMARK    6  A    between atoms: O_17  and  C_18
REMARK    7  A    between atoms: N_25  and  C_26
REMARK    8  A    between atoms: C_26  and  C_27
REMARK                            x       y       z     vdW  Elec       q    Type
REMARK                         _______ _______ _______ _____ _____    ______ ____
ROOT
ATOM      1  C   UNL     1      -0.933  11.115  18.390  0.00  0.00    +0.000 A 
ATOM      2  N   UNL     1      -1.292  12.315  18.800  0.00  0.00    +0.000 NA
ATOM      3  C   UNL     1      -0.137  13.010  19.030  0.00  0.00    +0.000 A 
ATOM      4  C   UNL     1       0.027  14.334  19.464  0.00  0.00    +0.000 A 
ATOM      5  C   UNL     1       1.322  14.832  19.637  0.00  0.00    +0.000 A 
ATOM      6  C   UNL     1       2.431  14.028  19.371  0.00  0.00    +0.000 A 
ATOM      7  C   UNL     1       2.283  12.710  18.922  0.00  0.00    +0.000 A 
ATOM      8  C   UNL     1       0.978  12.221  18.770  0.00  0.00    +0.000 A 
ATOM      9  N   UNL     1       0.451  11.004  18.375  0.00  0.00    +0.000 N 
ENDROOT
BRANCH   1  13
ATOM     10  O   UNL     1      -3.332  11.088  14.864  0.00  0.00    +0.000 OA
ATOM     11  C   UNL     1      -3.102  10.769  16.019  0.00  0.00    +0.000 C 
ATOM     12  C   UNL     1      -1.961   9.877  16.455  0.00  0.00    +0.000 C 
ATOM     13  C   UNL     1      -1.916  10.043  17.980  0.00  0.00    +0.000 C 
ATOM     14  C   UNL     1      -3.365  10.420  18.323  0.00  0.00    +0.000 C 
ATOM     15  N   UNL     1      -3.869  11.059  17.128  0.00  0.00    +0.000 N 
BRANCH  15  16
ATOM     16  C   UNL     1      -5.109  11.818  17.100  0.00  0.00    +0.000 C 
BRANCH  16  17
ATOM     17  C   UNL     1      -5.832  11.825  18.427  0.00  0.00    +0.000 A 
ATOM     18  C   UNL     1      -6.709  10.785  18.772  0.00  0.00    +0.000 A 
ATOM     19  C   UNL     1      -7.409  10.818  19.982  0.00  0.00    +0.000 A 
ATOM     20  C   UNL     1      -7.234  11.883  20.862  0.00  0.00    +0.000 A 
ATOM     21  C   UNL     1      -6.335  12.900  20.550  0.00  0.00    +0.000 A 
ATOM     22  C   UNL     1      -5.633  12.868  19.344  0.00  0.00    +0.000 A 
ENDBRANCH  16  17
ENDBRANCH  15  16
ENDBRANCH   1  13
BRANCH   9  23
ATOM     23  C   UNL     1       1.244   9.864  17.947  0.00  0.00    +0.000 C 
BRANCH  23  24
ATOM     24  C   UNL     1       1.563   8.828  19.031  0.00  0.00    +0.000 C 
BRANCH  24  25
ATOM     25  C   UNL     1       2.443   7.689  18.531  0.00  0.00    +0.000 C 
BRANCH  25  26
ATOM     26  O   UNL     1       2.661   6.774  19.607  0.00  0.00    +0.000 OA
BRANCH  26  27
ATOM     27  C   UNL     1       2.136   5.518  19.444  0.00  0.00    +0.000 A 
ATOM     28  C   UNL     1       2.047   4.826  18.231  0.00  0.00    +0.000 A 
ATOM     29  C   UNL     1       1.481   3.551  18.188  0.00  0.00    +0.000 A 
ATOM     30  C   UNL     1       1.004   2.954  19.351  0.00  0.00    +0.000 A 
ATOM     31  C   UNL     1       1.097   3.632  20.564  0.00  0.00    +0.000 A 
ATOM     32  C   UNL     1       1.661   4.910  20.610  0.00  0.00    +0.000 A 
ENDBRANCH  26  27
ENDBRANCH  25  26
ENDBRANCH  24  25
ENDBRANCH  23  24
ENDBRANCH   9  23
TORSDOF 8
ENDMDL
MODEL 3
REMARK VINA RESULT:      -7.8      2.535      4.612
REMARK  Name = 
REMARK  8 active torsions:
REMARK  status: ('A' for Active; 'I' for Inactive)
REMARK    1  A    between atoms: C_4  and  C_5
REMARK    2  A    between atoms: N_13  and  C_14
REMARK    3  A    between atoms: C_14  and  C_15
REMARK    4  A    between atoms: C_15  and  C_16
REMARK    5  A    between atoms: C_16  and  O_17
REMARK    6  A    between atoms: O_17  and  C_18
REMARK    7  A    between atoms: N_25  and  C_26
REMARK    8  A    between atoms: C_26  and  C_27
REMARK                            x       y       z     vdW  Elec       q    Type
REMARK                         _______ _______ _______ _____ _____    ______ ____
ROOT
ATOM      1  C   UNL     1      -1.076  11.201  18.308  0.00  0.00    +0.000 A 
ATOM      2  N   UNL     1      -1.331  12.482  18.131  0.00  0.00    +0.000 NA
ATOM      3  C   UNL     1      -0.235  13.164  18.583  0.00  0.00    +0.000 A 
ATOM      4  C   UNL     1       0.001  14.546  18.602  0.00  0.00    +0.000 A 
ATOM      5  C   UNL     1       1.209  15.017  19.125  0.00  0.00    +0.000 A 
ATOM      6  C   UNL     1       2.168  14.126  19.607  0.00  0.00    +0.000 A 
ATOM      7  C   UNL     1       1.953  12.743  19.580  0.00  0.00    +0.000 A 
ATOM      8  C   UNL     1       0.730  12.287  19.068  0.00  0.00    +0.000 A 
ATOM      9  N   UNL     1       0.170  11.034  18.899  0.00  0.00    +0.000 N 
ENDROOT
BRANCH   1  13
ATOM     10  O   UNL     1      -3.464  11.099  14.776  0.00  0.00    +0.000 OA
ATOM     11  C   UNL     1      -3.226  10.785  15.931  0.00  0.00    +0.000 C 
ATOM     12  C   UNL     1      -2.055   9.933  16.367  0.00  0.00    +0.000 C 
ATOM     13  C   UNL     1      -2.020  10.097  17.894  0.00  0.00    +0.000 C 
ATOM     14  C   UNL     1      -3.482  10.421  18.234  0.00  0.00    +0.000 C 
ATOM     15  N   UNL     1      -4.005  11.045  17.038  0.00  0.00    +0.000 N 
BRANCH  15  16
ATOM     16  C   UNL     1      -5.271  11.760  17.009  0.00  0.00    +0.000 C 
BRANCH  16  17
ATOM     17  C   UNL     1      -5.962  11.801  18.353  0.00  0.00    +0.000 A 
ATOM     18  C   UNL     1      -5.769  12.881  19.228  0.00  0.00    +0.000 A 
ATOM     19  C   UNL     1      -6.375  12.892  20.488  0.00  0.00    +0.000 A 
ATOM     20  C   UNL     1      -7.187  11.831  20.883  0.00  0.00    +0.000 A 
ATOM     21  C   UNL     1      -7.420  10.773  20.007  0.00  0.00    +0.000 A 
ATOM     22  C   UNL     1      -6.818  10.761  18.748  0.00  0.00    +0.000 A 
ENDBRANCH  16  17
ENDBRANCH  15  16
ENDBRANCH   1  13
BRANCH   9  23
ATOM     23  C   UNL     1       0.837   9.784  19.220  0.00  0.00    +0.000 C 
BRANCH  23  24
ATOM     24  C   UNL     1       0.513   9.187  20.594  0.00  0.00    +0.000 C 
BRANCH  24  25
ATOM     25  C   UNL     1       1.508   8.120  21.034  0.00  0.00    +0.000 C 
BRANCH  25  26
ATOM     26  O   UNL     1       2.193   7.632  19.879  0.00  0.00    +0.000 OA
BRANCH  26  27
ATOM     27  C   UNL     1       2.029   6.299  19.601  0.00  0.00    +0.000 A 
ATOM     28  C   UNL     1       1.602   5.326  20.511  0.00  0.00    +0.000 A 
ATOM     29  C   UNL     1       1.482   3.994  20.113  0.00  0.00    +0.000 A 
ATOM     30  C   UNL     1       1.780   3.621  18.806  0.00  0.00    +0.000 A 
ATOM     31  C   UNL     1       2.197   4.585  17.890  0.00  0.00    +0.000 A 
ATOM     32  C   UNL     1       2.321   5.919  18.287  0.00  0.00    +0.000 A 
ENDBRANCH  26  27
ENDBRANCH  25  26
ENDBRANCH  24  25
ENDBRANCH  23  24
ENDBRANCH   9  23
TORSDOF 8
ENDMDL
MODEL 4
REMARK VINA RESULT:      -7.7      5.713      9.407
REMARK  Name = 
REMARK  8 active torsions:
REMARK  status: ('A' for Active; 'I' for Inactive)
REMARK    1  A    between atoms: C_4  and  C_5
REMARK    2  A    between atoms: N_13  and  C_14
REMARK    3  A    between atoms: C_14  and  C_15
REMARK    4  A    between atoms: C_15  and  C_16
REMARK    5  A    between atoms: C_16  and  O_17
REMARK    6  A    between atoms: O_17  and  C_18
REMARK    7  A    between atoms: N_25  and  C_26
REMARK    8  A    between atoms: C_26  and  C_27
REMARK                            x       y       z     vdW  Elec       q    Type
REMARK                         _______ _______ _______ _____ _____    ______ ____
ROOT
ATOM      1  C   UNL     1       5.303   5.008  16.953  0.00  0.00    +0.000 A 
ATOM      2  N   UNL     1       4.735   4.358  15.957  0.00  0.00    +0.000 NA
ATOM      3  C   UNL     1       5.621   4.389  14.915  0.00  0.00    +0.000 A 
ATOM      4  C   UNL     1       5.502   3.828  13.636  0.00  0.00    +0.000 A 
ATOM      5  C   UNL     1       6.549   3.997  12.725  0.00  0.00    +0.000 A 
ATOM      6  C   UNL     1       7.698   4.701  13.089  0.00  0.00    +0.000 A 
ATOM      7  C   UNL     1       7.838   5.252  14.368  0.00  0.00    +0.000 A 
ATOM      8  C   UNL     1       6.772   5.088  15.264  0.00  0.00    +0.000 A 
ATOM      9  N   UNL     1       6.546   5.492  16.567  0.00  0.00    +0.000 N 
ENDROOT
BRANCH   1  13
ATOM     10  O   UNL     1       1.131   4.921  17.837  0.00  0.00    +0.000 OA
ATOM     11  C   UNL     1       2.280   5.261  18.070  0.00  0.00    +0.000 C 
ATOM     12  C   UNL     1       3.399   4.315  18.445  0.00  0.00    +0.000 C 
ATOM     13  C   UNL     1       4.670   5.166  18.315  0.00  0.00    +0.000 C 
ATOM     14  C   UNL     1       4.149   6.592  18.555  0.00  0.00    +0.000 C 
ATOM     15  N   UNL     1       2.765   6.550  18.138  0.00  0.00    +0.000 N 
BRANCH  15  16
ATOM     16  C   UNL     1       1.965   7.746  17.933  0.00  0.00    +0.000 C 
BRANCH  16  17
ATOM     17  C   UNL     1       1.570   8.425  19.224  0.00  0.00    +0.000 A 
ATOM     18  C   UNL     1       1.093   9.745  19.226  0.00  0.00    +0.000 A 
ATOM     19  C   UNL     1       0.770  10.383  20.427  0.00  0.00    +0.000 A 
ATOM     20  C   UNL     1       0.911   9.708  21.638  0.00  0.00    +0.000 A 
ATOM     21  C   UNL     1       1.343   8.384  21.646  0.00  0.00    +0.000 A 
ATOM     22  C   UNL     1       1.663   7.743  20.448  0.00  0.00    +0.000 A 
ENDBRANCH  16  17
ENDBRANCH  15  16
ENDBRANCH   1  13
BRANCH   9  23
ATOM     23  C   UNL     1       7.504   6.220  17.381  0.00  0.00    +0.000 C 
BRANCH  23  24
ATOM     24  C   UNL     1       7.472   7.747  17.245  0.00  0.00    +0.000 C 
BRANCH  24  25
ATOM     25  C   UNL     1       8.356   8.458  18.262  0.00  0.00    +0.000 C 
BRANCH  25  26
ATOM     26  O   UNL     1       8.288   9.865  18.021  0.00  0.00    +0.000 OA
BRANCH  26  27
ATOM     27  C   UNL     1       9.309  10.615  18.545  0.00  0.00    +0.000 A 
ATOM     28  C   UNL     1      10.320  11.240  17.806  0.00  0.00    +0.000 A 
ATOM     29  C   UNL     1      11.316  11.972  18.453  0.00  0.00    +0.000 A 
ATOM     30  C   UNL     1      11.311  12.092  19.840  0.00  0.00    +0.000 A 
ATOM     31  C   UNL     1      10.303  11.481  20.583  0.00  0.00    +0.000 A 
ATOM     32  C   UNL     1       9.306  10.745  19.937  0.00  0.00    +0.000 A 
ENDBRANCH  26  27
ENDBRANCH  25  26
ENDBRANCH  24  25
ENDBRANCH  23  24
ENDBRANCH   9  23
TORSDOF 8
ENDMDL
MODEL 5
REMARK VINA RESULT:      -7.7      5.694      9.373
REMARK  Name = 
REMARK  8 active torsions:
REMARK  status: ('A' for Active; 'I' for Inactive)
REMARK    1  A    between atoms: C_4  and  C_5
REMARK    2  A    between atoms: N_13  and  C_14
REMARK    3  A    between atoms: C_14  and  C_15
REMARK    4  A    between atoms: C_15  and  C_16
REMARK    5  A    between atoms: C_16  and  O_17
REMARK    6  A    between atoms: O_17  and  C_18
REMARK    7  A    between atoms: N_25  and  C_26
REMARK    8  A    between atoms: C_26  and  C_27
REMARK                            x       y       z     vdW  Elec       q    Type
REMARK                         _______ _______ _______ _____ _____    ______ ____
ROOT
ATOM      1  C   UNL     1       5.309   5.084  16.991  0.00  0.00    +0.000 A 
ATOM      2  N   UNL     1       4.694   4.411  16.040  0.00  0.00    +0.000 NA
ATOM      3  C   UNL     1       5.536   4.401  14.962  0.00  0.00    +0.000 A 
ATOM      4  C   UNL     1       5.357   3.804  13.706  0.00  0.00    +0.000 A 
ATOM      5  C   UNL     1       6.367   3.934  12.747  0.00  0.00    +0.000 A 
ATOM      6  C   UNL     1       7.537   4.635  13.042  0.00  0.00    +0.000 A 
ATOM      7  C   UNL     1       7.736   5.222  14.297  0.00  0.00    +0.000 A 
ATOM      8  C   UNL     1       6.707   5.097  15.241  0.00  0.00    +0.000 A 
ATOM      9  N   UNL     1       6.540   5.542  16.540  0.00  0.00    +0.000 N 
ENDROOT
BRANCH   1  13
ATOM     10  O   UNL     1       1.194   4.853  18.089  0.00  0.00    +0.000 OA
ATOM     11  C   UNL     1       2.335   5.259  18.245  0.00  0.00    +0.000 C 
ATOM     12  C   UNL     1       3.516   4.389  18.614  0.00  0.00    +0.000 C 
ATOM     13  C   UNL     1       4.735   5.289  18.374  0.00  0.00    +0.000 C 
ATOM     14  C   UNL     1       4.157   6.701  18.561  0.00  0.00    +0.000 C 
ATOM     15  N   UNL     1       2.759   6.570  18.218  0.00  0.00    +0.000 N 
BRANCH  15  16
ATOM     16  C   UNL     1       1.891   7.715  17.989  0.00  0.00    +0.000 C 
BRANCH  16  17
ATOM     17  C   UNL     1       1.538   8.456  19.258  0.00  0.00    +0.000 A 
ATOM     18  C   UNL     1       1.633   7.825  20.508  0.00  0.00    +0.000 A 
ATOM     19  C   UNL     1       1.262   8.500  21.675  0.00  0.00    +0.000 A 
ATOM     20  C   UNL     1       0.802   9.813  21.608  0.00  0.00    +0.000 A 
ATOM     21  C   UNL     1       0.743  10.464  20.378  0.00  0.00    +0.000 A 
ATOM     22  C   UNL     1       1.115   9.793  19.211  0.00  0.00    +0.000 A 
ENDBRANCH  16  17
ENDBRANCH  15  16
ENDBRANCH   1  13
BRANCH   9  23
ATOM     23  C   UNL     1       7.538   6.283  17.291  0.00  0.00    +0.000 C 
BRANCH  23  24
ATOM     24  C   UNL     1       7.378   7.808  17.292  0.00  0.00    +0.000 C 
BRANCH  24  25
ATOM     25  C   UNL     1       8.307   8.508  18.275  0.00  0.00    +0.000 C 
BRANCH  25  26
ATOM     26  O   UNL     1       8.388   9.891  17.921  0.00  0.00    +0.000 OA
BRANCH  26  27
ATOM     27  C   UNL     1       9.312  10.634  18.609  0.00  0.00    +0.000 A 
ATOM     28  C   UNL     1       9.381  10.757  20.002  0.00  0.00    +0.000 A 
ATOM     29  C   UNL     1      10.364  11.554  20.591  0.00  0.00    +0.000 A 
ATOM     30  C   UNL     1      11.289  12.229  19.799  0.00  0.00    +0.000 A 
ATOM     31  C   UNL     1      11.232  12.106  18.413  0.00  0.00    +0.000 A 
ATOM     32  C   UNL     1      10.247  11.311  17.820  0.00  0.00    +0.000 A 
ENDBRANCH  26  27
ENDBRANCH  25  26
ENDBRANCH  24  25
ENDBRANCH  23  24
ENDBRANCH   9  23
TORSDOF 8
ENDMDL
MODEL 6
REMARK VINA RESULT:      -7.5      5.373      8.790
REMARK  Name = 
REMARK  8 active torsions:
REMARK  status: ('A' for Active; 'I' for Inactive)
REMARK    1  A    between atoms: C_4  and  C_5
REMARK    2  A    between atoms: N_13  and  C_14
REMARK    3  A    between atoms: C_14  and  C_15
REMARK    4  A    between atoms: C_15  and  C_16
REMARK    5  A    between atoms: C_16  and  O_17
REMARK    6  A    between atoms: O_17  and  C_18
REMARK    7  A    between atoms: N_25  and  C_26
REMARK    8  A    between atoms: C_26  and  C_27
REMARK                            x       y       z     vdW  Elec       q    Type
REMARK                         _______ _______ _______ _____ _____    ______ ____
ROOT
ATOM      1  C   UNL     1       6.623   5.804  15.981  0.00  0.00    +0.000 A 
ATOM      2  N   UNL     1       7.559   5.837  15.055  0.00  0.00    +0.000 NA
ATOM      3  C   UNL     1       7.136   5.019  14.044  0.00  0.00    +0.000 A 
ATOM      4  C   UNL     1       7.763   4.723  12.825  0.00  0.00    +0.000 A 
ATOM      5  C   UNL     1       7.135   3.842  11.939  0.00  0.00    +0.000 A 
ATOM      6  C   UNL     1       5.900   3.278  12.259  0.00  0.00    +0.000 A 
ATOM      7  C   UNL     1       5.254   3.576  13.464  0.00  0.00    +0.000 A 
ATOM      8  C   UNL     1       5.906   4.448  14.349  0.00  0.00    +0.000 A 
ATOM      9  N   UNL     1       5.597   4.949  15.601  0.00  0.00    +0.000 N 
ENDROOT
BRANCH   1  13
ATOM     10  O   UNL     1       5.991   4.350  19.941  0.00  0.00    +0.000 OA
ATOM     11  C   UNL     1       5.989   5.234  19.099  0.00  0.00    +0.000 C 
ATOM     12  C   UNL     1       7.227   5.783  18.424  0.00  0.00    +0.000 C 
ATOM     13  C   UNL     1       6.679   6.614  17.255  0.00  0.00    +0.000 C 
ATOM     14  C   UNL     1       5.283   7.019  17.752  0.00  0.00    +0.000 C 
ATOM     15  N   UNL     1       4.904   5.970  18.671  0.00  0.00    +0.000 N 
BRANCH  15  16
ATOM     16  C   UNL     1       3.546   5.803  19.165  0.00  0.00    +0.000 C 
BRANCH  16  17
ATOM     17  C   UNL     1       2.718   7.064  19.064  0.00  0.00    +0.000 A 
ATOM     18  C   UNL     1       2.631   7.771  17.855  0.00  0.00    +0.000 A 
ATOM     19  C   UNL     1       1.900   8.960  17.779  0.00  0.00    +0.000 A 
ATOM     20  C   UNL     1       1.242   9.451  18.904  0.00  0.00    +0.000 A 
ATOM     21  C   UNL     1       1.286   8.736  20.099  0.00  0.00    +0.000 A 
ATOM     22  C   UNL     1       2.013   7.546  20.177  0.00  0.00    +0.000 A 
ENDBRANCH  16  17
ENDBRANCH  15  16
ENDBRANCH   1  13
BRANCH   9  23
ATOM     23  C   UNL     1       4.365   4.670  16.318  0.00  0.00    +0.000 C 
BRANCH  23  24
ATOM     24  C   UNL     1       4.187   3.227  16.806  0.00  0.00    +0.000 C 
BRANCH  24  25
ATOM     25  C   UNL     1       2.737   2.761  16.785  0.00  0.00    +0.000 C 
BRANCH  25  26
ATOM     26  O   UNL     1       2.537   1.845  17.863  0.00  0.00    +0.000 OA
BRANCH  26  27
ATOM     27  C   UNL     1       2.214   2.402  19.074  0.00  0.00    +0.000 A 
ATOM     28  C   UNL     1       1.064   3.154  19.340  0.00  0.00    +0.000 A 
ATOM     29  C   UNL     1       0.847   3.680  20.615  0.00  0.00    +0.000 A 
ATOM     30  C   UNL     1       1.769   3.457  21.634  0.00  0.00    +0.000 A 
ATOM     31  C   UNL     1       2.911   2.702  21.379  0.00  0.00    +0.000 A 
ATOM     32  C   UNL     1       3.132   2.176  20.103  0.00  0.00    +0.000 A 
ENDBRANCH  26  27
ENDBRANCH  25  26
ENDBRANCH  24  25
ENDBRANCH  23  24
ENDBRANCH   9  23
TORSDOF 8
ENDMDL
MODEL 7
REMARK VINA RESULT:      -7.5      1.912      2.605
REMARK  Name = 
REMARK  8 active torsions:
REMARK  status: ('A' for Active; 'I' for Inactive)
REMARK    1  A    between atoms: C_4  and  C_5
REMARK    2  A    between atoms: N_13  and  C_14
REMARK    3  A    between atoms: C_14  and  C_15
REMARK    4  A    between atoms: C_15  and  C_16
REMARK    5  A    between atoms: C_16  and  O_17
REMARK    6  A    between atoms: O_17  and  C_18
REMARK    7  A    between atoms: N_25  and  C_26
REMARK    8  A    between atoms: C_26  and  C_27
REMARK                            x       y       z     vdW  Elec       q    Type
REMARK                         _______ _______ _______ _____ _____    ______ ____
ROOT
ATOM      1  C   UNL     1      -1.266  11.593  20.188  0.00  0.00    +0.000 A 
ATOM      2  N   UNL     1      -2.362  12.130  19.690  0.00  0.00    +0.000 NA
ATOM      3  C   UNL     1      -2.608  11.489  18.507  0.00  0.00    +0.000 A 
ATOM      4  C   UNL     1      -3.661  11.679  17.601  0.00  0.00    +0.000 A 
ATOM      5  C   UNL     1      -3.702  10.900  16.440  0.00  0.00    +0.000 A 
ATOM      6  C   UNL     1      -2.717   9.941  16.197  0.00  0.00    +0.000 A 
ATOM      7  C   UNL     1      -1.669   9.729  17.099  0.00  0.00    +0.000 A 
ATOM      8  C   UNL     1      -1.634  10.531  18.250  0.00  0.00    +0.000 A 
ATOM      9  N   UNL     1      -0.773  10.620  19.329  0.00  0.00    +0.000 N 
ENDROOT
BRANCH   1  13
ATOM     10  O   UNL     1      -3.324  11.810  23.917  0.00  0.00    +0.000 OA
ATOM     11  C   UNL     1      -2.430  12.137  23.154  0.00  0.00    +0.000 C 
ATOM     12  C   UNL     1      -1.327  11.219  22.676  0.00  0.00    +0.000 C 
ATOM     13  C   UNL     1      -0.672  11.988  21.519  0.00  0.00    +0.000 C 
ATOM     14  C   UNL     1      -0.967  13.453  21.877  0.00  0.00    +0.000 C 
ATOM     15  N   UNL     1      -2.182  13.400  22.660  0.00  0.00    +0.000 N 
BRANCH  15  16
ATOM     16  C   UNL     1      -2.972  14.580  22.974  0.00  0.00    +0.000 C 
BRANCH  16  17
ATOM     17  C   UNL     1      -2.284  15.514  23.944  0.00  0.00    +0.000 A 
ATOM     18  C   UNL     1      -1.977  15.097  25.247  0.00  0.00    +0.000 A 
ATOM     19  C   UNL     1      -1.381  15.979  26.154  0.00  0.00    +0.000 A 
ATOM     20  C   UNL     1      -1.079  17.282  25.767  0.00  0.00    +0.000 A 
ATOM     21  C   UNL     1      -1.340  17.695  24.463  0.00  0.00    +0.000 A 
ATOM     22  C   UNL     1      -1.933  16.816  23.554  0.00  0.00    +0.000 A 
ENDBRANCH  16  17
ENDBRANCH  15  16
ENDBRANCH   1  13
BRANCH   9  23
ATOM     23  C   UNL     1       0.387   9.768  19.529  0.00  0.00    +0.000 C 
BRANCH  23  24
ATOM     24  C   UNL     1       1.473   9.851  18.450  0.00  0.00    +0.000 C 
BRANCH  24  25
ATOM     25  C   UNL     1       2.048   8.493  18.072  0.00  0.00    +0.000 C 
BRANCH  25  26
ATOM     26  O   UNL     1       2.456   7.821  19.266  0.00  0.00    +0.000 OA
BRANCH  26  27
ATOM     27  C   UNL     1       2.140   6.490  19.345  0.00  0.00    +0.000 A 
ATOM     28  C   UNL     1       1.737   5.818  20.504  0.00  0.00    +0.000 A 
ATOM     29  C   UNL     1       1.450   4.452  20.464  0.00  0.00    +0.000 A 
ATOM     30  C   UNL     1       1.556   3.747  19.268  0.00  0.00    +0.000 A 
ATOM     31  C   UNL     1       1.948   4.410  18.108  0.00  0.00    +0.000 A 
ATOM     32  C   UNL     1       2.239   5.777  18.146  0.00  0.00    +0.000 A 
ENDBRANCH  26  27
ENDBRANCH  25  26
ENDBRANCH  24  25
ENDBRANCH  23  24
ENDBRANCH   9  23
TORSDOF 8
ENDMDL
MODEL 8
REMARK VINA RESULT:      -7.5      4.260      9.606
REMARK  Name = 
REMARK  8 active torsions:
REMARK  status: ('A' for Active; 'I' for Inactive)
REMARK    1  A    between atoms: C_4  and  C_5
REMARK    2  A    between atoms: N_13  and  C_14
REMARK    3  A    between atoms: C_14  and  C_15
REMARK    4  A    between atoms: C_15  and  C_16
REMARK    5  A    between atoms: C_16  and  O_17
REMARK    6  A    between atoms: O_17  and  C_18
REMARK    7  A    between atoms: N_25  and  C_26
REMARK    8  A    between atoms: C_26  and  C_27
REMARK                            x       y       z     vdW  Elec       q    Type
REMARK                         _______ _______ _______ _____ _____    ______ ____
ROOT
ATOM      1  C   UNL     1       3.706   5.592  17.580  0.00  0.00    +0.000 A 
ATOM      2  N   UNL     1       3.718   4.296  17.341  0.00  0.00    +0.000 NA
ATOM      3  C   UNL     1       2.868   3.724  18.248  0.00  0.00    +0.000 A 
ATOM      4  C   UNL     1       2.520   2.375  18.404  0.00  0.00    +0.000 A 
ATOM      5  C   UNL     1       1.624   2.023  19.419  0.00  0.00    +0.000 A 
ATOM      6  C   UNL     1       1.079   3.000  20.252  0.00  0.00    +0.000 A 
ATOM      7  C   UNL     1       1.406   4.352  20.098  0.00  0.00    +0.000 A 
ATOM      8  C   UNL     1       2.318   4.686  19.087  0.00  0.00    +0.000 A 
ATOM      9  N   UNL     1       2.876   5.876  18.656  0.00  0.00    +0.000 N 
ENDROOT
BRANCH   1  13
ATOM     10  O   UNL     1       7.662   5.117  16.059  0.00  0.00    +0.000 OA
ATOM     11  C   UNL     1       6.725   5.798  16.445  0.00  0.00    +0.000 C 
ATOM     12  C   UNL     1       5.392   5.908  15.739  0.00  0.00    +0.000 C 
ATOM     13  C   UNL     1       4.481   6.599  16.763  0.00  0.00    +0.000 C 
ATOM     14  C   UNL     1       5.476   7.400  17.616  0.00  0.00    +0.000 C 
ATOM     15  N   UNL     1       6.716   6.664  17.518  0.00  0.00    +0.000 N 
BRANCH  15  16
ATOM     16  C   UNL     1       7.853   6.910  18.390  0.00  0.00    +0.000 C 
BRANCH  16  17
ATOM     17  C   UNL     1       8.284   8.359  18.411  0.00  0.00    +0.000 A 
ATOM     18  C   UNL     1       9.033   8.871  19.481  0.00  0.00    +0.000 A 
ATOM     19  C   UNL     1       9.391  10.222  19.516  0.00  0.00    +0.000 A 
ATOM     20  C   UNL     1       9.012  11.073  18.481  0.00  0.00    +0.000 A 
ATOM     21  C   UNL     1       8.305  10.568  17.392  0.00  0.00    +0.000 A 
ATOM     22  C   UNL     1       7.949   9.219  17.353  0.00  0.00    +0.000 A 
ENDBRANCH  16  17
ENDBRANCH  15  16
ENDBRANCH   1  13
BRANCH   9  23
ATOM     23  C   UNL     1       2.557   7.182  19.207  0.00  0.00    +0.000 C 
BRANCH  23  24
ATOM     24  C   UNL     1       1.848   8.154  18.256  0.00  0.00    +0.000 C 
BRANCH  24  25
ATOM     25  C   UNL     1       1.624   9.532  18.865  0.00  0.00    +0.000 C 
BRANCH  25  26
ATOM     26  O   UNL     1       0.223   9.712  19.083  0.00  0.00    +0.000 OA
BRANCH  26  27
ATOM     27  C   UNL     1      -0.152  10.012  20.368  0.00  0.00    +0.000 A 
ATOM     28  C   UNL     1      -0.795  11.187  20.773  0.00  0.00    +0.000 A 
ATOM     29  C   UNL     1      -1.120  11.385  22.116  0.00  0.00    +0.000 A 
ATOM     30  C   UNL     1      -0.811  10.414  23.064  0.00  0.00    +0.000 A 
ATOM     31  C   UNL     1      -0.178   9.238  22.668  0.00  0.00    +0.000 A 
ATOM     32  C   UNL     1       0.150   9.038  21.324  0.00  0.00    +0.000 A 
ENDBRANCH  26  27
ENDBRANCH  25  26
ENDBRANCH  24  25
ENDBRANCH  23  24
ENDBRANCH   9  23
TORSDOF 8
ENDMDL
MODEL 9
REMARK VINA RESULT:      -7.4      2.498      4.518
REMARK  Name = 
REMARK  8 active torsions:
REMARK  status: ('A' for Active; 'I' for Inactive)
REMARK    1  A    between atoms: C_4  and  C_5
REMARK    2  A    between atoms: N_13  and  C_14
REMARK    3  A    between atoms: C_14  and  C_15
REMARK    4  A    between atoms: C_15  and  C_16
REMARK    5  A    between atoms: C_16  and  O_17
REMARK    6  A    between atoms: O_17  and  C_18
REMARK    7  A    between atoms: N_25  and  C_26
REMARK    8  A    between atoms: C_26  and  C_27
REMARK                            x       y       z     vdW  Elec       q    Type
REMARK                         _______ _______ _______ _____ _____    ______ ____
ROOT
ATOM      1  C   UNL     1      -1.070  10.772  18.225  0.00  0.00    +0.000 A 
ATOM      2  N   UNL     1      -1.432  11.961  18.662  0.00  0.00    +0.000 NA
ATOM      3  C   UNL     1      -0.284  12.611  19.024  0.00  0.00    +0.000 A 
ATOM      4  C   UNL     1      -0.125  13.907  19.535  0.00  0.00    +0.000 A 
ATOM      5  C   UNL     1       1.163  14.358  19.841  0.00  0.00    +0.000 A 
ATOM      6  C   UNL     1       2.270  13.535  19.630  0.00  0.00    +0.000 A 
ATOM      7  C   UNL     1       2.128  12.245  19.106  0.00  0.00    +0.000 A 
ATOM      8  C   UNL     1       0.828  11.802  18.819  0.00  0.00    +0.000 A 
ATOM      9  N   UNL     1       0.307  10.622  18.321  0.00  0.00    +0.000 N 
ENDROOT
BRANCH   1  13
ATOM     10  O   UNL     1      -3.444  11.153  14.703  0.00  0.00    +0.000 OA
ATOM     11  C   UNL     1      -3.220  10.698  15.813  0.00  0.00    +0.000 C 
ATOM     12  C   UNL     1      -2.074   9.769  16.147  0.00  0.00    +0.000 C 
ATOM     13  C   UNL     1      -2.041   9.750  17.682  0.00  0.00    +0.000 C 
ATOM     14  C   UNL     1      -3.496  10.072  18.056  0.00  0.00    +0.000 C 
ATOM     15  N   UNL     1      -3.997  10.846  16.943  0.00  0.00    +0.000 N 
BRANCH  15  16
ATOM     16  C   UNL     1      -5.243  11.594  16.997  0.00  0.00    +0.000 C 
BRANCH  16  17
ATOM     17  C   UNL     1      -5.817  11.690  18.392  0.00  0.00    +0.000 A 
ATOM     18  C   UNL     1      -5.330  12.637  19.305  0.00  0.00    +0.000 A 
ATOM     19  C   UNL     1      -5.835  12.693  20.608  0.00  0.00    +0.000 A 
ATOM     20  C   UNL     1      -6.836  11.812  21.009  0.00  0.00    +0.000 A 
ATOM     21  C   UNL     1      -7.357  10.895  20.099  0.00  0.00    +0.000 A 
ATOM     22  C   UNL     1      -6.857  10.839  18.796  0.00  0.00    +0.000 A 
ENDBRANCH  16  17
ENDBRANCH  15  16
ENDBRANCH   1  13
BRANCH   9  23
ATOM     23  C   UNL     1       1.104   9.480  17.906  0.00  0.00    +0.000 C 
BRANCH  23  24
ATOM     24  C   UNL     1       1.495   8.498  19.016  0.00  0.00    +0.000 C 
BRANCH  24  25
ATOM     25  C   UNL     1       2.726   7.668  18.677  0.00  0.00    +0.000 C 
BRANCH  25  26
ATOM     26  O   UNL     1       2.302   6.465  18.031  0.00  0.00    +0.000 OA
BRANCH  26  27
ATOM     27  C   UNL     1       2.013   5.409  18.856  0.00  0.00    +0.000 A 
ATOM     28  C   UNL     1       2.187   5.392  20.244  0.00  0.00    +0.000 A 
ATOM     29  C   UNL     1       1.864   4.251  20.981  0.00  0.00    +0.000 A 
ATOM     30  C   UNL     1       1.362   3.121  20.342  0.00  0.00    +0.000 A 
ATOM     31  C   UNL     1       1.178   3.133  18.961  0.00  0.00    +0.000 A 
ATOM     32  C   UNL     1       1.502   4.273  18.221  0.00  0.00    +0.000 A 
ENDBRANCH  26  27
ENDBRANCH  25  26
ENDBRANCH  24  25
ENDBRANCH  23  24
ENDBRANCH   9  23
TORSDOF 8
ENDMDL
