MODEL 1
REMARK VINA RESULT:      -8.3      0.000      0.000
REMARK  Name = 
REMARK  4 active torsions:
REMARK  status: ('A' for Active; 'I' for Inactive)
REMARK    1  A    between atoms: C_4  and  C_5
REMARK    2  A    between atoms: C_9  and  N_10
REMARK    3  A    between atoms: N_10  and  C_11
REMARK    4  A    between atoms: C_11  and  C_12
REMARK                            x       y       z     vdW  Elec       q    Type
REMARK                         _______ _______ _______ _____ _____    ______ ____
ROOT
ATOM      1  C   UNL     1       2.745   6.014  18.938  0.00  0.00    +0.000 A 
ATOM      2  N   UNL     1       1.915   5.043  18.527  0.00  0.00    +0.000 NA
ATOM      3  C   UNL     1       2.448   3.817  18.582  0.00  0.00    +0.000 A 
ATOM      4  C   UNL     1       3.730   3.505  19.013  0.00  0.00    +0.000 A 
ATOM      5  C   UNL     1       4.520   4.544  19.409  0.00  0.00    +0.000 A 
ATOM      6  N   UNL     1       4.006   5.793  19.367  0.00  0.00    +0.000 NA
ATOM      7  C   UNL     1       4.000   2.048  18.873  0.00  0.00    +0.000 C 
ATOM      8  C   UNL     1       2.569   1.494  18.766  0.00  0.00    +0.000 C 
ATOM      9  C   UNL     1       1.719   2.590  18.115  0.00  0.00    +0.000 C 
ENDROOT
BRANCH   1  13
ATOM     10  C   UNL     1       1.334  10.028  19.071  0.00  0.00    +0.000 A 
ATOM     11  C   UNL     1       1.928   9.572  17.900  0.00  0.00    +0.000 A 
ATOM     12  C   UNL     1       2.400   8.260  17.837  0.00  0.00    +0.000 A 
ATOM     13  C   UNL     1       2.262   7.422  18.947  0.00  0.00    +0.000 A 
ATOM     14  N   UNL     1       1.670   7.878  20.095  0.00  0.00    +0.000 NA
ATOM     15  C   UNL     1       1.213   9.146  20.132  0.00  0.00    +0.000 A 
ENDBRANCH   1  13
BRANCH   5  16
ATOM     16  N   UNL     1       5.880   4.372  19.822  0.00  0.00    +0.000 N 
ATOM     17  H   UNL     1       5.907   4.297  20.835  0.00  0.00    +0.000 HD
BRANCH  16  18
ATOM     18  C   UNL     1       6.620   5.535  19.307  0.00  0.00    +0.000 C 
BRANCH  18  19
ATOM     19  C   UNL     1       7.313   5.520  17.940  0.00  0.00    +0.000 C 
ATOM     20  C   UNL     1       7.313   7.018  17.491  0.00  0.00    +0.000 C 
ATOM     21  C   UNL     1       5.879   7.268  16.976  0.00  0.00    +0.000 C 
ATOM     22  C   UNL     1       5.754   6.006  16.183  0.00  0.00    +0.000 A 
ATOM     23  C   UNL     1       5.238   5.896  14.908  0.00  0.00    +0.000 A 
ATOM     24  C   UNL     1       5.643   4.800  14.159  0.00  0.00    +0.000 A 
ATOM     25  C   UNL     1       6.487   3.857  14.748  0.00  0.00    +0.000 A 
ATOM     26  N   UNL     1       6.946   3.915  16.026  0.00  0.00    +0.000 NA
ATOM     27  C   UNL     1       6.554   4.992  16.732  0.00  0.00    +0.000 A 
ENDBRANCH  18  19
ENDBRANCH  16  18
ENDBRANCH   5  16
TORSDOF 4
ENDMDL
MODEL 2
REMARK VINA RESULT:      -8.1      1.699      5.885
REMARK  Name = 
REMARK  4 active torsions:
REMARK  status: ('A' for Active; 'I' for Inactive)
REMARK    1  A    between atoms: C_4  and  C_5
REMARK    2  A    between atoms: C_9  and  N_10
REMARK    3  A    between atoms: N_10  and  C_11
REMARK    4  A    between atoms: C_11  and  C_12
REMARK                            x       y       z     vdW  Elec       q    Type
REMARK                         _______ _______ _______ _____ _____    ______ ____
ROOT
ATOM      1  C   UNL     1       3.956   6.507  17.690  0.00  0.00    +0.000 A 
ATOM      2  N   UNL     1       3.434   7.666  17.261  0.00  0.00    +0.000 NA
ATOM      3  C   UNL     1       2.558   8.212  18.114  0.00  0.00    +0.000 A 
ATOM      4  C   UNL     1       2.178   7.685  19.340  0.00  0.00    +0.000 A 
ATOM      5  C   UNL     1       2.745   6.499  19.706  0.00  0.00    +0.000 A 
ATOM      6  N   UNL     1       3.635   5.927  18.867  0.00  0.00    +0.000 NA
ATOM      7  C   UNL     1       1.134   8.529  19.983  0.00  0.00    +0.000 C 
ATOM      8  C   UNL     1       1.309   9.848  19.212  0.00  0.00    +0.000 C 
ATOM      9  C   UNL     1       1.809   9.478  17.812  0.00  0.00    +0.000 C 
ENDROOT
BRANCH   1  13
ATOM     10  C   UNL     1       6.900   4.604  15.274  0.00  0.00    +0.000 A 
ATOM     11  C   UNL     1       5.748   3.896  15.597  0.00  0.00    +0.000 A 
ATOM     12  C   UNL     1       4.771   4.501  16.390  0.00  0.00    +0.000 A 
ATOM     13  C   UNL     1       4.962   5.810  16.842  0.00  0.00    +0.000 A 
ATOM     14  N   UNL     1       6.098   6.502  16.514  0.00  0.00    +0.000 NA
ATOM     15  C   UNL     1       7.024   5.902  15.740  0.00  0.00    +0.000 A 
ENDBRANCH   1  13
BRANCH   5  16
ATOM     16  N   UNL     1       2.401   5.816  20.916  0.00  0.00    +0.000 N 
ATOM     17  H   UNL     1       3.120   5.126  21.117  0.00  0.00    +0.000 HD
BRANCH  16  18
ATOM     18  C   UNL     1       1.074   5.220  20.693  0.00  0.00    +0.000 C 
BRANCH  18  19
ATOM     19  C   UNL     1       0.900   3.804  20.134  0.00  0.00    +0.000 C 
ATOM     20  C   UNL     1       1.185   2.870  21.356  0.00  0.00    +0.000 C 
ATOM     21  C   UNL     1       2.725   2.842  21.471  0.00  0.00    +0.000 C 
ATOM     22  C   UNL     1       3.008   2.666  20.014  0.00  0.00    +0.000 A 
ATOM     23  C   UNL     1       3.924   1.791  19.465  0.00  0.00    +0.000 A 
ATOM     24  C   UNL     1       3.712   1.403  18.149  0.00  0.00    +0.000 A 
ATOM     25  C   UNL     1       2.638   1.956  17.450  0.00  0.00    +0.000 A 
ATOM     26  N   UNL     1       1.770   2.873  17.954  0.00  0.00    +0.000 NA
ATOM     27  C   UNL     1       1.984   3.226  19.235  0.00  0.00    +0.000 A 
ENDBRANCH  18  19
ENDBRANCH  16  18
ENDBRANCH   5  16
TORSDOF 4
ENDMDL
MODEL 3
REMARK VINA RESULT:      -8.1      2.170      4.797
REMARK  Name = 
REMARK  4 active torsions:
REMARK  status: ('A' for Active; 'I' for Inactive)
REMARK    1  A    between atoms: C_4  and  C_5
REMARK    2  A    between atoms: C_9  and  N_10
REMARK    3  A    between atoms: N_10  and  C_11
REMARK    4  A    between atoms: C_11  and  C_12
REMARK                            x       y       z     vdW  Elec       q    Type
REMARK                         _______ _______ _______ _____ _____    ______ ____
ROOT
ATOM      1  C   UNL     1       1.916   8.765  18.487  0.00  0.00    +0.000 A 
ATOM      2  N   UNL     1       2.739   8.599  17.440  0.00  0.00    +0.000 NA
ATOM      3  C   UNL     1       3.487   7.491  17.511  0.00  0.00    +0.000 A 
ATOM      4  C   UNL     1       3.465   6.558  18.537  0.00  0.00    +0.000 A 
ATOM      5  C   UNL     1       2.609   6.796  19.572  0.00  0.00    +0.000 A 
ATOM      6  N   UNL     1       1.839   7.905  19.526  0.00  0.00    +0.000 NA
ATOM      7  C   UNL     1       4.479   5.492  18.311  0.00  0.00    +0.000 C 
ATOM      8  C   UNL     1       4.748   5.659  16.806  0.00  0.00    +0.000 C 
ATOM      9  C   UNL     1       4.518   7.138  16.478  0.00  0.00    +0.000 C 
ENDROOT
BRANCH   1  13
ATOM     10  C   UNL     1      -0.576  12.215  18.579  0.00  0.00    +0.000 A 
ATOM     11  C   UNL     1      -1.174  10.968  18.443  0.00  0.00    +0.000 A 
ATOM     12  C   UNL     1      -0.375   9.824  18.407  0.00  0.00    +0.000 A 
ATOM     13  C   UNL     1       1.014   9.948  18.517  0.00  0.00    +0.000 A 
ATOM     14  N   UNL     1       1.594  11.181  18.657  0.00  0.00    +0.000 NA
ATOM     15  C   UNL     1       0.803  12.271  18.698  0.00  0.00    +0.000 A 
ENDBRANCH   1  13
BRANCH   5  16
ATOM     16  N   UNL     1       2.526   5.947  20.722  0.00  0.00    +0.000 N 
ATOM     17  H   UNL     1       3.283   5.270  20.684  0.00  0.00    +0.000 HD
BRANCH  16  18
ATOM     18  C   UNL     1       1.192   5.326  20.683  0.00  0.00    +0.000 C 
BRANCH  18  19
ATOM     19  C   UNL     1       0.954   3.945  20.062  0.00  0.00    +0.000 C 
ATOM     20  C   UNL     1       1.139   2.950  21.254  0.00  0.00    +0.000 C 
ATOM     21  C   UNL     1       2.669   2.824  21.420  0.00  0.00    +0.000 C 
ATOM     22  C   UNL     1       2.993   2.686  19.967  0.00  0.00    +0.000 A 
ATOM     23  C   UNL     1       3.875   1.779  19.415  0.00  0.00    +0.000 A 
ATOM     24  C   UNL     1       3.687   1.455  18.078  0.00  0.00    +0.000 A 
ATOM     25  C   UNL     1       2.674   2.098  17.366  0.00  0.00    +0.000 A 
ATOM     26  N   UNL     1       1.845   3.047  17.877  0.00  0.00    +0.000 NA
ATOM     27  C   UNL     1       2.033   3.337  19.178  0.00  0.00    +0.000 A 
ENDBRANCH  18  19
ENDBRANCH  16  18
ENDBRANCH   5  16
TORSDOF 4
ENDMDL
MODEL 4
REMARK VINA RESULT:      -8.0      1.651      2.774
REMARK  Name = 
REMARK  4 active torsions:
REMARK  status: ('A' for Active; 'I' for Inactive)
REMARK    1  A    between atoms: C_4  and  C_5
REMARK    2  A    between atoms: C_9  and  N_10
REMARK    3  A    between atoms: N_10  and  C_11
REMARK    4  A    between atoms: C_11  and  C_12
REMARK                            x       y       z     vdW  Elec       q    Type
REMARK                         _______ _______ _______ _____ _____    ______ ____
ROOT
ATOM      1  C   UNL     1       2.402   6.333  19.402  0.00  0.00    +0.000 A 
ATOM      2  N   UNL     1       1.832   5.654  20.409  0.00  0.00    +0.000 NA
ATOM      3  C   UNL     1       2.270   4.395  20.527  0.00  0.00    +0.000 A 
ATOM      4  C   UNL     1       3.221   3.784  19.722  0.00  0.00    +0.000 A 
ATOM      5  C   UNL     1       3.752   4.534  18.714  0.00  0.00    +0.000 A 
ATOM      6  N   UNL     1       3.331   5.810  18.573  0.00  0.00    +0.000 NA
ATOM      7  C   UNL     1       3.408   2.357  20.105  0.00  0.00    +0.000 C 
ATOM      8  C   UNL     1       2.813   2.355  21.523  0.00  0.00    +0.000 C 
ATOM      9  C   UNL     1       1.726   3.436  21.547  0.00  0.00    +0.000 C 
ENDROOT
BRANCH   1  13
ATOM     10  C   UNL     1       1.268  10.402  18.871  0.00  0.00    +0.000 A 
ATOM     11  C   UNL     1       1.865   9.735  17.808  0.00  0.00    +0.000 A 
ATOM     12  C   UNL     1       2.247   8.402  17.962  0.00  0.00    +0.000 A 
ATOM     13  C   UNL     1       2.018   7.754  19.179  0.00  0.00    +0.000 A 
ATOM     14  N   UNL     1       1.423   8.417  20.220  0.00  0.00    +0.000 NA
ATOM     15  C   UNL     1       1.054   9.702  20.046  0.00  0.00    +0.000 A 
ENDBRANCH   1  13
BRANCH   5  16
ATOM     16  N   UNL     1       4.697   4.013  17.774  0.00  0.00    +0.000 N 
ATOM     17  H   UNL     1       5.596   3.908  18.238  0.00  0.00    +0.000 HD
BRANCH  16  18
ATOM     18  C   UNL     1       4.733   4.963  16.651  0.00  0.00    +0.000 C 
BRANCH  18  19
ATOM     19  C   UNL     1       6.016   5.699  16.247  0.00  0.00    +0.000 C 
ATOM     20  C   UNL     1       7.145   4.634  16.431  0.00  0.00    +0.000 C 
ATOM     21  C   UNL     1       7.410   4.608  17.952  0.00  0.00    +0.000 C 
ATOM     22  C   UNL     1       7.416   6.089  18.155  0.00  0.00    +0.000 A 
ATOM     23  C   UNL     1       8.326   6.801  18.910  0.00  0.00    +0.000 A 
ATOM     24  C   UNL     1       8.488   8.144  18.597  0.00  0.00    +0.000 A 
ATOM     25  C   UNL     1       7.692   8.701  17.595  0.00  0.00    +0.000 A 
ATOM     26  N   UNL     1       6.741   8.030  16.892  0.00  0.00    +0.000 NA
ATOM     27  C   UNL     1       6.609   6.727  17.200  0.00  0.00    +0.000 A 
ENDBRANCH  18  19
ENDBRANCH  16  18
ENDBRANCH   5  16
TORSDOF 4
ENDMDL
MODEL 5
REMARK VINA RESULT:      -8.0      2.544      6.850
REMARK  Name = 
REMARK  4 active torsions:
REMARK  status: ('A' for Active; 'I' for Inactive)
REMARK    1  A    between atoms: C_4  and  C_5
REMARK    2  A    between atoms: C_9  and  N_10
REMARK    3  A    between atoms: N_10  and  C_11
REMARK    4  A    between atoms: C_11  and  C_12
REMARK                            x       y       z     vdW  Elec       q    Type
REMARK                         _______ _______ _______ _____ _____    ______ ____
ROOT
ATOM      1  C   UNL     1       6.762   4.766  15.243  0.00  0.00    +0.000 A 
ATOM      2  N   UNL     1       7.417   5.692  15.959  0.00  0.00    +0.000 NA
ATOM      3  C   UNL     1       7.162   5.639  17.272  0.00  0.00    +0.000 A 
ATOM      4  C   UNL     1       6.314   4.740  17.902  0.00  0.00    +0.000 A 
ATOM      5  C   UNL     1       5.676   3.832  17.108  0.00  0.00    +0.000 A 
ATOM      6  N   UNL     1       5.917   3.860  15.779  0.00  0.00    +0.000 NA
ATOM      7  C   UNL     1       6.224   5.023  19.360  0.00  0.00    +0.000 C 
ATOM      8  C   UNL     1       7.485   5.878  19.571  0.00  0.00    +0.000 C 
ATOM      9  C   UNL     1       7.741   6.618  18.254  0.00  0.00    +0.000 C 
ENDROOT
BRANCH   1  13
ATOM     10  C   UNL     1       7.449   4.676  11.043  0.00  0.00    +0.000 A 
ATOM     11  C   UNL     1       6.625   3.706  11.601  0.00  0.00    +0.000 A 
ATOM     12  C   UNL     1       6.389   3.716  12.977  0.00  0.00    +0.000 A 
ATOM     13  C   UNL     1       6.978   4.704  13.771  0.00  0.00    +0.000 A 
ATOM     14  N   UNL     1       7.784   5.660  13.211  0.00  0.00    +0.000 NA
ATOM     15  C   UNL     1       7.990   5.637  11.879  0.00  0.00    +0.000 A 
ENDBRANCH   1  13
BRANCH   5  16
ATOM     16  N   UNL     1       4.730   2.886  17.617  0.00  0.00    +0.000 N 
ATOM     17  H   UNL     1       5.051   1.948  17.391  0.00  0.00    +0.000 HD
BRANCH  16  18
ATOM     18  C   UNL     1       3.436   3.219  17.001  0.00  0.00    +0.000 C 
BRANCH  18  19
ATOM     19  C   UNL     1       2.137   3.275  17.812  0.00  0.00    +0.000 C 
ATOM     20  C   UNL     1       1.718   4.781  17.764  0.00  0.00    +0.000 C 
ATOM     21  C   UNL     1       2.625   5.470  18.807  0.00  0.00    +0.000 C 
ATOM     22  C   UNL     1       2.470   4.442  19.882  0.00  0.00    +0.000 A 
ATOM     23  C   UNL     1       2.250   4.694  21.221  0.00  0.00    +0.000 A 
ATOM     24  C   UNL     1       1.651   3.684  21.960  0.00  0.00    +0.000 A 
ATOM     25  C   UNL     1       1.364   2.470  21.333  0.00  0.00    +0.000 A 
ATOM     26  N   UNL     1       1.641   2.182  20.033  0.00  0.00    +0.000 NA
ATOM     27  C   UNL     1       2.209   3.178  19.329  0.00  0.00    +0.000 A 
ENDBRANCH  18  19
ENDBRANCH  16  18
ENDBRANCH   5  16
TORSDOF 4
ENDMDL
MODEL 6
REMARK VINA RESULT:      -8.0      0.651      1.073
REMARK  Name = 
REMARK  4 active torsions:
REMARK  status: ('A' for Active; 'I' for Inactive)
REMARK    1  A    between atoms: C_4  and  C_5
REMARK    2  A    between atoms: C_9  and  N_10
REMARK    3  A    between atoms: N_10  and  C_11
REMARK    4  A    between atoms: C_11  and  C_12
REMARK                            x       y       z     vdW  Elec       q    Type
REMARK                         _______ _______ _______ _____ _____    ______ ____
ROOT
ATOM      1  C   UNL     1       2.699   5.906  19.324  0.00  0.00    +0.000 A 
ATOM      2  N   UNL     1       1.898   4.926  18.877  0.00  0.00    +0.000 NA
ATOM      3  C   UNL     1       2.521   3.753  18.710  0.00  0.00    +0.000 A 
ATOM      4  C   UNL     1       3.863   3.501  18.955  0.00  0.00    +0.000 A 
ATOM      5  C   UNL     1       4.617   4.547  19.402  0.00  0.00    +0.000 A 
ATOM      6  N   UNL     1       4.014   5.742  19.583  0.00  0.00    +0.000 NA
ATOM      7  C   UNL     1       4.219   2.102  18.592  0.00  0.00    +0.000 C 
ATOM      8  C   UNL     1       2.829   1.445  18.565  0.00  0.00    +0.000 C 
ATOM      9  C   UNL     1       1.833   2.537  18.162  0.00  0.00    +0.000 C 
ENDROOT
BRANCH   1  13
ATOM     10  C   UNL     1       1.065   9.789  19.933  0.00  0.00    +0.000 A 
ATOM     11  C   UNL     1       1.065   8.895  20.997  0.00  0.00    +0.000 A 
ATOM     12  C   UNL     1       1.594   7.616  20.818  0.00  0.00    +0.000 A 
ATOM     13  C   UNL     1       2.121   7.254  19.574  0.00  0.00    +0.000 A 
ATOM     14  N   UNL     1       2.122   8.144  18.532  0.00  0.00    +0.000 NA
ATOM     15  C   UNL     1       1.614   9.377  18.730  0.00  0.00    +0.000 A 
ENDBRANCH   1  13
BRANCH   5  16
ATOM     16  N   UNL     1       6.025   4.442  19.640  0.00  0.00    +0.000 N 
ATOM     17  H   UNL     1       6.175   4.206  20.617  0.00  0.00    +0.000 HD
BRANCH  16  18
ATOM     18  C   UNL     1       6.607   5.741  19.263  0.00  0.00    +0.000 C 
BRANCH  18  19
ATOM     19  C   UNL     1       7.288   5.965  17.908  0.00  0.00    +0.000 C 
ATOM     20  C   UNL     1       6.794   7.378  17.458  0.00  0.00    +0.000 C 
ATOM     21  C   UNL     1       5.369   7.136  16.917  0.00  0.00    +0.000 C 
ATOM     22  C   UNL     1       5.687   5.909  16.123  0.00  0.00    +0.000 A 
ATOM     23  C   UNL     1       5.258   5.639  14.840  0.00  0.00    +0.000 A 
ATOM     24  C   UNL     1       6.020   4.745  14.099  0.00  0.00    +0.000 A 
ATOM     25  C   UNL     1       7.121   4.137  14.703  0.00  0.00    +0.000 A 
ATOM     26  N   UNL     1       7.512   4.338  15.990  0.00  0.00    +0.000 NA
ATOM     27  C   UNL     1       6.770   5.218  16.687  0.00  0.00    +0.000 A 
ENDBRANCH  18  19
ENDBRANCH  16  18
ENDBRANCH   5  16
TORSDOF 4
ENDMDL
MODEL 7
REMARK VINA RESULT:      -7.9      2.025      6.348
REMARK  Name = 
REMARK  4 active torsions:
REMARK  status: ('A' for Active; 'I' for Inactive)
REMARK    1  A    between atoms: C_4  and  C_5
REMARK    2  A    between atoms: C_9  and  N_10
REMARK    3  A    between atoms: N_10  and  C_11
REMARK    4  A    between atoms: C_11  and  C_12
REMARK                            x       y       z     vdW  Elec       q    Type
REMARK                         _______ _______ _______ _____ _____    ______ ____
ROOT
ATOM      1  C   UNL     1       4.342   5.043  19.077  0.00  0.00    +0.000 A 
ATOM      2  N   UNL     1       4.018   3.867  18.517  0.00  0.00    +0.000 NA
ATOM      3  C   UNL     1       2.816   3.407  18.885  0.00  0.00    +0.000 A 
ATOM      4  C   UNL     1       1.936   4.031  19.756  0.00  0.00    +0.000 A 
ATOM      5  C   UNL     1       2.335   5.221  20.292  0.00  0.00    +0.000 A 
ATOM      6  N   UNL     1       3.543   5.712  19.936  0.00  0.00    +0.000 NA
ATOM      7  C   UNL     1       0.725   3.195  19.983  0.00  0.00    +0.000 C 
ATOM      8  C   UNL     1       0.794   2.247  18.773  0.00  0.00    +0.000 C 
ATOM      9  C   UNL     1       2.278   2.082  18.427  0.00  0.00    +0.000 C 
ENDROOT
BRANCH   1  13
ATOM     10  C   UNL     1       8.114   6.795  18.172  0.00  0.00    +0.000 A 
ATOM     11  C   UNL     1       7.033   7.087  17.349  0.00  0.00    +0.000 A 
ATOM     12  C   UNL     1       5.788   6.520  17.627  0.00  0.00    +0.000 A 
ATOM     13  C   UNL     1       5.644   5.675  18.731  0.00  0.00    +0.000 A 
ATOM     14  N   UNL     1       6.714   5.398  19.540  0.00  0.00    +0.000 NA
ATOM     15  C   UNL     1       7.906   5.963  19.259  0.00  0.00    +0.000 A 
ENDBRANCH   1  13
BRANCH   5  16
ATOM     16  N   UNL     1       1.552   5.943  21.248  0.00  0.00    +0.000 N 
ATOM     17  H   UNL     1       0.856   5.315  21.642  0.00  0.00    +0.000 HD
BRANCH  16  18
ATOM     18  C   UNL     1       0.961   7.081  20.524  0.00  0.00    +0.000 C 
BRANCH  18  19
ATOM     19  C   UNL     1       1.509   8.506  20.661  0.00  0.00    +0.000 C 
ATOM     20  C   UNL     1       1.222   8.888  22.150  0.00  0.00    +0.000 C 
ATOM     21  C   UNL     1      -0.277   9.256  22.174  0.00  0.00    +0.000 C 
ATOM     22  C   UNL     1      -0.273  10.088  20.931  0.00  0.00    +0.000 A 
ATOM     23  C   UNL     1      -0.889  11.312  20.772  0.00  0.00    +0.000 A 
ATOM     24  C   UNL     1      -0.388  12.143  19.779  0.00  0.00    +0.000 A 
ATOM     25  C   UNL     1       0.651  11.676  18.973  0.00  0.00    +0.000 A 
ATOM     26  N   UNL     1       1.219  10.445  19.070  0.00  0.00    +0.000 NA
ATOM     27  C   UNL     1       0.730   9.660  20.048  0.00  0.00    +0.000 A 
ENDBRANCH  18  19
ENDBRANCH  16  18
ENDBRANCH   5  16
TORSDOF 4
ENDMDL
MODEL 8
REMARK VINA RESULT:      -7.8      1.281      1.549
REMARK  Name = 
REMARK  4 active torsions:
REMARK  status: ('A' for Active; 'I' for Inactive)
REMARK    1  A    between atoms: C_4  and  C_5
REMARK    2  A    between atoms: C_9  and  N_10
REMARK    3  A    between atoms: N_10  and  C_11
REMARK    4  A    between atoms: C_11  and  C_12
REMARK                            x       y       z     vdW  Elec       q    Type
REMARK                         _______ _______ _______ _____ _____    ______ ____
ROOT
ATOM      1  C   UNL     1       2.416   6.269  19.766  0.00  0.00    +0.000 A 
ATOM      2  N   UNL     1       1.540   5.440  20.354  0.00  0.00    +0.000 NA
ATOM      3  C   UNL     1       2.033   4.221  20.603  0.00  0.00    +0.000 A 
ATOM      4  C   UNL     1       3.317   3.786  20.309  0.00  0.00    +0.000 A 
ATOM      5  C   UNL     1       4.150   4.681  19.705  0.00  0.00    +0.000 A 
ATOM      6  N   UNL     1       3.681   5.921  19.445  0.00  0.00    +0.000 NA
ATOM      7  C   UNL     1       3.489   2.351  20.666  0.00  0.00    +0.000 C 
ATOM      8  C   UNL     1       2.314   2.148  21.637  0.00  0.00    +0.000 C 
ATOM      9  C   UNL     1       1.209   3.117  21.201  0.00  0.00    +0.000 C 
ENDROOT
BRANCH   1  13
ATOM     10  C   UNL     1       1.252  10.243  18.779  0.00  0.00    +0.000 A 
ATOM     11  C   UNL     1       1.019   9.785  20.070  0.00  0.00    +0.000 A 
ATOM     12  C   UNL     1       1.390   8.484  20.413  0.00  0.00    +0.000 A 
ATOM     13  C   UNL     1       1.997   7.664  19.458  0.00  0.00    +0.000 A 
ATOM     14  N   UNL     1       2.229   8.126  18.189  0.00  0.00    +0.000 NA
ATOM     15  C   UNL     1       1.871   9.389  17.881  0.00  0.00    +0.000 A 
ENDBRANCH   1  13
BRANCH   5  16
ATOM     16  N   UNL     1       5.481   4.348  19.295  0.00  0.00    +0.000 N 
ATOM     17  H   UNL     1       5.901   3.751  20.002  0.00  0.00    +0.000 HD
BRANCH  16  18
ATOM     18  C   UNL     1       6.192   5.625  19.119  0.00  0.00    +0.000 C 
BRANCH  18  19
ATOM     19  C   UNL     1       6.963   5.957  17.837  0.00  0.00    +0.000 C 
ATOM     20  C   UNL     1       6.344   7.310  17.355  0.00  0.00    +0.000 C 
ATOM     21  C   UNL     1       5.014   6.908  16.680  0.00  0.00    +0.000 C 
ATOM     22  C   UNL     1       5.552   5.745  15.909  0.00  0.00    +0.000 A 
ATOM     23  C   UNL     1       5.280   5.451  14.588  0.00  0.00    +0.000 A 
ATOM     24  C   UNL     1       6.209   4.672  13.914  0.00  0.00    +0.000 A 
ATOM     25  C   UNL     1       7.316   4.189  14.614  0.00  0.00    +0.000 A 
ATOM     26  N   UNL     1       7.560   4.409  15.933  0.00  0.00    +0.000 NA
ATOM     27  C   UNL     1       6.655   5.179  16.566  0.00  0.00    +0.000 A 
ENDBRANCH  18  19
ENDBRANCH  16  18
ENDBRANCH   5  16
TORSDOF 4
ENDMDL
MODEL 9
REMARK VINA RESULT:      -7.8      1.576      5.852
REMARK  Name = 
REMARK  4 active torsions:
REMARK  status: ('A' for Active; 'I' for Inactive)
REMARK    1  A    between atoms: C_4  and  C_5
REMARK    2  A    between atoms: C_9  and  N_10
REMARK    3  A    between atoms: N_10  and  C_11
REMARK    4  A    between atoms: C_11  and  C_12
REMARK                            x       y       z     vdW  Elec       q    Type
REMARK                         _______ _______ _______ _____ _____    ______ ____
ROOT
ATOM      1  C   UNL     1       3.530   7.076  18.099  0.00  0.00    +0.000 A 
ATOM      2  N   UNL     1       3.224   8.253  17.531  0.00  0.00    +0.000 NA
ATOM      3  C   UNL     1       2.298   8.951  18.199  0.00  0.00    +0.000 A 
ATOM      4  C   UNL     1       1.672   8.559  19.373  0.00  0.00    +0.000 A 
ATOM      5  C   UNL     1       2.028   7.347  19.889  0.00  0.00    +0.000 A 
ATOM      6  N   UNL     1       2.963   6.621  19.238  0.00  0.00    +0.000 NA
ATOM      7  C   UNL     1       0.649   9.556  19.792  0.00  0.00    +0.000 C 
ATOM      8  C   UNL     1       1.099  10.789  18.991  0.00  0.00    +0.000 C 
ATOM      9  C   UNL     1       1.763  10.267  17.713  0.00  0.00    +0.000 C 
ENDROOT
BRANCH   1  13
ATOM     10  C   UNL     1       6.499   4.555  16.383  0.00  0.00    +0.000 A 
ATOM     11  C   UNL     1       5.918   5.533  15.585  0.00  0.00    +0.000 A 
ATOM     12  C   UNL     1       4.940   6.369  16.128  0.00  0.00    +0.000 A 
ATOM     13  C   UNL     1       4.565   6.214  17.466  0.00  0.00    +0.000 A 
ATOM     14  N   UNL     1       5.147   5.251  18.246  0.00  0.00    +0.000 NA
ATOM     15  C   UNL     1       6.096   4.461  17.704  0.00  0.00    +0.000 A 
ENDBRANCH   1  13
BRANCH   5  16
ATOM     16  N   UNL     1       1.420   6.794  21.061  0.00  0.00    +0.000 N 
ATOM     17  H   UNL     1       1.650   7.382  21.857  0.00  0.00    +0.000 HD
BRANCH  16  18
ATOM     18  C   UNL     1       1.936   5.421  21.188  0.00  0.00    +0.000 C 
BRANCH  18  19
ATOM     19  C   UNL     1       1.382   4.262  20.353  0.00  0.00    +0.000 C 
ATOM     20  C   UNL     1       1.371   3.048  21.339  0.00  0.00    +0.000 C 
ATOM     21  C   UNL     1       2.838   2.569  21.380  0.00  0.00    +0.000 C 
ATOM     22  C   UNL     1       3.086   2.634  19.907  0.00  0.00    +0.000 A 
ATOM     23  C   UNL     1       3.729   1.677  19.149  0.00  0.00    +0.000 A 
ATOM     24  C   UNL     1       3.440   1.653  17.792  0.00  0.00    +0.000 A 
ATOM     25  C   UNL     1       2.578   2.618  17.270  0.00  0.00    +0.000 A 
ATOM     26  N   UNL     1       1.994   3.611  17.991  0.00  0.00    +0.000 NA
ATOM     27  C   UNL     1       2.275   3.610  19.308  0.00  0.00    +0.000 A 
ENDBRANCH  18  19
ENDBRANCH  16  18
ENDBRANCH   5  16
TORSDOF 4
ENDMDL
